ligand
 OpenBabel11021811503D
libRbt.so/2013.1/901 2013/11/27
 10 11  0  0  0  0  0  0  0  0999 V2000
    3.7816  -19.5116   26.0162 N   0  0  0  0  0  0  0  0  0  0  0  0
    3.1000  -19.0684   27.0746 C   0  0  0  0  0  0  0  0  0  0  0  0
    1.8250  -19.2971   27.4129 N   0  0  0  0  0  0  0  0  0  0  0  0
    1.2256  -20.0759   26.4920 C   0  0  0  0  0  0  0  0  0  0  0  0
    1.7951  -20.6074   25.3506 C   0  0  0  0  0  0  0  0  0  0  0  0
    3.1496  -20.3007   25.1123 C   0  0  0  0  0  0  0  0  0  0  0  0
    3.8219  -20.7435   24.0376 N   0  0  0  0  0  0  0  0  0  0  0  0
    0.8787  -21.3659   24.6455 N   0  0  0  0  0  0  0  0  0  0  0  0
   -0.2115  -21.2894   25.3620 C   0  0  0  0  0  0  0  0  0  0  0  0
   -0.0755  -20.5189   26.4861 N   0  0  0  0  0  0  0  0  0  0  0  0
  1  2  2  0  0  0  0
  1  6  1  0  0  0  0
  2  3  1  0  0  0  0
  3  4  2  0  0  0  0
  4  5  1  0  0  0  0
  4 10  1  0  0  0  0
  5  6  2  0  0  0  0
  5  8  1  0  0  0  0
  6  7  1  0  0  0  0
  8  9  1  0  0  0  0
  9 10  2  0  0  0  0
M  END
>  <CHROM.1>
1.93804088,-20.27860995,25.79289260,0.11687483,0.28023847,1.00667207

>  <Name>
ligand

>  <RI>
0

>  <Rbt.Current_Directory>
/home/itssahil/PROJECTS/Mol_Feturizer/New_Systems/rnas/4LW0

>  <Rbt.Executable>
rbdock ($Id: //depot/dev/client3/rdock/2013.1/src/exe/rbdock.cxx#4 $)

>  <Rbt.Library>
libRbt.so (2013.1, Build901 2013/11/27)

>  <Rbt.Parameter_File>
/export/apps/rDock/src/rDock_2013.1_src/data/scripts/dock_solv.prm

>  <Rbt.Receptor>
prm/pocket_docking_5.prm

>  <SCORE>
-13.3285

>  <SCORE.INTER>
-13.3285

>  <SCORE.INTER.CONST>
1

>  <SCORE.INTER.POLAR>
0

>  <SCORE.INTER.ROT>
0

>  <SCORE.INTER.SOLV>
4.38105

>  <SCORE.INTER.VDW>
-13.946

>  <SCORE.INTER.norm>
-1.33285

>  <SCORE.INTRA>
0

>  <SCORE.INTRA.DIHEDRAL>
0

>  <SCORE.INTRA.DIHEDRAL.0>
0

>  <SCORE.INTRA.POLAR>
0

>  <SCORE.INTRA.POLAR.0>
0

>  <SCORE.INTRA.REPUL>
0

>  <SCORE.INTRA.REPUL.0>
0

>  <SCORE.INTRA.SOLV>
0

>  <SCORE.INTRA.SOLV.lig_0>
-23.9151

>  <SCORE.INTRA.VDW>
0

>  <SCORE.INTRA.VDW.0>
0

>  <SCORE.INTRA.norm>
0

>  <SCORE.RESTR>
0

>  <SCORE.RESTR.CAVITY>
0

>  <SCORE.RESTR.norm>
0

>  <SCORE.SYSTEM>
0

>  <SCORE.SYSTEM.CONST>
0

>  <SCORE.SYSTEM.DIHEDRAL>
0

>  <SCORE.SYSTEM.SOLV>
0

>  <SCORE.SYSTEM.norm>
0

>  <SCORE.heavy>
10

>  <SCORE.norm>
-1.33285

>  <RMSD>
0.927

$$$$
ligand
 OpenBabel11021811503D
libRbt.so/2013.1/901 2013/11/27
 10 11  0  0  0  0  0  0  0  0999 V2000
    3.7526  -19.4730   26.0290 N   0  0  0  0  0  0  0  0  0  0  0  0
    3.0669  -19.0524   27.0939 C   0  0  0  0  0  0  0  0  0  0  0  0
    1.8003  -19.3148   27.4390 N   0  0  0  0  0  0  0  0  0  0  0  0
    1.2147  -20.1038   26.5180 C   0  0  0  0  0  0  0  0  0  0  0  0
    1.7901  -20.6151   25.3703 C   0  0  0  0  0  0  0  0  0  0  0  0
    3.1349  -20.2733   25.1250 C   0  0  0  0  0  0  0  0  0  0  0  0
    3.8112  -20.6936   24.0438 N   0  0  0  0  0  0  0  0  0  0  0  0
    0.8885  -21.3929   24.6670 N   0  0  0  0  0  0  0  0  0  0  0  0
   -0.1986  -21.3474   25.3908 C   0  0  0  0  0  0  0  0  0  0  0  0
   -0.0748  -20.5793   26.5180 N   0  0  0  0  0  0  0  0  0  0  0  0
  1  2  2  0  0  0  0
  1  6  1  0  0  0  0
  2  3  1  0  0  0  0
  3  4  2  0  0  0  0
  4  5  1  0  0  0  0
  4 10  1  0  0  0  0
  5  6  2  0  0  0  0
  5  8  1  0  0  0  0
  6  7  1  0  0  0  0
  8  9  1  0  0  0  0
  9 10  2  0  0  0  0
M  END
>  <CHROM.1>
1.92755738,-20.28502278,25.81332113,0.12526408,0.30488807,1.00930831

>  <Name>
ligand

>  <RI>
0

>  <Rbt.Current_Directory>
/home/itssahil/PROJECTS/Mol_Feturizer/New_Systems/rnas/4LW0

>  <Rbt.Executable>
rbdock ($Id: //depot/dev/client3/rdock/2013.1/src/exe/rbdock.cxx#4 $)

>  <Rbt.Library>
libRbt.so (2013.1, Build901 2013/11/27)

>  <Rbt.Parameter_File>
/export/apps/rDock/src/rDock_2013.1_src/data/scripts/dock_solv.prm

>  <Rbt.Receptor>
prm/pocket_docking_4.prm

>  <SCORE>
-13.2866

>  <SCORE.INTER>
-13.2866

>  <SCORE.INTER.CONST>
1

>  <SCORE.INTER.POLAR>
0

>  <SCORE.INTER.ROT>
0

>  <SCORE.INTER.SOLV>
4.37913

>  <SCORE.INTER.VDW>
-13.9174

>  <SCORE.INTER.norm>
-1.32866

>  <SCORE.INTRA>
0

>  <SCORE.INTRA.DIHEDRAL>
0

>  <SCORE.INTRA.DIHEDRAL.0>
0

>  <SCORE.INTRA.POLAR>
0

>  <SCORE.INTRA.POLAR.0>
0

>  <SCORE.INTRA.REPUL>
0

>  <SCORE.INTRA.REPUL.0>
0

>  <SCORE.INTRA.SOLV>
0

>  <SCORE.INTRA.SOLV.lig_0>
-23.9151

>  <SCORE.INTRA.VDW>
0

>  <SCORE.INTRA.VDW.0>
0

>  <SCORE.INTRA.norm>
0

>  <SCORE.RESTR>
0

>  <SCORE.RESTR.CAVITY>
0

>  <SCORE.RESTR.norm>
0

>  <SCORE.SYSTEM>
0

>  <SCORE.SYSTEM.CONST>
0

>  <SCORE.SYSTEM.DIHEDRAL>
0

>  <SCORE.SYSTEM.SOLV>
0

>  <SCORE.SYSTEM.norm>
0

>  <SCORE.heavy>
10

>  <SCORE.norm>
-1.32866

>  <RMSD>
0.941

$$$$
ligand
 OpenBabel11021811503D
libRbt.so/2013.1/901 2013/11/27
 10 11  0  0  0  0  0  0  0  0999 V2000
    3.8060  -19.5459   26.0619 N   0  0  0  0  0  0  0  0  0  0  0  0
    3.1087  -19.0838   27.1017 C   0  0  0  0  0  0  0  0  0  0  0  0
    1.8243  -19.2933   27.4161 N   0  0  0  0  0  0  0  0  0  0  0  0
    1.2339  -20.0737   26.4908 C   0  0  0  0  0  0  0  0  0  0  0  0
    1.8198  -20.6235   25.3665 C   0  0  0  0  0  0  0  0  0  0  0  0
    3.1826  -20.3361   25.1529 C   0  0  0  0  0  0  0  0  0  0  0  0
    3.8710  -20.7978   24.0965 N   0  0  0  0  0  0  0  0  0  0  0  0
    0.9084  -21.3776   24.6502 N   0  0  0  0  0  0  0  0  0  0  0  0
   -0.1951  -21.2805   25.3435 C   0  0  0  0  0  0  0  0  0  0  0  0
   -0.0722  -20.5006   26.4626 N   0  0  0  0  0  0  0  0  0  0  0  0
  1  2  2  0  0  0  0
  1  6  1  0  0  0  0
  2  3  1  0  0  0  0
  3  4  2  0  0  0  0
  4  5  1  0  0  0  0
  4 10  1  0  0  0  0
  5  6  2  0  0  0  0
  5  8  1  0  0  0  0
  6  7  1  0  0  0  0
  8  9  1  0  0  0  0
  9 10  2  0  0  0  0
M  END
>  <CHROM.1>
1.95785009,-20.29217814,25.80838478,0.12766832,0.25870412,0.99396721

>  <Name>
ligand

>  <RI>
0

>  <Rbt.Current_Directory>
/home/itssahil/PROJECTS/Mol_Feturizer/New_Systems/rnas/4LW0

>  <Rbt.Executable>
rbdock ($Id: //depot/dev/client3/rdock/2013.1/src/exe/rbdock.cxx#4 $)

>  <Rbt.Library>
libRbt.so (2013.1, Build901 2013/11/27)

>  <Rbt.Parameter_File>
/export/apps/rDock/src/rDock_2013.1_src/data/scripts/dock_solv.prm

>  <Rbt.Receptor>
prm/pocket_docking_7.prm

>  <SCORE>
-13.3862

>  <SCORE.INTER>
-13.3862

>  <SCORE.INTER.CONST>
1

>  <SCORE.INTER.POLAR>
0

>  <SCORE.INTER.ROT>
0

>  <SCORE.INTER.SOLV>
4.14615

>  <SCORE.INTER.VDW>
-13.9062

>  <SCORE.INTER.norm>
-1.33862

>  <SCORE.INTRA>
0

>  <SCORE.INTRA.DIHEDRAL>
0

>  <SCORE.INTRA.DIHEDRAL.0>
0

>  <SCORE.INTRA.POLAR>
0

>  <SCORE.INTRA.POLAR.0>
0

>  <SCORE.INTRA.REPUL>
0

>  <SCORE.INTRA.REPUL.0>
0

>  <SCORE.INTRA.SOLV>
0

>  <SCORE.INTRA.SOLV.lig_0>
-23.9151

>  <SCORE.INTRA.VDW>
0

>  <SCORE.INTRA.VDW.0>
0

>  <SCORE.INTRA.norm>
0

>  <SCORE.RESTR>
0

>  <SCORE.RESTR.CAVITY>
0

>  <SCORE.RESTR.norm>
0

>  <SCORE.SYSTEM>
0

>  <SCORE.SYSTEM.CONST>
0

>  <SCORE.SYSTEM.DIHEDRAL>
0

>  <SCORE.SYSTEM.SOLV>
0

>  <SCORE.SYSTEM.norm>
0

>  <SCORE.heavy>
10

>  <SCORE.norm>
-1.33862

>  <RMSD>
0.943

$$$$
ligand
 OpenBabel11021811503D
libRbt.so/2013.1/901 2013/11/27
 10 11  0  0  0  0  0  0  0  0999 V2000
    3.8066  -19.5389   26.0626 N   0  0  0  0  0  0  0  0  0  0  0  0
    3.1083  -19.0805   27.1034 C   0  0  0  0  0  0  0  0  0  0  0  0
    1.8247  -19.2945   27.4179 N   0  0  0  0  0  0  0  0  0  0  0  0
    1.2364  -20.0753   26.4916 C   0  0  0  0  0  0  0  0  0  0  0  0
    1.8236  -20.6217   25.3663 C   0  0  0  0  0  0  0  0  0  0  0  0
    3.1854  -20.3297   25.1527 C   0  0  0  0  0  0  0  0  0  0  0  0
    3.8748  -20.7878   24.0954 N   0  0  0  0  0  0  0  0  0  0  0  0
    0.9143  -21.3776   24.6492 N   0  0  0  0  0  0  0  0  0  0  0  0
   -0.1893  -21.2849   25.3431 C   0  0  0  0  0  0  0  0  0  0  0  0
   -0.0684  -20.5062   26.4633 N   0  0  0  0  0  0  0  0  0  0  0  0
  1  2  2  0  0  0  0
  1  6  1  0  0  0  0
  2  3  1  0  0  0  0
  3  4  2  0  0  0  0
  4  5  1  0  0  0  0
  4 10  1  0  0  0  0
  5  6  2  0  0  0  0
  5  8  1  0  0  0  0
  6  7  1  0  0  0  0
  8  9  1  0  0  0  0
  9 10  2  0  0  0  0
M  END
>  <CHROM.1>
1.96074194,-20.29057898,25.80864630,0.12909726,0.26149367,0.99506371

>  <Name>
ligand

>  <RI>
0

>  <Rbt.Current_Directory>
/home/itssahil/PROJECTS/Mol_Feturizer/New_Systems/rnas/4LW0

>  <Rbt.Executable>
rbdock ($Id: //depot/dev/client3/rdock/2013.1/src/exe/rbdock.cxx#4 $)

>  <Rbt.Library>
libRbt.so (2013.1, Build901 2013/11/27)

>  <Rbt.Parameter_File>
/export/apps/rDock/src/rDock_2013.1_src/data/scripts/dock_solv.prm

>  <Rbt.Receptor>
prm/pocket_docking_7.prm

>  <SCORE>
-13.3904

>  <SCORE.INTER>
-13.3904

>  <SCORE.INTER.CONST>
1

>  <SCORE.INTER.POLAR>
0

>  <SCORE.INTER.ROT>
0

>  <SCORE.INTER.SOLV>
4.11788

>  <SCORE.INTER.VDW>
-13.8995

>  <SCORE.INTER.norm>
-1.33904

>  <SCORE.INTRA>
0

>  <SCORE.INTRA.DIHEDRAL>
0

>  <SCORE.INTRA.DIHEDRAL.0>
0

>  <SCORE.INTRA.POLAR>
0

>  <SCORE.INTRA.POLAR.0>
0

>  <SCORE.INTRA.REPUL>
0

>  <SCORE.INTRA.REPUL.0>
0

>  <SCORE.INTRA.SOLV>
0

>  <SCORE.INTRA.SOLV.lig_0>
-23.9151

>  <SCORE.INTRA.VDW>
0

>  <SCORE.INTRA.VDW.0>
0

>  <SCORE.INTRA.norm>
0

>  <SCORE.RESTR>
0

>  <SCORE.RESTR.CAVITY>
0

>  <SCORE.RESTR.norm>
0

>  <SCORE.SYSTEM>
0

>  <SCORE.SYSTEM.CONST>
0

>  <SCORE.SYSTEM.DIHEDRAL>
0

>  <SCORE.SYSTEM.SOLV>
0

>  <SCORE.SYSTEM.norm>
0

>  <SCORE.heavy>
10

>  <SCORE.norm>
-1.33904

>  <RMSD>
0.944

$$$$
ligand
 OpenBabel11021811503D
libRbt.so/2013.1/901 2013/11/27
 10 11  0  0  0  0  0  0  0  0999 V2000
    3.8068  -19.5392   26.0638 N   0  0  0  0  0  0  0  0  0  0  0  0
    3.1082  -19.0814   27.1046 C   0  0  0  0  0  0  0  0  0  0  0  0
    1.8243  -19.2948   27.4183 N   0  0  0  0  0  0  0  0  0  0  0  0
    1.2360  -20.0745   26.4911 C   0  0  0  0  0  0  0  0  0  0  0  0
    1.8235  -20.6202   25.3656 C   0  0  0  0  0  0  0  0  0  0  0  0
    3.1855  -20.3289   25.1529 C   0  0  0  0  0  0  0  0  0  0  0  0
    3.8752  -20.7864   24.0955 N   0  0  0  0  0  0  0  0  0  0  0  0
    0.9140  -21.3749   24.6473 N   0  0  0  0  0  0  0  0  0  0  0  0
   -0.1898  -21.2822   25.3407 C   0  0  0  0  0  0  0  0  0  0  0  0
   -0.0690  -20.5046   26.4617 N   0  0  0  0  0  0  0  0  0  0  0  0
  1  2  2  0  0  0  0
  1  6  1  0  0  0  0
  2  3  1  0  0  0  0
  3  4  2  0  0  0  0
  4  5  1  0  0  0  0
  4 10  1  0  0  0  0
  5  6  2  0  0  0  0
  5  8  1  0  0  0  0
  6  7  1  0  0  0  0
  8  9  1  0  0  0  0
  9 10  2  0  0  0  0
M  END
>  <CHROM.1>
1.96058304,-20.28955640,25.80824286,0.12919660,0.26072204,0.99593680

>  <Name>
ligand

>  <RI>
0

>  <Rbt.Current_Directory>
/home/itssahil/PROJECTS/Mol_Feturizer/New_Systems/rnas/4LW0

>  <Rbt.Executable>
rbdock ($Id: //depot/dev/client3/rdock/2013.1/src/exe/rbdock.cxx#4 $)

>  <Rbt.Library>
libRbt.so (2013.1, Build901 2013/11/27)

>  <Rbt.Parameter_File>
/export/apps/rDock/src/rDock_2013.1_src/data/scripts/dock_solv.prm

>  <Rbt.Receptor>
prm/pocket_docking_3.prm

>  <SCORE>
-13.3904

>  <SCORE.INTER>
-13.3904

>  <SCORE.INTER.CONST>
1

>  <SCORE.INTER.POLAR>
0

>  <SCORE.INTER.ROT>
0

>  <SCORE.INTER.SOLV>
4.11501

>  <SCORE.INTER.VDW>
-13.8986

>  <SCORE.INTER.norm>
-1.33904

>  <SCORE.INTRA>
0

>  <SCORE.INTRA.DIHEDRAL>
0

>  <SCORE.INTRA.DIHEDRAL.0>
0

>  <SCORE.INTRA.POLAR>
0

>  <SCORE.INTRA.POLAR.0>
0

>  <SCORE.INTRA.REPUL>
0

>  <SCORE.INTRA.REPUL.0>
0

>  <SCORE.INTRA.SOLV>
0

>  <SCORE.INTRA.SOLV.lig_0>
-23.9151

>  <SCORE.INTRA.VDW>
0

>  <SCORE.INTRA.VDW.0>
0

>  <SCORE.INTRA.norm>
0

>  <SCORE.RESTR>
0

>  <SCORE.RESTR.CAVITY>
0

>  <SCORE.RESTR.norm>
0

>  <SCORE.SYSTEM>
0

>  <SCORE.SYSTEM.CONST>
0

>  <SCORE.SYSTEM.DIHEDRAL>
0

>  <SCORE.SYSTEM.SOLV>
0

>  <SCORE.SYSTEM.norm>
0

>  <SCORE.heavy>
10

>  <SCORE.norm>
-1.33904

>  <RMSD>
0.945

$$$$
ligand
 OpenBabel11021811503D
libRbt.so/2013.1/901 2013/11/27
 10 11  0  0  0  0  0  0  0  0999 V2000
    3.8065  -19.5365   26.0618 N   0  0  0  0  0  0  0  0  0  0  0  0
    3.1078  -19.0785   27.1024 C   0  0  0  0  0  0  0  0  0  0  0  0
    1.8243  -19.2934   27.4170 N   0  0  0  0  0  0  0  0  0  0  0  0
    1.2368  -20.0751   26.4910 C   0  0  0  0  0  0  0  0  0  0  0  0
    1.8244  -20.6212   25.3658 C   0  0  0  0  0  0  0  0  0  0  0  0
    3.1860  -20.3282   25.1521 C   0  0  0  0  0  0  0  0  0  0  0  0
    3.8758  -20.7859   24.0949 N   0  0  0  0  0  0  0  0  0  0  0  0
    0.9158  -21.3781   24.6489 N   0  0  0  0  0  0  0  0  0  0  0  0
   -0.1879  -21.2862   25.3427 C   0  0  0  0  0  0  0  0  0  0  0  0
   -0.0677  -20.5071   26.4628 N   0  0  0  0  0  0  0  0  0  0  0  0
  1  2  2  0  0  0  0
  1  6  1  0  0  0  0
  2  3  1  0  0  0  0
  3  4  2  0  0  0  0
  4  5  1  0  0  0  0
  4 10  1  0  0  0  0
  5  6  2  0  0  0  0
  5  8  1  0  0  0  0
  6  7  1  0  0  0  0
  8  9  1  0  0  0  0
  9 10  2  0  0  0  0
M  END
>  <CHROM.1>
1.96129105,-20.28987566,25.80803613,0.12959289,0.26222166,0.99465669

>  <Name>
ligand

>  <RI>
0

>  <Rbt.Current_Directory>
/home/itssahil/PROJECTS/Mol_Feturizer/New_Systems/rnas/4LW0

>  <Rbt.Executable>
rbdock ($Id: //depot/dev/client3/rdock/2013.1/src/exe/rbdock.cxx#4 $)

>  <Rbt.Library>
libRbt.so (2013.1, Build901 2013/11/27)

>  <Rbt.Parameter_File>
/export/apps/rDock/src/rDock_2013.1_src/data/scripts/dock_solv.prm

>  <Rbt.Receptor>
prm/pocket_docking_6.prm

>  <SCORE>
-13.3909

>  <SCORE.INTER>
-13.3909

>  <SCORE.INTER.CONST>
1

>  <SCORE.INTER.POLAR>
0

>  <SCORE.INTER.ROT>
0

>  <SCORE.INTER.SOLV>
4.11222

>  <SCORE.INTER.VDW>
-13.898

>  <SCORE.INTER.norm>
-1.33909

>  <SCORE.INTRA>
0

>  <SCORE.INTRA.DIHEDRAL>
0

>  <SCORE.INTRA.DIHEDRAL.0>
0

>  <SCORE.INTRA.POLAR>
0

>  <SCORE.INTRA.POLAR.0>
0

>  <SCORE.INTRA.REPUL>
0

>  <SCORE.INTRA.REPUL.0>
0

>  <SCORE.INTRA.SOLV>
0

>  <SCORE.INTRA.SOLV.lig_0>
-23.9151

>  <SCORE.INTRA.VDW>
0

>  <SCORE.INTRA.VDW.0>
0

>  <SCORE.INTRA.norm>
0

>  <SCORE.RESTR>
0

>  <SCORE.RESTR.CAVITY>
0

>  <SCORE.RESTR.norm>
0

>  <SCORE.SYSTEM>
0

>  <SCORE.SYSTEM.CONST>
0

>  <SCORE.SYSTEM.DIHEDRAL>
0

>  <SCORE.SYSTEM.SOLV>
0

>  <SCORE.SYSTEM.norm>
0

>  <SCORE.heavy>
10

>  <SCORE.norm>
-1.33909

>  <RMSD>
0.945

$$$$
ligand
 OpenBabel11021811503D
libRbt.so/2013.1/901 2013/11/27
 10 11  0  0  0  0  0  0  0  0999 V2000
    3.8071  -19.5390   26.0639 N   0  0  0  0  0  0  0  0  0  0  0  0
    3.1081  -19.0820   27.1049 C   0  0  0  0  0  0  0  0  0  0  0  0
    1.8241  -19.2958   27.4180 N   0  0  0  0  0  0  0  0  0  0  0  0
    1.2362  -20.0749   26.4900 C   0  0  0  0  0  0  0  0  0  0  0  0
    1.8241  -20.6196   25.3642 C   0  0  0  0  0  0  0  0  0  0  0  0
    3.1862  -20.3280   25.1522 C   0  0  0  0  0  0  0  0  0  0  0  0
    3.8762  -20.7846   24.0946 N   0  0  0  0  0  0  0  0  0  0  0  0
    0.9150  -21.3739   24.6451 N   0  0  0  0  0  0  0  0  0  0  0  0
   -0.1891  -21.2818   25.3383 C   0  0  0  0  0  0  0  0  0  0  0  0
   -0.0688  -20.5051   26.4599 N   0  0  0  0  0  0  0  0  0  0  0  0
  1  2  2  0  0  0  0
  1  6  1  0  0  0  0
  2  3  1  0  0  0  0
  3  4  2  0  0  0  0
  4  5  1  0  0  0  0
  4 10  1  0  0  0  0
  5  6  2  0  0  0  0
  5  8  1  0  0  0  0
  6  7  1  0  0  0  0
  8  9  1  0  0  0  0
  9 10  2  0  0  0  0
M  END
>  <CHROM.1>
1.96101804,-20.28933290,25.80721794,0.12952470,0.26065941,0.99662261

>  <Name>
ligand

>  <RI>
0

>  <Rbt.Current_Directory>
/home/itssahil/PROJECTS/Mol_Feturizer/New_Systems/rnas/4LW0

>  <Rbt.Executable>
rbdock ($Id: //depot/dev/client3/rdock/2013.1/src/exe/rbdock.cxx#4 $)

>  <Rbt.Library>
libRbt.so (2013.1, Build901 2013/11/27)

>  <Rbt.Parameter_File>
/export/apps/rDock/src/rDock_2013.1_src/data/scripts/dock_solv.prm

>  <Rbt.Receptor>
prm/pocket_docking_8.prm

>  <SCORE>
-13.3899

>  <SCORE.INTER>
-13.3899

>  <SCORE.INTER.CONST>
1

>  <SCORE.INTER.POLAR>
0

>  <SCORE.INTER.ROT>
0

>  <SCORE.INTER.SOLV>
4.11003

>  <SCORE.INTER.VDW>
-13.8966

>  <SCORE.INTER.norm>
-1.33899

>  <SCORE.INTRA>
0

>  <SCORE.INTRA.DIHEDRAL>
0

>  <SCORE.INTRA.DIHEDRAL.0>
0

>  <SCORE.INTRA.POLAR>
0

>  <SCORE.INTRA.POLAR.0>
0

>  <SCORE.INTRA.REPUL>
0

>  <SCORE.INTRA.REPUL.0>
0

>  <SCORE.INTRA.SOLV>
0

>  <SCORE.INTRA.SOLV.lig_0>
-23.9151

>  <SCORE.INTRA.VDW>
0

>  <SCORE.INTRA.VDW.0>
0

>  <SCORE.INTRA.norm>
0

>  <SCORE.RESTR>
0

>  <SCORE.RESTR.CAVITY>
0

>  <SCORE.RESTR.norm>
0

>  <SCORE.SYSTEM>
0

>  <SCORE.SYSTEM.CONST>
0

>  <SCORE.SYSTEM.DIHEDRAL>
0

>  <SCORE.SYSTEM.SOLV>
0

>  <SCORE.SYSTEM.norm>
0

>  <SCORE.heavy>
10

>  <SCORE.norm>
-1.33899

>  <RMSD>
0.946

$$$$
ligand
 OpenBabel11021811503D
libRbt.so/2013.1/901 2013/11/27
 10 11  0  0  0  0  0  0  0  0999 V2000
    3.8060  -19.5415   26.0661 N   0  0  0  0  0  0  0  0  0  0  0  0
    3.1066  -19.0846   27.1068 C   0  0  0  0  0  0  0  0  0  0  0  0
    1.8222  -19.2974   27.4188 N   0  0  0  0  0  0  0  0  0  0  0  0
    1.2343  -20.0752   26.4897 C   0  0  0  0  0  0  0  0  0  0  0  0
    1.8225  -20.6197   25.3640 C   0  0  0  0  0  0  0  0  0  0  0  0
    3.1851  -20.3293   25.1533 C   0  0  0  0  0  0  0  0  0  0  0  0
    3.8755  -20.7858   24.0960 N   0  0  0  0  0  0  0  0  0  0  0  0
    0.9132  -21.3725   24.6436 N   0  0  0  0  0  0  0  0  0  0  0  0
   -0.1913  -21.2799   25.3359 C   0  0  0  0  0  0  0  0  0  0  0  0
   -0.0711  -20.5041   26.4582 N   0  0  0  0  0  0  0  0  0  0  0  0
  1  2  2  0  0  0  0
  1  6  1  0  0  0  0
  2  3  1  0  0  0  0
  3  4  2  0  0  0  0
  4  5  1  0  0  0  0
  4 10  1  0  0  0  0
  5  6  2  0  0  0  0
  5  8  1  0  0  0  0
  6  7  1  0  0  0  0
  8  9  1  0  0  0  0
  9 10  2  0  0  0  0
M  END
>  <CHROM.1>
1.95942908,-20.28985497,25.80736711,0.12967583,0.25937430,0.99731634

>  <Name>
ligand

>  <RI>
0

>  <Rbt.Current_Directory>
/home/itssahil/PROJECTS/Mol_Feturizer/New_Systems/rnas/4LW0

>  <Rbt.Executable>
rbdock ($Id: //depot/dev/client3/rdock/2013.1/src/exe/rbdock.cxx#4 $)

>  <Rbt.Library>
libRbt.so (2013.1, Build901 2013/11/27)

>  <Rbt.Parameter_File>
/export/apps/rDock/src/rDock_2013.1_src/data/scripts/dock_solv.prm

>  <Rbt.Receptor>
prm/pocket_docking_3.prm

>  <SCORE>
-13.3877

>  <SCORE.INTER>
-13.3877

>  <SCORE.INTER.CONST>
1

>  <SCORE.INTER.POLAR>
0

>  <SCORE.INTER.ROT>
0

>  <SCORE.INTER.SOLV>
4.11303

>  <SCORE.INTER.VDW>
-13.8961

>  <SCORE.INTER.norm>
-1.33877

>  <SCORE.INTRA>
0

>  <SCORE.INTRA.DIHEDRAL>
0

>  <SCORE.INTRA.DIHEDRAL.0>
0

>  <SCORE.INTRA.POLAR>
0

>  <SCORE.INTRA.POLAR.0>
0

>  <SCORE.INTRA.REPUL>
0

>  <SCORE.INTRA.REPUL.0>
0

>  <SCORE.INTRA.SOLV>
0

>  <SCORE.INTRA.SOLV.lig_0>
-23.9151

>  <SCORE.INTRA.VDW>
0

>  <SCORE.INTRA.VDW.0>
0

>  <SCORE.INTRA.norm>
0

>  <SCORE.RESTR>
0

>  <SCORE.RESTR.CAVITY>
0

>  <SCORE.RESTR.norm>
0

>  <SCORE.SYSTEM>
0

>  <SCORE.SYSTEM.CONST>
0

>  <SCORE.SYSTEM.DIHEDRAL>
0

>  <SCORE.SYSTEM.SOLV>
0

>  <SCORE.SYSTEM.norm>
0

>  <SCORE.heavy>
10

>  <SCORE.norm>
-1.33877

>  <RMSD>
0.947

$$$$
ligand
 OpenBabel11021811503D
libRbt.so/2013.1/901 2013/11/27
 10 11  0  0  0  0  0  0  0  0999 V2000
    3.8052  -19.5392   26.0670 N   0  0  0  0  0  0  0  0  0  0  0  0
    3.1060  -19.0819   27.1077 C   0  0  0  0  0  0  0  0  0  0  0  0
    1.8218  -19.2950   27.4202 N   0  0  0  0  0  0  0  0  0  0  0  0
    1.2339  -20.0736   26.4918 C   0  0  0  0  0  0  0  0  0  0  0  0
    1.8219  -20.6186   25.3663 C   0  0  0  0  0  0  0  0  0  0  0  0
    3.1843  -20.3277   25.1549 C   0  0  0  0  0  0  0  0  0  0  0  0
    3.8745  -20.7847   24.0976 N   0  0  0  0  0  0  0  0  0  0  0  0
    0.9127  -21.3722   24.6467 N   0  0  0  0  0  0  0  0  0  0  0  0
   -0.1916  -21.2796   25.3393 C   0  0  0  0  0  0  0  0  0  0  0  0
   -0.0714  -20.5030   26.4611 N   0  0  0  0  0  0  0  0  0  0  0  0
  1  2  2  0  0  0  0
  1  6  1  0  0  0  0
  2  3  1  0  0  0  0
  3  4  2  0  0  0  0
  4  5  1  0  0  0  0
  4 10  1  0  0  0  0
  5  6  2  0  0  0  0
  5  8  1  0  0  0  0
  6  7  1  0  0  0  0
  8  9  1  0  0  0  0
  9 10  2  0  0  0  0
M  END
>  <CHROM.1>
1.95884670,-20.28840444,25.80935524,0.12958498,0.25990587,0.99671054

>  <Name>
ligand

>  <RI>
0

>  <Rbt.Current_Directory>
/home/itssahil/PROJECTS/Mol_Feturizer/New_Systems/rnas/4LW0

>  <Rbt.Executable>
rbdock ($Id: //depot/dev/client3/rdock/2013.1/src/exe/rbdock.cxx#4 $)

>  <Rbt.Library>
libRbt.so (2013.1, Build901 2013/11/27)

>  <Rbt.Parameter_File>
/export/apps/rDock/src/rDock_2013.1_src/data/scripts/dock_solv.prm

>  <Rbt.Receptor>
prm/pocket_docking_5.prm

>  <SCORE>
-13.3899

>  <SCORE.INTER>
-13.3899

>  <SCORE.INTER.CONST>
1

>  <SCORE.INTER.POLAR>
0

>  <SCORE.INTER.ROT>
0

>  <SCORE.INTER.SOLV>
4.11384

>  <SCORE.INTER.VDW>
-13.8979

>  <SCORE.INTER.norm>
-1.33899

>  <SCORE.INTRA>
0

>  <SCORE.INTRA.DIHEDRAL>
0

>  <SCORE.INTRA.DIHEDRAL.0>
0

>  <SCORE.INTRA.POLAR>
0

>  <SCORE.INTRA.POLAR.0>
0

>  <SCORE.INTRA.REPUL>
0

>  <SCORE.INTRA.REPUL.0>
0

>  <SCORE.INTRA.SOLV>
0

>  <SCORE.INTRA.SOLV.lig_0>
-23.9151

>  <SCORE.INTRA.VDW>
0

>  <SCORE.INTRA.VDW.0>
0

>  <SCORE.INTRA.norm>
0

>  <SCORE.RESTR>
0

>  <SCORE.RESTR.CAVITY>
0

>  <SCORE.RESTR.norm>
0

>  <SCORE.SYSTEM>
0

>  <SCORE.SYSTEM.CONST>
0

>  <SCORE.SYSTEM.DIHEDRAL>
0

>  <SCORE.SYSTEM.SOLV>
0

>  <SCORE.SYSTEM.norm>
0

>  <SCORE.heavy>
10

>  <SCORE.norm>
-1.33899

>  <RMSD>
0.947

$$$$
ligand
 OpenBabel11021811503D
libRbt.so/2013.1/901 2013/11/27
 10 11  0  0  0  0  0  0  0  0999 V2000
    3.8030  -19.5449   26.0692 N   0  0  0  0  0  0  0  0  0  0  0  0
    3.1040  -19.0854   27.1090 C   0  0  0  0  0  0  0  0  0  0  0  0
    1.8190  -19.2954   27.4205 N   0  0  0  0  0  0  0  0  0  0  0  0
    1.2301  -20.0731   26.4921 C   0  0  0  0  0  0  0  0  0  0  0  0
    1.8178  -20.6201   25.3673 C   0  0  0  0  0  0  0  0  0  0  0  0
    3.1810  -20.3325   25.1569 C   0  0  0  0  0  0  0  0  0  0  0  0
    3.8711  -20.7916   24.1005 N   0  0  0  0  0  0  0  0  0  0  0  0
    0.9074  -21.3719   24.6473 N   0  0  0  0  0  0  0  0  0  0  0  0
   -0.1973  -21.2763   25.3390 C   0  0  0  0  0  0  0  0  0  0  0  0
   -0.0762  -20.4994   26.4604 N   0  0  0  0  0  0  0  0  0  0  0  0
  1  2  2  0  0  0  0
  1  6  1  0  0  0  0
  2  3  1  0  0  0  0
  3  4  2  0  0  0  0
  4  5  1  0  0  0  0
  4 10  1  0  0  0  0
  5  6  2  0  0  0  0
  5  8  1  0  0  0  0
  6  7  1  0  0  0  0
  8  9  1  0  0  0  0
  9 10  2  0  0  0  0
M  END
>  <CHROM.1>
1.95511587,-20.28995460,25.81033709,0.12902233,0.25745839,0.99631931

>  <Name>
ligand

>  <RI>
0

>  <Rbt.Current_Directory>
/home/itssahil/PROJECTS/Mol_Feturizer/New_Systems/rnas/4LW0

>  <Rbt.Executable>
rbdock ($Id: //depot/dev/client3/rdock/2013.1/src/exe/rbdock.cxx#4 $)

>  <Rbt.Library>
libRbt.so (2013.1, Build901 2013/11/27)

>  <Rbt.Parameter_File>
/export/apps/rDock/src/rDock_2013.1_src/data/scripts/dock_solv.prm

>  <Rbt.Receptor>
prm/pocket_docking_7.prm

>  <SCORE>
-13.3854

>  <SCORE.INTER>
-13.3854

>  <SCORE.INTER.CONST>
1

>  <SCORE.INTER.POLAR>
0

>  <SCORE.INTER.ROT>
0

>  <SCORE.INTER.SOLV>
4.13417

>  <SCORE.INTER.VDW>
-13.9016

>  <SCORE.INTER.norm>
-1.33854

>  <SCORE.INTRA>
0

>  <SCORE.INTRA.DIHEDRAL>
0

>  <SCORE.INTRA.DIHEDRAL.0>
0

>  <SCORE.INTRA.POLAR>
0

>  <SCORE.INTRA.POLAR.0>
0

>  <SCORE.INTRA.REPUL>
0

>  <SCORE.INTRA.REPUL.0>
0

>  <SCORE.INTRA.SOLV>
0

>  <SCORE.INTRA.SOLV.lig_0>
-23.9151

>  <SCORE.INTRA.VDW>
0

>  <SCORE.INTRA.VDW.0>
0

>  <SCORE.INTRA.norm>
0

>  <SCORE.RESTR>
0

>  <SCORE.RESTR.CAVITY>
0

>  <SCORE.RESTR.norm>
0

>  <SCORE.SYSTEM>
0

>  <SCORE.SYSTEM.CONST>
0

>  <SCORE.SYSTEM.DIHEDRAL>
0

>  <SCORE.SYSTEM.SOLV>
0

>  <SCORE.SYSTEM.norm>
0

>  <SCORE.heavy>
10

>  <SCORE.norm>
-1.33854

>  <RMSD>
0.947

$$$$
ligand
 OpenBabel11021811503D
libRbt.so/2013.1/901 2013/11/27
 10 11  0  0  0  0  0  0  0  0999 V2000
    3.8038  -19.5348   26.0656 N   0  0  0  0  0  0  0  0  0  0  0  0
    3.1033  -19.0777   27.1055 C   0  0  0  0  0  0  0  0  0  0  0  0
    1.8196  -19.2936   27.4182 N   0  0  0  0  0  0  0  0  0  0  0  0
    1.2337  -20.0751   26.4910 C   0  0  0  0  0  0  0  0  0  0  0  0
    1.8233  -20.6204   25.3664 C   0  0  0  0  0  0  0  0  0  0  0  0
    3.1849  -20.3264   25.1546 C   0  0  0  0  0  0  0  0  0  0  0  0
    3.8764  -20.7831   24.0982 N   0  0  0  0  0  0  0  0  0  0  0  0
    0.9161  -21.3774   24.6478 N   0  0  0  0  0  0  0  0  0  0  0  0
   -0.1886  -21.2865   25.3402 C   0  0  0  0  0  0  0  0  0  0  0  0
   -0.0704  -20.5080   26.4608 N   0  0  0  0  0  0  0  0  0  0  0  0
  1  2  2  0  0  0  0
  1  6  1  0  0  0  0
  2  3  1  0  0  0  0
  3  4  2  0  0  0  0
  4  5  1  0  0  0  0
  4 10  1  0  0  0  0
  5  6  2  0  0  0  0
  5  8  1  0  0  0  0
  6  7  1  0  0  0  0
  8  9  1  0  0  0  0
  9 10  2  0  0  0  0
M  END
>  <CHROM.1>
1.95932609,-20.28916133,25.80894787,0.13112197,0.26199329,0.99477385

>  <Name>
ligand

>  <RI>
0

>  <Rbt.Current_Directory>
/home/itssahil/PROJECTS/Mol_Feturizer/New_Systems/rnas/4LW0

>  <Rbt.Executable>
rbdock ($Id: //depot/dev/client3/rdock/2013.1/src/exe/rbdock.cxx#4 $)

>  <Rbt.Library>
libRbt.so (2013.1, Build901 2013/11/27)

>  <Rbt.Parameter_File>
/export/apps/rDock/src/rDock_2013.1_src/data/scripts/dock_solv.prm

>  <Rbt.Receptor>
prm/pocket_docking_3.prm

>  <SCORE>
-13.3893

>  <SCORE.INTER>
-13.3893

>  <SCORE.INTER.CONST>
1

>  <SCORE.INTER.POLAR>
0

>  <SCORE.INTER.ROT>
0

>  <SCORE.INTER.SOLV>
4.10399

>  <SCORE.INTER.VDW>
-13.8942

>  <SCORE.INTER.norm>
-1.33893

>  <SCORE.INTRA>
0

>  <SCORE.INTRA.DIHEDRAL>
0

>  <SCORE.INTRA.DIHEDRAL.0>
0

>  <SCORE.INTRA.POLAR>
0

>  <SCORE.INTRA.POLAR.0>
0

>  <SCORE.INTRA.REPUL>
0

>  <SCORE.INTRA.REPUL.0>
0

>  <SCORE.INTRA.SOLV>
0

>  <SCORE.INTRA.SOLV.lig_0>
-23.9151

>  <SCORE.INTRA.VDW>
0

>  <SCORE.INTRA.VDW.0>
0

>  <SCORE.INTRA.norm>
0

>  <SCORE.RESTR>
0

>  <SCORE.RESTR.CAVITY>
0

>  <SCORE.RESTR.norm>
0

>  <SCORE.SYSTEM>
0

>  <SCORE.SYSTEM.CONST>
0

>  <SCORE.SYSTEM.DIHEDRAL>
0

>  <SCORE.SYSTEM.SOLV>
0

>  <SCORE.SYSTEM.norm>
0

>  <SCORE.heavy>
10

>  <SCORE.norm>
-1.33893

>  <RMSD>
0.948

$$$$
ligand
 OpenBabel11021811503D
libRbt.so/2013.1/901 2013/11/27
 10 11  0  0  0  0  0  0  0  0999 V2000
    3.8080  -19.5435   26.0655 N   0  0  0  0  0  0  0  0  0  0  0  0
    3.1082  -19.0822   27.1040 C   0  0  0  0  0  0  0  0  0  0  0  0
    1.8220  -19.2882   27.4128 N   0  0  0  0  0  0  0  0  0  0  0  0
    1.2325  -20.0638   26.4829 C   0  0  0  0  0  0  0  0  0  0  0  0
    1.8209  -20.6122   25.3592 C   0  0  0  0  0  0  0  0  0  0  0  0
    3.1854  -20.3288   25.1517 C   0  0  0  0  0  0  0  0  0  0  0  0
    3.8762  -20.7896   24.0965 N   0  0  0  0  0  0  0  0  0  0  0  0
    0.9096  -21.3610   24.6370 N   0  0  0  0  0  0  0  0  0  0  0  0
   -0.1962  -21.2622   25.3264 C   0  0  0  0  0  0  0  0  0  0  0  0
   -0.0750  -20.4861   26.4484 N   0  0  0  0  0  0  0  0  0  0  0  0
  1  2  2  0  0  0  0
  1  6  1  0  0  0  0
  2  3  1  0  0  0  0
  3  4  2  0  0  0  0
  4  5  1  0  0  0  0
  4 10  1  0  0  0  0
  5  6  2  0  0  0  0
  5  8  1  0  0  0  0
  6  7  1  0  0  0  0
  8  9  1  0  0  0  0
  9 10  2  0  0  0  0
M  END
>  <CHROM.1>
1.95829968,-20.28266006,25.80258045,0.12907223,0.25375112,0.99667275

>  <Name>
ligand

>  <RI>
0

>  <Rbt.Current_Directory>
/home/itssahil/PROJECTS/Mol_Feturizer/New_Systems/rnas/4LW0

>  <Rbt.Executable>
rbdock ($Id: //depot/dev/client3/rdock/2013.1/src/exe/rbdock.cxx#4 $)

>  <Rbt.Library>
libRbt.so (2013.1, Build901 2013/11/27)

>  <Rbt.Parameter_File>
/export/apps/rDock/src/rDock_2013.1_src/data/scripts/dock_solv.prm

>  <Rbt.Receptor>
prm/pocket_docking_6.prm

>  <SCORE>
-13.3459

>  <SCORE.INTER>
-13.3459

>  <SCORE.INTER.CONST>
1

>  <SCORE.INTER.POLAR>
0

>  <SCORE.INTER.ROT>
0

>  <SCORE.INTER.SOLV>
4.12143

>  <SCORE.INTER.VDW>
-13.8711

>  <SCORE.INTER.norm>
-1.33459

>  <SCORE.INTRA>
0

>  <SCORE.INTRA.DIHEDRAL>
0

>  <SCORE.INTRA.DIHEDRAL.0>
0

>  <SCORE.INTRA.POLAR>
0

>  <SCORE.INTRA.POLAR.0>
0

>  <SCORE.INTRA.REPUL>
0

>  <SCORE.INTRA.REPUL.0>
0

>  <SCORE.INTRA.SOLV>
0

>  <SCORE.INTRA.SOLV.lig_0>
-23.9151

>  <SCORE.INTRA.VDW>
0

>  <SCORE.INTRA.VDW.0>
0

>  <SCORE.INTRA.norm>
0

>  <SCORE.RESTR>
0

>  <SCORE.RESTR.CAVITY>
0

>  <SCORE.RESTR.norm>
0

>  <SCORE.SYSTEM>
0

>  <SCORE.SYSTEM.CONST>
0

>  <SCORE.SYSTEM.DIHEDRAL>
0

>  <SCORE.SYSTEM.SOLV>
0

>  <SCORE.SYSTEM.norm>
0

>  <SCORE.heavy>
10

>  <SCORE.norm>
-1.33459

>  <RMSD>
0.948

$$$$
ligand
 OpenBabel11021811503D
libRbt.so/2013.1/901 2013/11/27
 10 11  0  0  0  0  0  0  0  0999 V2000
    3.8040  -19.5344   26.0674 N   0  0  0  0  0  0  0  0  0  0  0  0
    3.1038  -19.0782   27.1079 C   0  0  0  0  0  0  0  0  0  0  0  0
    1.8198  -19.2936   27.4202 N   0  0  0  0  0  0  0  0  0  0  0  0
    1.2335  -20.0733   26.4919 C   0  0  0  0  0  0  0  0  0  0  0  0
    1.8227  -20.6175   25.3665 C   0  0  0  0  0  0  0  0  0  0  0  0
    3.1846  -20.3242   25.1554 C   0  0  0  0  0  0  0  0  0  0  0  0
    3.8759  -20.7801   24.0983 N   0  0  0  0  0  0  0  0  0  0  0  0
    0.9150  -21.3729   24.6469 N   0  0  0  0  0  0  0  0  0  0  0  0
   -0.1896  -21.2821   25.3393 C   0  0  0  0  0  0  0  0  0  0  0  0
   -0.0710  -20.5051   26.4609 N   0  0  0  0  0  0  0  0  0  0  0  0
  1  2  2  0  0  0  0
  1  6  1  0  0  0  0
  2  3  1  0  0  0  0
  3  4  2  0  0  0  0
  4  5  1  0  0  0  0
  4 10  1  0  0  0  0
  5  6  2  0  0  0  0
  5  8  1  0  0  0  0
  6  7  1  0  0  0  0
  8  9  1  0  0  0  0
  9 10  2  0  0  0  0
M  END
>  <CHROM.1>
1.95898630,-20.28699255,25.80959474,0.13076933,0.26129739,0.99622775

>  <Name>
ligand

>  <RI>
0

>  <Rbt.Current_Directory>
/home/itssahil/PROJECTS/Mol_Feturizer/New_Systems/rnas/4LW0

>  <Rbt.Executable>
rbdock ($Id: //depot/dev/client3/rdock/2013.1/src/exe/rbdock.cxx#4 $)

>  <Rbt.Library>
libRbt.so (2013.1, Build901 2013/11/27)

>  <Rbt.Parameter_File>
/export/apps/rDock/src/rDock_2013.1_src/data/scripts/dock_solv.prm

>  <Rbt.Receptor>
prm/pocket_docking_3.prm

>  <SCORE>
-13.3893

>  <SCORE.INTER>
-13.3893

>  <SCORE.INTER.CONST>
1

>  <SCORE.INTER.POLAR>
0

>  <SCORE.INTER.ROT>
0

>  <SCORE.INTER.SOLV>
4.1056

>  <SCORE.INTER.VDW>
-13.8947

>  <SCORE.INTER.norm>
-1.33893

>  <SCORE.INTRA>
0

>  <SCORE.INTRA.DIHEDRAL>
0

>  <SCORE.INTRA.DIHEDRAL.0>
0

>  <SCORE.INTRA.POLAR>
0

>  <SCORE.INTRA.POLAR.0>
0

>  <SCORE.INTRA.REPUL>
0

>  <SCORE.INTRA.REPUL.0>
0

>  <SCORE.INTRA.SOLV>
0

>  <SCORE.INTRA.SOLV.lig_0>
-23.9151

>  <SCORE.INTRA.VDW>
0

>  <SCORE.INTRA.VDW.0>
0

>  <SCORE.INTRA.norm>
0

>  <SCORE.RESTR>
0

>  <SCORE.RESTR.CAVITY>
0

>  <SCORE.RESTR.norm>
0

>  <SCORE.SYSTEM>
0

>  <SCORE.SYSTEM.CONST>
0

>  <SCORE.SYSTEM.DIHEDRAL>
0

>  <SCORE.SYSTEM.SOLV>
0

>  <SCORE.SYSTEM.norm>
0

>  <SCORE.heavy>
10

>  <SCORE.norm>
-1.33893

>  <RMSD>
0.949

$$$$
ligand
 OpenBabel11021811503D
libRbt.so/2013.1/901 2013/11/27
 10 11  0  0  0  0  0  0  0  0999 V2000
    3.8002  -19.5300   26.0644 N   0  0  0  0  0  0  0  0  0  0  0  0
    3.0985  -19.0694   27.1019 C   0  0  0  0  0  0  0  0  0  0  0  0
    1.8151  -19.2863   27.4151 N   0  0  0  0  0  0  0  0  0  0  0  0
    1.2311  -20.0732   26.4913 C   0  0  0  0  0  0  0  0  0  0  0  0
    1.8220  -20.6225   25.3694 C   0  0  0  0  0  0  0  0  0  0  0  0
    3.1832  -20.3269   25.1569 C   0  0  0  0  0  0  0  0  0  0  0  0
    3.8760  -20.7873   24.1028 N   0  0  0  0  0  0  0  0  0  0  0  0
    0.9165  -21.3846   24.6541 N   0  0  0  0  0  0  0  0  0  0  0  0
   -0.1885  -21.2926   25.3456 C   0  0  0  0  0  0  0  0  0  0  0  0
   -0.0723  -20.5086   26.4626 N   0  0  0  0  0  0  0  0  0  0  0  0
  1  2  2  0  0  0  0
  1  6  1  0  0  0  0
  2  3  1  0  0  0  0
  3  4  2  0  0  0  0
  4  5  1  0  0  0  0
  4 10  1  0  0  0  0
  5  6  2  0  0  0  0
  5  8  1  0  0  0  0
  6  7  1  0  0  0  0
  8  9  1  0  0  0  0
  9 10  2  0  0  0  0
M  END
>  <CHROM.1>
1.95730791,-20.28901395,25.81052064,0.13251325,0.26336446,0.98978002

>  <Name>
ligand

>  <RI>
0

>  <Rbt.Current_Directory>
/home/itssahil/PROJECTS/Mol_Feturizer/New_Systems/rnas/4LW0

>  <Rbt.Executable>
rbdock ($Id: //depot/dev/client3/rdock/2013.1/src/exe/rbdock.cxx#4 $)

>  <Rbt.Library>
libRbt.so (2013.1, Build901 2013/11/27)

>  <Rbt.Parameter_File>
/export/apps/rDock/src/rDock_2013.1_src/data/scripts/dock_solv.prm

>  <Rbt.Receptor>
prm/pocket_docking_3.prm

>  <SCORE>
-13.3883

>  <SCORE.INTER>
-13.3883

>  <SCORE.INTER.CONST>
1

>  <SCORE.INTER.POLAR>
0

>  <SCORE.INTER.ROT>
0

>  <SCORE.INTER.SOLV>
4.1056

>  <SCORE.INTER.VDW>
-13.8941

>  <SCORE.INTER.norm>
-1.33883

>  <SCORE.INTRA>
0

>  <SCORE.INTRA.DIHEDRAL>
0

>  <SCORE.INTRA.DIHEDRAL.0>
0

>  <SCORE.INTRA.POLAR>
0

>  <SCORE.INTRA.POLAR.0>
0

>  <SCORE.INTRA.REPUL>
0

>  <SCORE.INTRA.REPUL.0>
0

>  <SCORE.INTRA.SOLV>
0

>  <SCORE.INTRA.SOLV.lig_0>
-23.9151

>  <SCORE.INTRA.VDW>
0

>  <SCORE.INTRA.VDW.0>
0

>  <SCORE.INTRA.norm>
0

>  <SCORE.RESTR>
0

>  <SCORE.RESTR.CAVITY>
0

>  <SCORE.RESTR.norm>
0

>  <SCORE.SYSTEM>
0

>  <SCORE.SYSTEM.CONST>
0

>  <SCORE.SYSTEM.DIHEDRAL>
0

>  <SCORE.SYSTEM.SOLV>
0

>  <SCORE.SYSTEM.norm>
0

>  <SCORE.heavy>
10

>  <SCORE.norm>
-1.33883

>  <RMSD>
0.950

$$$$
ligand
 OpenBabel11021811503D
libRbt.so/2013.1/901 2013/11/27
 10 11  0  0  0  0  0  0  0  0999 V2000
    3.7680  -19.4811   26.0412 N   0  0  0  0  0  0  0  0  0  0  0  0
    3.0800  -19.0600   27.1044 C   0  0  0  0  0  0  0  0  0  0  0  0
    1.8060  -19.3040   27.4354 N   0  0  0  0  0  0  0  0  0  0  0  0
    1.2153  -20.0729   26.5008 C   0  0  0  0  0  0  0  0  0  0  0  0
    1.7922  -20.5820   25.3529 C   0  0  0  0  0  0  0  0  0  0  0  0
    3.1448  -20.2610   25.1233 C   0  0  0  0  0  0  0  0  0  0  0  0
    3.8236  -20.6816   24.0437 N   0  0  0  0  0  0  0  0  0  0  0  0
    0.8837  -21.3366   24.6334 N   0  0  0  0  0  0  0  0  0  0  0  0
   -0.2090  -21.2799   25.3479 C   0  0  0  0  0  0  0  0  0  0  0  0
   -0.0822  -20.5260   26.4843 N   0  0  0  0  0  0  0  0  0  0  0  0
  1  2  2  0  0  0  0
  1  6  1  0  0  0  0
  2  3  1  0  0  0  0
  3  4  2  0  0  0  0
  4  5  1  0  0  0  0
  4 10  1  0  0  0  0
  5  6  2  0  0  0  0
  5  8  1  0  0  0  0
  6  7  1  0  0  0  0
  8  9  1  0  0  0  0
  9 10  2  0  0  0  0
M  END
>  <CHROM.1>
1.93126743,-20.25908902,25.80065214,0.12371276,0.28544382,1.02039080

>  <Name>
ligand

>  <RI>
0

>  <Rbt.Current_Directory>
/home/itssahil/PROJECTS/Mol_Feturizer/New_Systems/rnas/4LW0

>  <Rbt.Executable>
rbdock ($Id: //depot/dev/client3/rdock/2013.1/src/exe/rbdock.cxx#4 $)

>  <Rbt.Library>
libRbt.so (2013.1, Build901 2013/11/27)

>  <Rbt.Parameter_File>
/export/apps/rDock/src/rDock_2013.1_src/data/scripts/dock_solv.prm

>  <Rbt.Receptor>
prm/pocket_docking_3.prm

>  <SCORE>
-13.3442

>  <SCORE.INTER>
-13.3442

>  <SCORE.INTER.CONST>
1

>  <SCORE.INTER.POLAR>
0

>  <SCORE.INTER.ROT>
0

>  <SCORE.INTER.SOLV>
4.34756

>  <SCORE.INTER.VDW>
-13.9453

>  <SCORE.INTER.norm>
-1.33442

>  <SCORE.INTRA>
0

>  <SCORE.INTRA.DIHEDRAL>
0

>  <SCORE.INTRA.DIHEDRAL.0>
0

>  <SCORE.INTRA.POLAR>
0

>  <SCORE.INTRA.POLAR.0>
0

>  <SCORE.INTRA.REPUL>
0

>  <SCORE.INTRA.REPUL.0>
0

>  <SCORE.INTRA.SOLV>
0

>  <SCORE.INTRA.SOLV.lig_0>
-23.9151

>  <SCORE.INTRA.VDW>
0

>  <SCORE.INTRA.VDW.0>
0

>  <SCORE.INTRA.norm>
0

>  <SCORE.RESTR>
0

>  <SCORE.RESTR.CAVITY>
0

>  <SCORE.RESTR.norm>
0

>  <SCORE.SYSTEM>
0

>  <SCORE.SYSTEM.CONST>
0

>  <SCORE.SYSTEM.DIHEDRAL>
0

>  <SCORE.SYSTEM.SOLV>
0

>  <SCORE.SYSTEM.norm>
0

>  <SCORE.heavy>
10

>  <SCORE.norm>
-1.33442

>  <RMSD>
0.950

$$$$
ligand
 OpenBabel11021811503D
libRbt.so/2013.1/901 2013/11/27
 10 11  0  0  0  0  0  0  0  0999 V2000
    3.7678  -19.4811   26.0394 N   0  0  0  0  0  0  0  0  0  0  0  0
    3.0790  -19.0571   27.1010 C   0  0  0  0  0  0  0  0  0  0  0  0
    1.8045  -19.2999   27.4314 N   0  0  0  0  0  0  0  0  0  0  0  0
    1.2144  -20.0708   26.4980 C   0  0  0  0  0  0  0  0  0  0  0  0
    1.7921  -20.5828   25.3519 C   0  0  0  0  0  0  0  0  0  0  0  0
    3.1451  -20.2629   25.1227 C   0  0  0  0  0  0  0  0  0  0  0  0
    3.8247  -20.6863   24.0448 N   0  0  0  0  0  0  0  0  0  0  0  0
    0.8840  -21.3387   24.6333 N   0  0  0  0  0  0  0  0  0  0  0  0
   -0.2093  -21.2799   25.3466 C   0  0  0  0  0  0  0  0  0  0  0  0
   -0.0833  -20.5234   26.4814 N   0  0  0  0  0  0  0  0  0  0  0  0
  1  2  2  0  0  0  0
  1  6  1  0  0  0  0
  2  3  1  0  0  0  0
  3  4  2  0  0  0  0
  4  5  1  0  0  0  0
  4 10  1  0  0  0  0
  5  6  2  0  0  0  0
  5  8  1  0  0  0  0
  6  7  1  0  0  0  0
  8  9  1  0  0  0  0
  9 10  2  0  0  0  0
M  END
>  <CHROM.1>
1.93091881,-20.25886935,25.79897801,0.12431334,0.28462598,1.01786491

>  <Name>
ligand

>  <RI>
0

>  <Rbt.Current_Directory>
/home/itssahil/PROJECTS/Mol_Feturizer/New_Systems/rnas/4LW0

>  <Rbt.Executable>
rbdock ($Id: //depot/dev/client3/rdock/2013.1/src/exe/rbdock.cxx#4 $)

>  <Rbt.Library>
libRbt.so (2013.1, Build901 2013/11/27)

>  <Rbt.Parameter_File>
/export/apps/rDock/src/rDock_2013.1_src/data/scripts/dock_solv.prm

>  <Rbt.Receptor>
prm/pocket_docking_4.prm

>  <SCORE>
-13.345

>  <SCORE.INTER>
-13.345

>  <SCORE.INTER.CONST>
1

>  <SCORE.INTER.POLAR>
0

>  <SCORE.INTER.ROT>
0

>  <SCORE.INTER.SOLV>
4.34577

>  <SCORE.INTER.VDW>
-13.9453

>  <SCORE.INTER.norm>
-1.3345

>  <SCORE.INTRA>
0

>  <SCORE.INTRA.DIHEDRAL>
0

>  <SCORE.INTRA.DIHEDRAL.0>
0

>  <SCORE.INTRA.POLAR>
0

>  <SCORE.INTRA.POLAR.0>
0

>  <SCORE.INTRA.REPUL>
0

>  <SCORE.INTRA.REPUL.0>
0

>  <SCORE.INTRA.SOLV>
0

>  <SCORE.INTRA.SOLV.lig_0>
-23.9151

>  <SCORE.INTRA.VDW>
0

>  <SCORE.INTRA.VDW.0>
0

>  <SCORE.INTRA.norm>
0

>  <SCORE.RESTR>
0

>  <SCORE.RESTR.CAVITY>
0

>  <SCORE.RESTR.norm>
0

>  <SCORE.SYSTEM>
0

>  <SCORE.SYSTEM.CONST>
0

>  <SCORE.SYSTEM.DIHEDRAL>
0

>  <SCORE.SYSTEM.SOLV>
0

>  <SCORE.SYSTEM.norm>
0

>  <SCORE.heavy>
10

>  <SCORE.norm>
-1.3345

>  <RMSD>
0.950

$$$$
ligand
 OpenBabel11021811503D
libRbt.so/2013.1/901 2013/11/27
 10 11  0  0  0  0  0  0  0  0999 V2000
    3.7997  -19.5220   26.0628 N   0  0  0  0  0  0  0  0  0  0  0  0
    3.0963  -19.0594   27.0983 C   0  0  0  0  0  0  0  0  0  0  0  0
    1.8126  -19.2762   27.4103 N   0  0  0  0  0  0  0  0  0  0  0  0
    1.2302  -20.0654   26.4875 C   0  0  0  0  0  0  0  0  0  0  0  0
    1.8230  -20.6170   25.3677 C   0  0  0  0  0  0  0  0  0  0  0  0
    3.1843  -20.3213   25.1563 C   0  0  0  0  0  0  0  0  0  0  0  0
    3.8788  -20.7837   24.1042 N   0  0  0  0  0  0  0  0  0  0  0  0
    0.9188  -21.3812   24.6528 N   0  0  0  0  0  0  0  0  0  0  0  0
   -0.1873  -21.2881   25.3426 C   0  0  0  0  0  0  0  0  0  0  0  0
   -0.0729  -20.5015   26.4580 N   0  0  0  0  0  0  0  0  0  0  0  0
  1  2  2  0  0  0  0
  1  6  1  0  0  0  0
  2  3  1  0  0  0  0
  3  4  2  0  0  0  0
  4  5  1  0  0  0  0
  4 10  1  0  0  0  0
  5  6  2  0  0  0  0
  5  8  1  0  0  0  0
  6  7  1  0  0  0  0
  8  9  1  0  0  0  0
  9 10  2  0  0  0  0
M  END
>  <CHROM.1>
1.95747264,-20.28245931,25.80818095,0.13397445,0.26299504,0.98711693

>  <Name>
ligand

>  <RI>
0

>  <Rbt.Current_Directory>
/home/itssahil/PROJECTS/Mol_Feturizer/New_Systems/rnas/4LW0

>  <Rbt.Executable>
rbdock ($Id: //depot/dev/client3/rdock/2013.1/src/exe/rbdock.cxx#4 $)

>  <Rbt.Library>
libRbt.so (2013.1, Build901 2013/11/27)

>  <Rbt.Parameter_File>
/export/apps/rDock/src/rDock_2013.1_src/data/scripts/dock_solv.prm

>  <Rbt.Receptor>
prm/pocket_docking_3.prm

>  <SCORE>
-13.3468

>  <SCORE.INTER>
-13.3468

>  <SCORE.INTER.CONST>
1

>  <SCORE.INTER.POLAR>
0

>  <SCORE.INTER.ROT>
0

>  <SCORE.INTER.SOLV>
4.09264

>  <SCORE.INTER.VDW>
-13.8621

>  <SCORE.INTER.norm>
-1.33468

>  <SCORE.INTRA>
0

>  <SCORE.INTRA.DIHEDRAL>
0

>  <SCORE.INTRA.DIHEDRAL.0>
0

>  <SCORE.INTRA.POLAR>
0

>  <SCORE.INTRA.POLAR.0>
0

>  <SCORE.INTRA.REPUL>
0

>  <SCORE.INTRA.REPUL.0>
0

>  <SCORE.INTRA.SOLV>
0

>  <SCORE.INTRA.SOLV.lig_0>
-23.9151

>  <SCORE.INTRA.VDW>
0

>  <SCORE.INTRA.VDW.0>
0

>  <SCORE.INTRA.norm>
0

>  <SCORE.RESTR>
0

>  <SCORE.RESTR.CAVITY>
0

>  <SCORE.RESTR.norm>
0

>  <SCORE.SYSTEM>
0

>  <SCORE.SYSTEM.CONST>
0

>  <SCORE.SYSTEM.DIHEDRAL>
0

>  <SCORE.SYSTEM.SOLV>
0

>  <SCORE.SYSTEM.norm>
0

>  <SCORE.heavy>
10

>  <SCORE.norm>
-1.33468

>  <RMSD>
0.953

$$$$
ligand
 OpenBabel11021811503D
libRbt.so/2013.1/901 2013/11/27
 10 11  0  0  0  0  0  0  0  0999 V2000
    3.8003  -19.5281   26.0768 N   0  0  0  0  0  0  0  0  0  0  0  0
    3.0972  -19.0796   27.1187 C   0  0  0  0  0  0  0  0  0  0  0  0
    1.8129  -19.2986   27.4268 N   0  0  0  0  0  0  0  0  0  0  0  0
    1.2296  -20.0731   26.4921 C   0  0  0  0  0  0  0  0  0  0  0  0
    1.8220  -20.6091   25.3645 C   0  0  0  0  0  0  0  0  0  0  0  0
    3.1839  -20.3127   25.1582 C   0  0  0  0  0  0  0  0  0  0  0  0
    3.8781  -20.7607   24.0997 N   0  0  0  0  0  0  0  0  0  0  0  0
    0.9168  -21.3609   24.6380 N   0  0  0  0  0  0  0  0  0  0  0  0
   -0.1895  -21.2761   25.3286 C   0  0  0  0  0  0  0  0  0  0  0  0
   -0.0742  -20.5063   26.4555 N   0  0  0  0  0  0  0  0  0  0  0  0
  1  2  2  0  0  0  0
  1  6  1  0  0  0  0
  2  3  1  0  0  0  0
  3  4  2  0  0  0  0
  4  5  1  0  0  0  0
  4 10  1  0  0  0  0
  5  6  2  0  0  0  0
  5  8  1  0  0  0  0
  6  7  1  0  0  0  0
  8  9  1  0  0  0  0
  9 10  2  0  0  0  0
M  END
>  <CHROM.1>
1.95684639,-20.28131008,25.81004691,0.13337746,0.26121146,1.00211030

>  <Name>
ligand

>  <RI>
0

>  <Rbt.Current_Directory>
/home/itssahil/PROJECTS/Mol_Feturizer/New_Systems/rnas/4LW0

>  <Rbt.Executable>
rbdock ($Id: //depot/dev/client3/rdock/2013.1/src/exe/rbdock.cxx#4 $)

>  <Rbt.Library>
libRbt.so (2013.1, Build901 2013/11/27)

>  <Rbt.Parameter_File>
/export/apps/rDock/src/rDock_2013.1_src/data/scripts/dock_solv.prm

>  <Rbt.Receptor>
prm/pocket_docking_8.prm

>  <SCORE>
-13.3787

>  <SCORE.INTER>
-13.3787

>  <SCORE.INTER.CONST>
1

>  <SCORE.INTER.POLAR>
0

>  <SCORE.INTER.ROT>
0

>  <SCORE.INTER.SOLV>
4.09058

>  <SCORE.INTER.VDW>
-13.8827

>  <SCORE.INTER.norm>
-1.33787

>  <SCORE.INTRA>
0

>  <SCORE.INTRA.DIHEDRAL>
0

>  <SCORE.INTRA.DIHEDRAL.0>
0

>  <SCORE.INTRA.POLAR>
0

>  <SCORE.INTRA.POLAR.0>
0

>  <SCORE.INTRA.REPUL>
0

>  <SCORE.INTRA.REPUL.0>
0

>  <SCORE.INTRA.SOLV>
0

>  <SCORE.INTRA.SOLV.lig_0>
-23.9151

>  <SCORE.INTRA.VDW>
0

>  <SCORE.INTRA.VDW.0>
0

>  <SCORE.INTRA.norm>
0

>  <SCORE.RESTR>
0

>  <SCORE.RESTR.CAVITY>
0

>  <SCORE.RESTR.norm>
0

>  <SCORE.SYSTEM>
0

>  <SCORE.SYSTEM.CONST>
0

>  <SCORE.SYSTEM.DIHEDRAL>
0

>  <SCORE.SYSTEM.SOLV>
0

>  <SCORE.SYSTEM.norm>
0

>  <SCORE.heavy>
10

>  <SCORE.norm>
-1.33787

>  <RMSD>
0.957

$$$$
ligand
 OpenBabel11021811503D
libRbt.so/2013.1/901 2013/11/27
 10 11  0  0  0  0  0  0  0  0999 V2000
    3.8005  -19.5144   26.0759 N   0  0  0  0  0  0  0  0  0  0  0  0
    3.0971  -19.0750   27.1214 C   0  0  0  0  0  0  0  0  0  0  0  0
    1.8149  -19.3033   27.4314 N   0  0  0  0  0  0  0  0  0  0  0  0
    1.2341  -20.0769   26.4945 C   0  0  0  0  0  0  0  0  0  0  0  0
    1.8271  -20.6041   25.3631 C   0  0  0  0  0  0  0  0  0  0  0  0
    3.1868  -20.2984   25.1551 C   0  0  0  0  0  0  0  0  0  0  0  0
    3.8812  -20.7374   24.0929 N   0  0  0  0  0  0  0  0  0  0  0  0
    0.9248  -21.3580   24.6351 N   0  0  0  0  0  0  0  0  0  0  0  0
   -0.1803  -21.2831   25.3286 C   0  0  0  0  0  0  0  0  0  0  0  0
   -0.0672  -20.5179   26.4589 N   0  0  0  0  0  0  0  0  0  0  0  0
  1  2  2  0  0  0  0
  1  6  1  0  0  0  0
  2  3  1  0  0  0  0
  3  4  2  0  0  0  0
  4  5  1  0  0  0  0
  4 10  1  0  0  0  0
  5  6  2  0  0  0  0
  5  8  1  0  0  0  0
  6  7  1  0  0  0  0
  8  9  1  0  0  0  0
  9 10  2  0  0  0  0
M  END
>  <CHROM.1>
1.96102010,-20.27754934,25.80978774,0.13476063,0.26757048,1.00638230

>  <Name>
ligand

>  <RI>
0

>  <Rbt.Current_Directory>
/home/itssahil/PROJECTS/Mol_Feturizer/New_Systems/rnas/4LW0

>  <Rbt.Executable>
rbdock ($Id: //depot/dev/client3/rdock/2013.1/src/exe/rbdock.cxx#4 $)

>  <Rbt.Library>
libRbt.so (2013.1, Build901 2013/11/27)

>  <Rbt.Parameter_File>
/export/apps/rDock/src/rDock_2013.1_src/data/scripts/dock_solv.prm

>  <Rbt.Receptor>
prm/pocket_docking_8.prm

>  <SCORE>
-13.371

>  <SCORE.INTER>
-13.371

>  <SCORE.INTER.CONST>
1

>  <SCORE.INTER.POLAR>
0

>  <SCORE.INTER.ROT>
0

>  <SCORE.INTER.SOLV>
4.07674

>  <SCORE.INTER.VDW>
-13.8729

>  <SCORE.INTER.norm>
-1.3371

>  <SCORE.INTRA>
0

>  <SCORE.INTRA.DIHEDRAL>
0

>  <SCORE.INTRA.DIHEDRAL.0>
0

>  <SCORE.INTRA.POLAR>
0

>  <SCORE.INTRA.POLAR.0>
0

>  <SCORE.INTRA.REPUL>
0

>  <SCORE.INTRA.REPUL.0>
0

>  <SCORE.INTRA.SOLV>
0

>  <SCORE.INTRA.SOLV.lig_0>
-23.9151

>  <SCORE.INTRA.VDW>
0

>  <SCORE.INTRA.VDW.0>
0

>  <SCORE.INTRA.norm>
0

>  <SCORE.RESTR>
0

>  <SCORE.RESTR.CAVITY>
0

>  <SCORE.RESTR.norm>
0

>  <SCORE.SYSTEM>
0

>  <SCORE.SYSTEM.CONST>
0

>  <SCORE.SYSTEM.DIHEDRAL>
0

>  <SCORE.SYSTEM.SOLV>
0

>  <SCORE.SYSTEM.norm>
0

>  <SCORE.heavy>
10

>  <SCORE.norm>
-1.3371

>  <RMSD>
0.958

$$$$
ligand
 OpenBabel11021811503D
libRbt.so/2013.1/901 2013/11/27
 10 11  0  0  0  0  0  0  0  0999 V2000
    3.7851  -19.5306   26.0861 N   0  0  0  0  0  0  0  0  0  0  0  0
    3.0810  -19.0763   27.1248 C   0  0  0  0  0  0  0  0  0  0  0  0
    1.7975  -19.2968   27.4350 N   0  0  0  0  0  0  0  0  0  0  0  0
    1.2161  -20.0801   26.5064 C   0  0  0  0  0  0  0  0  0  0  0  0
    1.8098  -20.6229   25.3827 C   0  0  0  0  0  0  0  0  0  0  0  0
    3.1708  -20.3240   25.1737 C   0  0  0  0  0  0  0  0  0  0  0  0
    3.8659  -20.7780   24.1184 N   0  0  0  0  0  0  0  0  0  0  0  0
    0.9066  -21.3829   24.6622 N   0  0  0  0  0  0  0  0  0  0  0  0
   -0.1997  -21.2961   25.3525 C   0  0  0  0  0  0  0  0  0  0  0  0
   -0.0864  -20.5175   26.4736 N   0  0  0  0  0  0  0  0  0  0  0  0
  1  2  2  0  0  0  0
  1  6  1  0  0  0  0
  2  3  1  0  0  0  0
  3  4  2  0  0  0  0
  4  5  1  0  0  0  0
  4 10  1  0  0  0  0
  5  6  2  0  0  0  0
  5  8  1  0  0  0  0
  6  7  1  0  0  0  0
  8  9  1  0  0  0  0
  9 10  2  0  0  0  0
M  END
>  <CHROM.1>
1.94379195,-20.29131889,25.82566415,0.13476453,0.26390813,0.99415641

>  <Name>
ligand

>  <RI>
0

>  <Rbt.Current_Directory>
/home/itssahil/PROJECTS/Mol_Feturizer/New_Systems/rnas/4LW0

>  <Rbt.Executable>
rbdock ($Id: //depot/dev/client3/rdock/2013.1/src/exe/rbdock.cxx#4 $)

>  <Rbt.Library>
libRbt.so (2013.1, Build901 2013/11/27)

>  <Rbt.Parameter_File>
/export/apps/rDock/src/rDock_2013.1_src/data/scripts/dock_solv.prm

>  <Rbt.Receptor>
prm/pocket_docking_4.prm

>  <SCORE>
-13.3419

>  <SCORE.INTER>
-13.3419

>  <SCORE.INTER.CONST>
1

>  <SCORE.INTER.POLAR>
0

>  <SCORE.INTER.ROT>
0

>  <SCORE.INTER.SOLV>
4.11267

>  <SCORE.INTER.VDW>
-13.8655

>  <SCORE.INTER.norm>
-1.33419

>  <SCORE.INTRA>
0

>  <SCORE.INTRA.DIHEDRAL>
0

>  <SCORE.INTRA.DIHEDRAL.0>
0

>  <SCORE.INTRA.POLAR>
0

>  <SCORE.INTRA.POLAR.0>
0

>  <SCORE.INTRA.REPUL>
0

>  <SCORE.INTRA.REPUL.0>
0

>  <SCORE.INTRA.SOLV>
0

>  <SCORE.INTRA.SOLV.lig_0>
-23.9151

>  <SCORE.INTRA.VDW>
0

>  <SCORE.INTRA.VDW.0>
0

>  <SCORE.INTRA.norm>
0

>  <SCORE.RESTR>
0

>  <SCORE.RESTR.CAVITY>
0

>  <SCORE.RESTR.norm>
0

>  <SCORE.SYSTEM>
0

>  <SCORE.SYSTEM.CONST>
0

>  <SCORE.SYSTEM.DIHEDRAL>
0

>  <SCORE.SYSTEM.SOLV>
0

>  <SCORE.SYSTEM.norm>
0

>  <SCORE.heavy>
10

>  <SCORE.norm>
-1.33419

>  <RMSD>
0.959

$$$$
ligand
 OpenBabel11021811503D
libRbt.so/2013.1/901 2013/11/27
 10 11  0  0  0  0  0  0  0  0999 V2000
    3.7898  -19.5297   26.0794 N   0  0  0  0  0  0  0  0  0  0  0  0
    3.0850  -19.0695   27.1150 C   0  0  0  0  0  0  0  0  0  0  0  0
    1.7999  -19.2845   27.4229 N   0  0  0  0  0  0  0  0  0  0  0  0
    1.2180  -20.0688   26.4957 C   0  0  0  0  0  0  0  0  0  0  0  0
    1.8123  -20.6175   25.3752 C   0  0  0  0  0  0  0  0  0  0  0  0
    3.1748  -20.3241   25.1683 C   0  0  0  0  0  0  0  0  0  0  0  0
    3.8708  -20.7841   24.1161 N   0  0  0  0  0  0  0  0  0  0  0  0
    0.9081  -21.3767   24.6552 N   0  0  0  0  0  0  0  0  0  0  0  0
   -0.1994  -21.2838   25.3426 C   0  0  0  0  0  0  0  0  0  0  0  0
   -0.0860  -20.5018   26.4613 N   0  0  0  0  0  0  0  0  0  0  0  0
  1  2  2  0  0  0  0
  1  6  1  0  0  0  0
  2  3  1  0  0  0  0
  3  4  2  0  0  0  0
  4  5  1  0  0  0  0
  4 10  1  0  0  0  0
  5  6  2  0  0  0  0
  5  8  1  0  0  0  0
  6  7  1  0  0  0  0
  8  9  1  0  0  0  0
  9 10  2  0  0  0  0
M  END
>  <CHROM.1>
1.94648364,-20.28490645,25.81731870,0.13478817,0.25971365,0.99076947

>  <Name>
ligand

>  <RI>
0

>  <Rbt.Current_Directory>
/home/itssahil/PROJECTS/Mol_Feturizer/New_Systems/rnas/4LW0

>  <Rbt.Executable>
rbdock ($Id: //depot/dev/client3/rdock/2013.1/src/exe/rbdock.cxx#4 $)

>  <Rbt.Library>
libRbt.so (2013.1, Build901 2013/11/27)

>  <Rbt.Parameter_File>
/export/apps/rDock/src/rDock_2013.1_src/data/scripts/dock_solv.prm

>  <Rbt.Receptor>
prm/pocket_docking_7.prm

>  <SCORE>
-13.3811

>  <SCORE.INTER>
-13.3811

>  <SCORE.INTER.CONST>
1

>  <SCORE.INTER.POLAR>
0

>  <SCORE.INTER.ROT>
0

>  <SCORE.INTER.SOLV>
4.11052

>  <SCORE.INTER.VDW>
-13.8909

>  <SCORE.INTER.norm>
-1.33811

>  <SCORE.INTRA>
0

>  <SCORE.INTRA.DIHEDRAL>
0

>  <SCORE.INTRA.DIHEDRAL.0>
0

>  <SCORE.INTRA.POLAR>
0

>  <SCORE.INTRA.POLAR.0>
0

>  <SCORE.INTRA.REPUL>
0

>  <SCORE.INTRA.REPUL.0>
0

>  <SCORE.INTRA.SOLV>
0

>  <SCORE.INTRA.SOLV.lig_0>
-23.9151

>  <SCORE.INTRA.VDW>
0

>  <SCORE.INTRA.VDW.0>
0

>  <SCORE.INTRA.norm>
0

>  <SCORE.RESTR>
0

>  <SCORE.RESTR.CAVITY>
0

>  <SCORE.RESTR.norm>
0

>  <SCORE.SYSTEM>
0

>  <SCORE.SYSTEM.CONST>
0

>  <SCORE.SYSTEM.DIHEDRAL>
0

>  <SCORE.SYSTEM.SOLV>
0

>  <SCORE.SYSTEM.norm>
0

>  <SCORE.heavy>
10

>  <SCORE.norm>
-1.33811

>  <RMSD>
0.959

$$$$
ligand
 OpenBabel11021811503D
libRbt.so/2013.1/901 2013/11/27
 10 11  0  0  0  0  0  0  0  0999 V2000
    3.7895  -19.5291   26.0863 N   0  0  0  0  0  0  0  0  0  0  0  0
    3.0841  -19.0748   27.1241 C   0  0  0  0  0  0  0  0  0  0  0  0
    1.7988  -19.2913   27.4301 N   0  0  0  0  0  0  0  0  0  0  0  0
    1.2173  -20.0701   26.4978 C   0  0  0  0  0  0  0  0  0  0  0  0
    1.8121  -20.6122   25.3745 C   0  0  0  0  0  0  0  0  0  0  0  0
    3.1748  -20.3179   25.1701 C   0  0  0  0  0  0  0  0  0  0  0  0
    3.8713  -20.7718   24.1157 N   0  0  0  0  0  0  0  0  0  0  0  0
    0.9082  -21.3670   24.6494 N   0  0  0  0  0  0  0  0  0  0  0  0
   -0.1997  -21.2779   25.3368 C   0  0  0  0  0  0  0  0  0  0  0  0
   -0.0868  -20.5025   26.4601 N   0  0  0  0  0  0  0  0  0  0  0  0
  1  2  2  0  0  0  0
  1  6  1  0  0  0  0
  2  3  1  0  0  0  0
  3  4  2  0  0  0  0
  4  5  1  0  0  0  0
  4 10  1  0  0  0  0
  5  6  2  0  0  0  0
  5  8  1  0  0  0  0
  6  7  1  0  0  0  0
  8  9  1  0  0  0  0
  9 10  2  0  0  0  0
M  END
>  <CHROM.1>
1.94611918,-20.28231524,25.81865181,0.13517361,0.25920522,0.99657732

>  <Name>
ligand

>  <RI>
0

>  <Rbt.Current_Directory>
/home/itssahil/PROJECTS/Mol_Feturizer/New_Systems/rnas/4LW0

>  <Rbt.Executable>
rbdock ($Id: //depot/dev/client3/rdock/2013.1/src/exe/rbdock.cxx#4 $)

>  <Rbt.Library>
libRbt.so (2013.1, Build901 2013/11/27)

>  <Rbt.Parameter_File>
/export/apps/rDock/src/rDock_2013.1_src/data/scripts/dock_solv.prm

>  <Rbt.Receptor>
prm/pocket_docking_4.prm

>  <SCORE>
-13.3786

>  <SCORE.INTER>
-13.3786

>  <SCORE.INTER.CONST>
1

>  <SCORE.INTER.POLAR>
0

>  <SCORE.INTER.ROT>
0

>  <SCORE.INTER.SOLV>
4.10035

>  <SCORE.INTER.VDW>
-13.8858

>  <SCORE.INTER.norm>
-1.33786

>  <SCORE.INTRA>
0

>  <SCORE.INTRA.DIHEDRAL>
0

>  <SCORE.INTRA.DIHEDRAL.0>
0

>  <SCORE.INTRA.POLAR>
0

>  <SCORE.INTRA.POLAR.0>
0

>  <SCORE.INTRA.REPUL>
0

>  <SCORE.INTRA.REPUL.0>
0

>  <SCORE.INTRA.SOLV>
0

>  <SCORE.INTRA.SOLV.lig_0>
-23.9151

>  <SCORE.INTRA.VDW>
0

>  <SCORE.INTRA.VDW.0>
0

>  <SCORE.INTRA.norm>
0

>  <SCORE.RESTR>
0

>  <SCORE.RESTR.CAVITY>
0

>  <SCORE.RESTR.norm>
0

>  <SCORE.SYSTEM>
0

>  <SCORE.SYSTEM.CONST>
0

>  <SCORE.SYSTEM.DIHEDRAL>
0

>  <SCORE.SYSTEM.SOLV>
0

>  <SCORE.SYSTEM.norm>
0

>  <SCORE.heavy>
10

>  <SCORE.norm>
-1.33786

>  <RMSD>
0.962

$$$$
ligand
 OpenBabel11021811503D
libRbt.so/2013.1/901 2013/11/27
 10 11  0  0  0  0  0  0  0  0999 V2000
    3.7847  -19.5269   26.0808 N   0  0  0  0  0  0  0  0  0  0  0  0
    3.0782  -19.0660   27.1149 C   0  0  0  0  0  0  0  0  0  0  0  0
    1.7933  -19.2825   27.4221 N   0  0  0  0  0  0  0  0  0  0  0  0
    1.2134  -20.0694   26.4956 C   0  0  0  0  0  0  0  0  0  0  0  0
    1.8096  -20.6190   25.3766 C   0  0  0  0  0  0  0  0  0  0  0  0
    3.1719  -20.3238   25.1705 C   0  0  0  0  0  0  0  0  0  0  0  0
    3.8695  -20.7845   24.1197 N   0  0  0  0  0  0  0  0  0  0  0  0
    0.9073  -21.3810   24.6571 N   0  0  0  0  0  0  0  0  0  0  0  0
   -0.2010  -21.2887   25.3434 C   0  0  0  0  0  0  0  0  0  0  0  0
   -0.0898  -20.5045   26.4608 N   0  0  0  0  0  0  0  0  0  0  0  0
  1  2  2  0  0  0  0
  1  6  1  0  0  0  0
  2  3  1  0  0  0  0
  3  4  2  0  0  0  0
  4  5  1  0  0  0  0
  4 10  1  0  0  0  0
  5  6  2  0  0  0  0
  5  8  1  0  0  0  0
  6  7  1  0  0  0  0
  8  9  1  0  0  0  0
  9 10  2  0  0  0  0
M  END
>  <CHROM.1>
1.94287401,-20.28549890,25.81830917,0.13648311,0.26056880,0.98861128

>  <Name>
ligand

>  <RI>
0

>  <Rbt.Current_Directory>
/home/itssahil/PROJECTS/Mol_Feturizer/New_Systems/rnas/4LW0

>  <Rbt.Executable>
rbdock ($Id: //depot/dev/client3/rdock/2013.1/src/exe/rbdock.cxx#4 $)

>  <Rbt.Library>
libRbt.so (2013.1, Build901 2013/11/27)

>  <Rbt.Parameter_File>
/export/apps/rDock/src/rDock_2013.1_src/data/scripts/dock_solv.prm

>  <Rbt.Receptor>
prm/pocket_docking_4.prm

>  <SCORE>
-13.3748

>  <SCORE.INTER>
-13.3748

>  <SCORE.INTER.CONST>
1

>  <SCORE.INTER.POLAR>
0

>  <SCORE.INTER.ROT>
0

>  <SCORE.INTER.SOLV>
4.1127

>  <SCORE.INTER.VDW>
-13.8875

>  <SCORE.INTER.norm>
-1.33748

>  <SCORE.INTRA>
0

>  <SCORE.INTRA.DIHEDRAL>
0

>  <SCORE.INTRA.DIHEDRAL.0>
0

>  <SCORE.INTRA.POLAR>
0

>  <SCORE.INTRA.POLAR.0>
0

>  <SCORE.INTRA.REPUL>
0

>  <SCORE.INTRA.REPUL.0>
0

>  <SCORE.INTRA.SOLV>
0

>  <SCORE.INTRA.SOLV.lig_0>
-23.9151

>  <SCORE.INTRA.VDW>
0

>  <SCORE.INTRA.VDW.0>
0

>  <SCORE.INTRA.norm>
0

>  <SCORE.RESTR>
0

>  <SCORE.RESTR.CAVITY>
0

>  <SCORE.RESTR.norm>
0

>  <SCORE.SYSTEM>
0

>  <SCORE.SYSTEM.CONST>
0

>  <SCORE.SYSTEM.DIHEDRAL>
0

>  <SCORE.SYSTEM.SOLV>
0

>  <SCORE.SYSTEM.norm>
0

>  <SCORE.heavy>
10

>  <SCORE.norm>
-1.33748

>  <RMSD>
0.962

$$$$
ligand
 OpenBabel11021811503D
libRbt.so/2013.1/901 2013/11/27
 10 11  0  0  0  0  0  0  0  0999 V2000
    3.7953  -19.5096   26.0833 N   0  0  0  0  0  0  0  0  0  0  0  0
    3.0884  -19.0693   27.1261 C   0  0  0  0  0  0  0  0  0  0  0  0
    1.8058  -19.2992   27.4333 N   0  0  0  0  0  0  0  0  0  0  0  0
    1.2288  -20.0759   26.4965 C   0  0  0  0  0  0  0  0  0  0  0  0
    1.8257  -20.6045   25.3678 C   0  0  0  0  0  0  0  0  0  0  0  0
    3.1854  -20.2968   25.1626 C   0  0  0  0  0  0  0  0  0  0  0  0
    3.8833  -20.7368   24.1032 N   0  0  0  0  0  0  0  0  0  0  0  0
    0.9267  -21.3616   24.6391 N   0  0  0  0  0  0  0  0  0  0  0  0
   -0.1804  -21.2872   25.3296 C   0  0  0  0  0  0  0  0  0  0  0  0
   -0.0715  -20.5193   26.4585 N   0  0  0  0  0  0  0  0  0  0  0  0
  1  2  2  0  0  0  0
  1  6  1  0  0  0  0
  2  3  1  0  0  0  0
  3  4  2  0  0  0  0
  4  5  1  0  0  0  0
  4 10  1  0  0  0  0
  5  6  2  0  0  0  0
  5  8  1  0  0  0  0
  6  7  1  0  0  0  0
  8  9  1  0  0  0  0
  9 10  2  0  0  0  0
M  END
>  <CHROM.1>
1.95788647,-20.27672656,25.81412388,0.13800890,0.26772299,1.00335293

>  <Name>
ligand

>  <RI>
0

>  <Rbt.Current_Directory>
/home/itssahil/PROJECTS/Mol_Feturizer/New_Systems/rnas/4LW0

>  <Rbt.Executable>
rbdock ($Id: //depot/dev/client3/rdock/2013.1/src/exe/rbdock.cxx#4 $)

>  <Rbt.Library>
libRbt.so (2013.1, Build901 2013/11/27)

>  <Rbt.Parameter_File>
/export/apps/rDock/src/rDock_2013.1_src/data/scripts/dock_solv.prm

>  <Rbt.Receptor>
prm/pocket_docking_8.prm

>  <SCORE>
-13.3713

>  <SCORE.INTER>
-13.3713

>  <SCORE.INTER.CONST>
1

>  <SCORE.INTER.POLAR>
0

>  <SCORE.INTER.ROT>
0

>  <SCORE.INTER.SOLV>
4.05551

>  <SCORE.INTER.VDW>
-13.8661

>  <SCORE.INTER.norm>
-1.33713

>  <SCORE.INTRA>
0

>  <SCORE.INTRA.DIHEDRAL>
0

>  <SCORE.INTRA.DIHEDRAL.0>
0

>  <SCORE.INTRA.POLAR>
0

>  <SCORE.INTRA.POLAR.0>
0

>  <SCORE.INTRA.REPUL>
0

>  <SCORE.INTRA.REPUL.0>
0

>  <SCORE.INTRA.SOLV>
0

>  <SCORE.INTRA.SOLV.lig_0>
-23.9151

>  <SCORE.INTRA.VDW>
0

>  <SCORE.INTRA.VDW.0>
0

>  <SCORE.INTRA.norm>
0

>  <SCORE.RESTR>
0

>  <SCORE.RESTR.CAVITY>
0

>  <SCORE.RESTR.norm>
0

>  <SCORE.SYSTEM>
0

>  <SCORE.SYSTEM.CONST>
0

>  <SCORE.SYSTEM.DIHEDRAL>
0

>  <SCORE.SYSTEM.SOLV>
0

>  <SCORE.SYSTEM.norm>
0

>  <SCORE.heavy>
10

>  <SCORE.norm>
-1.33713

>  <RMSD>
0.965

$$$$
ligand
 OpenBabel11021811503D
libRbt.so/2013.1/901 2013/11/27
 10 11  0  0  0  0  0  0  0  0999 V2000
    3.7942  -19.4701   26.0892 N   0  0  0  0  0  0  0  0  0  0  0  0
    3.0891  -19.0400   27.1375 C   0  0  0  0  0  0  0  0  0  0  0  0
    1.8106  -19.2835   27.4513 N   0  0  0  0  0  0  0  0  0  0  0  0
    1.2359  -20.0628   26.5154 C   0  0  0  0  0  0  0  0  0  0  0  0
    1.8314  -20.5819   25.3815 C   0  0  0  0  0  0  0  0  0  0  0  0
    3.1867  -20.2603   25.1695 C   0  0  0  0  0  0  0  0  0  0  0  0
    3.8828  -20.6900   24.1047 N   0  0  0  0  0  0  0  0  0  0  0  0
    0.9356  -21.3454   24.6556 N   0  0  0  0  0  0  0  0  0  0  0  0
   -0.1681  -21.2841   25.3526 C   0  0  0  0  0  0  0  0  0  0  0  0
   -0.0603  -20.5188   26.4834 N   0  0  0  0  0  0  0  0  0  0  0  0
  1  2  2  0  0  0  0
  1  6  1  0  0  0  0
  2  3  1  0  0  0  0
  3  4  2  0  0  0  0
  4  5  1  0  0  0  0
  4 10  1  0  0  0  0
  5  6  2  0  0  0  0
  5  8  1  0  0  0  0
  6  7  1  0  0  0  0
  8  9  1  0  0  0  0
  9 10  2  0  0  0  0
M  END
>  <CHROM.1>
1.96290303,-20.25428042,25.82812484,0.13840702,0.27907115,1.00646494

>  <Name>
ligand

>  <RI>
0

>  <Rbt.Current_Directory>
/home/itssahil/PROJECTS/Mol_Feturizer/New_Systems/rnas/4LW0

>  <Rbt.Executable>
rbdock ($Id: //depot/dev/client3/rdock/2013.1/src/exe/rbdock.cxx#4 $)

>  <Rbt.Library>
libRbt.so (2013.1, Build901 2013/11/27)

>  <Rbt.Parameter_File>
/export/apps/rDock/src/rDock_2013.1_src/data/scripts/dock_solv.prm

>  <Rbt.Receptor>
prm/pocket_docking_6.prm

>  <SCORE>
-13.3207

>  <SCORE.INTER>
-13.3207

>  <SCORE.INTER.CONST>
1

>  <SCORE.INTER.POLAR>
0

>  <SCORE.INTER.ROT>
0

>  <SCORE.INTER.SOLV>
4.03561

>  <SCORE.INTER.VDW>
-13.8257

>  <SCORE.INTER.norm>
-1.33207

>  <SCORE.INTRA>
0

>  <SCORE.INTRA.DIHEDRAL>
0

>  <SCORE.INTRA.DIHEDRAL.0>
0

>  <SCORE.INTRA.POLAR>
0

>  <SCORE.INTRA.POLAR.0>
0

>  <SCORE.INTRA.REPUL>
0

>  <SCORE.INTRA.REPUL.0>
0

>  <SCORE.INTRA.SOLV>
0

>  <SCORE.INTRA.SOLV.lig_0>
-23.9151

>  <SCORE.INTRA.VDW>
0

>  <SCORE.INTRA.VDW.0>
0

>  <SCORE.INTRA.norm>
0

>  <SCORE.RESTR>
0

>  <SCORE.RESTR.CAVITY>
0

>  <SCORE.RESTR.norm>
0

>  <SCORE.SYSTEM>
0

>  <SCORE.SYSTEM.CONST>
0

>  <SCORE.SYSTEM.DIHEDRAL>
0

>  <SCORE.SYSTEM.SOLV>
0

>  <SCORE.SYSTEM.norm>
0

>  <SCORE.heavy>
10

>  <SCORE.norm>
-1.33207

>  <RMSD>
0.972

$$$$
ligand
 OpenBabel11021811503D
libRbt.so/2013.1/901 2013/11/27
 10 11  0  0  0  0  0  0  0  0999 V2000
    3.7920  -19.4718   26.0897 N   0  0  0  0  0  0  0  0  0  0  0  0
    3.0857  -19.0357   27.1346 C   0  0  0  0  0  0  0  0  0  0  0  0
    1.8058  -19.2744   27.4464 N   0  0  0  0  0  0  0  0  0  0  0  0
    1.2311  -20.0558   26.5122 C   0  0  0  0  0  0  0  0  0  0  0  0
    1.8278  -20.5810   25.3817 C   0  0  0  0  0  0  0  0  0  0  0  0
    3.1845  -20.2639   25.1717 C   0  0  0  0  0  0  0  0  0  0  0  0
    3.8819  -20.6997   24.1102 N   0  0  0  0  0  0  0  0  0  0  0  0
    0.9316  -21.3449   24.6567 N   0  0  0  0  0  0  0  0  0  0  0  0
   -0.1736  -21.2778   25.3509 C   0  0  0  0  0  0  0  0  0  0  0  0
   -0.0663  -20.5084   26.4789 N   0  0  0  0  0  0  0  0  0  0  0  0
  1  2  2  0  0  0  0
  1  6  1  0  0  0  0
  2  3  1  0  0  0  0
  3  4  2  0  0  0  0
  4  5  1  0  0  0  0
  4 10  1  0  0  0  0
  5  6  2  0  0  0  0
  5  8  1  0  0  0  0
  6  7  1  0  0  0  0
  8  9  1  0  0  0  0
  9 10  2  0  0  0  0
M  END
>  <CHROM.1>
1.95916785,-20.25199121,25.82739706,0.13894583,0.27550857,1.00240725

>  <Name>
ligand

>  <RI>
0

>  <Rbt.Current_Directory>
/home/itssahil/PROJECTS/Mol_Feturizer/New_Systems/rnas/4LW0

>  <Rbt.Executable>
rbdock ($Id: //depot/dev/client3/rdock/2013.1/src/exe/rbdock.cxx#4 $)

>  <Rbt.Library>
libRbt.so (2013.1, Build901 2013/11/27)

>  <Rbt.Parameter_File>
/export/apps/rDock/src/rDock_2013.1_src/data/scripts/dock_solv.prm

>  <Rbt.Receptor>
prm/pocket_docking_4.prm

>  <SCORE>
-13.321

>  <SCORE.INTER>
-13.321

>  <SCORE.INTER.CONST>
1

>  <SCORE.INTER.POLAR>
0

>  <SCORE.INTER.ROT>
0

>  <SCORE.INTER.SOLV>
4.04024

>  <SCORE.INTER.VDW>
-13.8274

>  <SCORE.INTER.norm>
-1.3321

>  <SCORE.INTRA>
0

>  <SCORE.INTRA.DIHEDRAL>
0

>  <SCORE.INTRA.DIHEDRAL.0>
0

>  <SCORE.INTRA.POLAR>
0

>  <SCORE.INTRA.POLAR.0>
0

>  <SCORE.INTRA.REPUL>
0

>  <SCORE.INTRA.REPUL.0>
0

>  <SCORE.INTRA.SOLV>
0

>  <SCORE.INTRA.SOLV.lig_0>
-23.9151

>  <SCORE.INTRA.VDW>
0

>  <SCORE.INTRA.VDW.0>
0

>  <SCORE.INTRA.norm>
0

>  <SCORE.RESTR>
0

>  <SCORE.RESTR.CAVITY>
0

>  <SCORE.RESTR.norm>
0

>  <SCORE.SYSTEM>
0

>  <SCORE.SYSTEM.CONST>
0

>  <SCORE.SYSTEM.DIHEDRAL>
0

>  <SCORE.SYSTEM.SOLV>
0

>  <SCORE.SYSTEM.norm>
0

>  <SCORE.heavy>
10

>  <SCORE.norm>
-1.3321

>  <RMSD>
0.974

$$$$
ligand
 OpenBabel11021811503D
libRbt.so/2013.1/901 2013/11/27
 10 11  0  0  0  0  0  0  0  0999 V2000
    3.7011  -19.3742   26.0468 N   0  0  0  0  0  0  0  0  0  0  0  0
    3.0008  -18.9872   27.1149 C   0  0  0  0  0  0  0  0  0  0  0  0
    1.7474  -19.3048   27.4621 N   0  0  0  0  0  0  0  0  0  0  0  0
    1.1937  -20.1147   26.5396 C   0  0  0  0  0  0  0  0  0  0  0  0
    1.7875  -20.5968   25.3886 C   0  0  0  0  0  0  0  0  0  0  0  0
    3.1158  -20.1969   25.1413 C   0  0  0  0  0  0  0  0  0  0  0  0
    3.8066  -20.5841   24.0570 N   0  0  0  0  0  0  0  0  0  0  0  0
    0.9181  -21.4099   24.6847 N   0  0  0  0  0  0  0  0  0  0  0  0
   -0.1681  -21.4136   25.4113 C   0  0  0  0  0  0  0  0  0  0  0  0
   -0.0743  -20.6450   26.5410 N   0  0  0  0  0  0  0  0  0  0  0  0
  1  2  2  0  0  0  0
  1  6  1  0  0  0  0
  2  3  1  0  0  0  0
  3  4  2  0  0  0  0
  4  5  1  0  0  0  0
  4 10  1  0  0  0  0
  5  6  2  0  0  0  0
  5  8  1  0  0  0  0
  6  7  1  0  0  0  0
  8  9  1  0  0  0  0
  9 10  2  0  0  0  0
M  END
>  <CHROM.1>
1.91184665,-20.26277832,25.83256705,0.14709872,0.34238115,1.00604439

>  <Name>
ligand

>  <RI>
0

>  <Rbt.Current_Directory>
/home/itssahil/PROJECTS/Mol_Feturizer/New_Systems/rnas/4LW0

>  <Rbt.Executable>
rbdock ($Id: //depot/dev/client3/rdock/2013.1/src/exe/rbdock.cxx#4 $)

>  <Rbt.Library>
libRbt.so (2013.1, Build901 2013/11/27)

>  <Rbt.Parameter_File>
/export/apps/rDock/src/rDock_2013.1_src/data/scripts/dock_solv.prm

>  <Rbt.Receptor>
prm/pocket_docking_3.prm

>  <SCORE>
-13.3151

>  <SCORE.INTER>
-13.3151

>  <SCORE.INTER.CONST>
1

>  <SCORE.INTER.POLAR>
0

>  <SCORE.INTER.ROT>
0

>  <SCORE.INTER.SOLV>
4.32724

>  <SCORE.INTER.VDW>
-13.9192

>  <SCORE.INTER.norm>
-1.33151

>  <SCORE.INTRA>
0

>  <SCORE.INTRA.DIHEDRAL>
0

>  <SCORE.INTRA.DIHEDRAL.0>
0

>  <SCORE.INTRA.POLAR>
0

>  <SCORE.INTRA.POLAR.0>
0

>  <SCORE.INTRA.REPUL>
0

>  <SCORE.INTRA.REPUL.0>
0

>  <SCORE.INTRA.SOLV>
0

>  <SCORE.INTRA.SOLV.lig_0>
-23.9151

>  <SCORE.INTRA.VDW>
0

>  <SCORE.INTRA.VDW.0>
0

>  <SCORE.INTRA.norm>
0

>  <SCORE.RESTR>
0

>  <SCORE.RESTR.CAVITY>
0

>  <SCORE.RESTR.norm>
0

>  <SCORE.SYSTEM>
0

>  <SCORE.SYSTEM.CONST>
0

>  <SCORE.SYSTEM.DIHEDRAL>
0

>  <SCORE.SYSTEM.SOLV>
0

>  <SCORE.SYSTEM.norm>
0

>  <SCORE.heavy>
10

>  <SCORE.norm>
-1.33151

>  <RMSD>
0.984

$$$$
ligand
 OpenBabel11021811503D
libRbt.so/2013.1/901 2013/11/27
 10 11  0  0  0  0  0  0  0  0999 V2000
    3.7812  -19.4656   26.1118 N   0  0  0  0  0  0  0  0  0  0  0  0
    3.0711  -19.0491   27.1622 C   0  0  0  0  0  0  0  0  0  0  0  0
    1.7929  -19.3020   27.4700 N   0  0  0  0  0  0  0  0  0  0  0  0
    1.2248  -20.0753   26.5252 C   0  0  0  0  0  0  0  0  0  0  0  0
    1.8260  -20.5806   25.3881 C   0  0  0  0  0  0  0  0  0  0  0  0
    3.1803  -20.2501   25.1830 C   0  0  0  0  0  0  0  0  0  0  0  0
    3.8815  -20.6662   24.1161 N   0  0  0  0  0  0  0  0  0  0  0  0
    0.9362  -21.3418   24.6525 N   0  0  0  0  0  0  0  0  0  0  0  0
   -0.1698  -21.2926   25.3470 C   0  0  0  0  0  0  0  0  0  0  0  0
   -0.0690  -20.5376   26.4852 N   0  0  0  0  0  0  0  0  0  0  0  0
  1  2  2  0  0  0  0
  1  6  1  0  0  0  0
  2  3  1  0  0  0  0
  3  4  2  0  0  0  0
  4  5  1  0  0  0  0
  4 10  1  0  0  0  0
  5  6  2  0  0  0  0
  5  8  1  0  0  0  0
  6  7  1  0  0  0  0
  8  9  1  0  0  0  0
  9 10  2  0  0  0  0
M  END
>  <CHROM.1>
1.95465771,-20.25658832,25.83820959,0.14368964,0.28188635,1.01446273

>  <Name>
ligand

>  <RI>
0

>  <Rbt.Current_Directory>
/home/itssahil/PROJECTS/Mol_Feturizer/New_Systems/rnas/4LW0

>  <Rbt.Executable>
rbdock ($Id: //depot/dev/client3/rdock/2013.1/src/exe/rbdock.cxx#4 $)

>  <Rbt.Library>
libRbt.so (2013.1, Build901 2013/11/27)

>  <Rbt.Parameter_File>
/export/apps/rDock/src/rDock_2013.1_src/data/scripts/dock_solv.prm

>  <Rbt.Receptor>
prm/pocket_docking_7.prm

>  <SCORE>
-13.329

>  <SCORE.INTER>
-13.329

>  <SCORE.INTER.CONST>
1

>  <SCORE.INTER.POLAR>
0

>  <SCORE.INTER.ROT>
0

>  <SCORE.INTER.SOLV>
4.00969

>  <SCORE.INTER.VDW>
-13.8225

>  <SCORE.INTER.norm>
-1.3329

>  <SCORE.INTRA>
0

>  <SCORE.INTRA.DIHEDRAL>
0

>  <SCORE.INTRA.DIHEDRAL.0>
0

>  <SCORE.INTRA.POLAR>
0

>  <SCORE.INTRA.POLAR.0>
0

>  <SCORE.INTRA.REPUL>
0

>  <SCORE.INTRA.REPUL.0>
0

>  <SCORE.INTRA.SOLV>
0

>  <SCORE.INTRA.SOLV.lig_0>
-23.9151

>  <SCORE.INTRA.VDW>
0

>  <SCORE.INTRA.VDW.0>
0

>  <SCORE.INTRA.norm>
0

>  <SCORE.RESTR>
0

>  <SCORE.RESTR.CAVITY>
0

>  <SCORE.RESTR.norm>
0

>  <SCORE.SYSTEM>
0

>  <SCORE.SYSTEM.CONST>
0

>  <SCORE.SYSTEM.DIHEDRAL>
0

>  <SCORE.SYSTEM.SOLV>
0

>  <SCORE.SYSTEM.norm>
0

>  <SCORE.heavy>
10

>  <SCORE.norm>
-1.3329

>  <RMSD>
0.985

$$$$
ligand
 OpenBabel11021811503D
libRbt.so/2013.1/901 2013/11/27
 10 11  0  0  0  0  0  0  0  0999 V2000
    3.7636  -19.5281   26.1294 N   0  0  0  0  0  0  0  0  0  0  0  0
    3.0519  -19.0915   27.1705 C   0  0  0  0  0  0  0  0  0  0  0  0
    1.7656  -19.3157   27.4664 N   0  0  0  0  0  0  0  0  0  0  0  0
    1.1907  -20.0813   26.5193 C   0  0  0  0  0  0  0  0  0  0  0  0
    1.7926  -20.6047   25.3908 C   0  0  0  0  0  0  0  0  0  0  0  0
    3.1556  -20.3041   25.1981 C   0  0  0  0  0  0  0  0  0  0  0  0
    3.8585  -20.7401   24.1403 N   0  0  0  0  0  0  0  0  0  0  0  0
    0.8942  -21.3503   24.6496 N   0  0  0  0  0  0  0  0  0  0  0  0
   -0.2175  -21.2743   25.3325 C   0  0  0  0  0  0  0  0  0  0  0  0
   -0.1121  -20.5161   26.4682 N   0  0  0  0  0  0  0  0  0  0  0  0
  1  2  2  0  0  0  0
  1  6  1  0  0  0  0
  2  3  1  0  0  0  0
  3  4  2  0  0  0  0
  4  5  1  0  0  0  0
  4 10  1  0  0  0  0
  5  6  2  0  0  0  0
  5  8  1  0  0  0  0
  6  7  1  0  0  0  0
  8  9  1  0  0  0  0
  9 10  2  0  0  0  0
M  END
>  <CHROM.1>
1.92349834,-20.28131892,25.84071285,0.14095032,0.25842982,1.01052811

>  <Name>
ligand

>  <RI>
0

>  <Rbt.Current_Directory>
/home/itssahil/PROJECTS/Mol_Feturizer/New_Systems/rnas/4LW0

>  <Rbt.Executable>
rbdock ($Id: //depot/dev/client3/rdock/2013.1/src/exe/rbdock.cxx#4 $)

>  <Rbt.Library>
libRbt.so (2013.1, Build901 2013/11/27)

>  <Rbt.Parameter_File>
/export/apps/rDock/src/rDock_2013.1_src/data/scripts/dock_solv.prm

>  <Rbt.Receptor>
prm/pocket_docking_6.prm

>  <SCORE>
-13.3635

>  <SCORE.INTER>
-13.3635

>  <SCORE.INTER.CONST>
1

>  <SCORE.INTER.POLAR>
0

>  <SCORE.INTER.ROT>
0

>  <SCORE.INTER.SOLV>
4.09923

>  <SCORE.INTER.VDW>
-13.8754

>  <SCORE.INTER.norm>
-1.33635

>  <SCORE.INTRA>
0

>  <SCORE.INTRA.DIHEDRAL>
0

>  <SCORE.INTRA.DIHEDRAL.0>
0

>  <SCORE.INTRA.POLAR>
0

>  <SCORE.INTRA.POLAR.0>
0

>  <SCORE.INTRA.REPUL>
0

>  <SCORE.INTRA.REPUL.0>
0

>  <SCORE.INTRA.SOLV>
0

>  <SCORE.INTRA.SOLV.lig_0>
-23.9151

>  <SCORE.INTRA.VDW>
0

>  <SCORE.INTRA.VDW.0>
0

>  <SCORE.INTRA.norm>
0

>  <SCORE.RESTR>
0

>  <SCORE.RESTR.CAVITY>
0

>  <SCORE.RESTR.norm>
0

>  <SCORE.SYSTEM>
0

>  <SCORE.SYSTEM.CONST>
0

>  <SCORE.SYSTEM.DIHEDRAL>
0

>  <SCORE.SYSTEM.SOLV>
0

>  <SCORE.SYSTEM.norm>
0

>  <SCORE.heavy>
10

>  <SCORE.norm>
-1.33635

>  <RMSD>
0.986

$$$$
ligand
 OpenBabel11021811503D
libRbt.so/2013.1/901 2013/11/27
 10 11  0  0  0  0  0  0  0  0999 V2000
    3.7139  -19.3750   26.0397 N   0  0  0  0  0  0  0  0  0  0  0  0
    3.0010  -18.9885   27.0996 C   0  0  0  0  0  0  0  0  0  0  0  0
    1.7480  -19.3163   27.4384 N   0  0  0  0  0  0  0  0  0  0  0  0
    1.2099  -20.1370   26.5162 C   0  0  0  0  0  0  0  0  0  0  0  0
    1.8179  -20.6201   25.3731 C   0  0  0  0  0  0  0  0  0  0  0  0
    3.1442  -20.2087   25.1344 C   0  0  0  0  0  0  0  0  0  0  0  0
    3.8478  -20.5955   24.0581 N   0  0  0  0  0  0  0  0  0  0  0  0
    0.9624  -21.4458   24.6669 N   0  0  0  0  0  0  0  0  0  0  0  0
   -0.1298  -21.4559   25.3845 C   0  0  0  0  0  0  0  0  0  0  0  0
   -0.0529  -20.6797   26.5103 N   0  0  0  0  0  0  0  0  0  0  0  0
  1  2  2  0  0  0  0
  1  6  1  0  0  0  0
  2  3  1  0  0  0  0
  3  4  2  0  0  0  0
  4  5  1  0  0  0  0
  4 10  1  0  0  0  0
  5  6  2  0  0  0  0
  5  8  1  0  0  0  0
  6  7  1  0  0  0  0
  8  9  1  0  0  0  0
  9 10  2  0  0  0  0
M  END
>  <CHROM.1>
1.93525643,-20.28226270,25.81603658,0.16011441,0.34614010,0.99567710

>  <Name>
ligand

>  <RI>
0

>  <Rbt.Current_Directory>
/home/itssahil/PROJECTS/Mol_Feturizer/New_Systems/rnas/4LW0

>  <Rbt.Executable>
rbdock ($Id: //depot/dev/client3/rdock/2013.1/src/exe/rbdock.cxx#4 $)

>  <Rbt.Library>
libRbt.so (2013.1, Build901 2013/11/27)

>  <Rbt.Parameter_File>
/export/apps/rDock/src/rDock_2013.1_src/data/scripts/dock_solv.prm

>  <Rbt.Receptor>
prm/pocket_docking_3.prm

>  <SCORE>
-13.2812

>  <SCORE.INTER>
-13.2812

>  <SCORE.INTER.CONST>
1

>  <SCORE.INTER.POLAR>
0

>  <SCORE.INTER.ROT>
0

>  <SCORE.INTER.SOLV>
4.16839

>  <SCORE.INTER.VDW>
-13.8436

>  <SCORE.INTER.norm>
-1.32812

>  <SCORE.INTRA>
0

>  <SCORE.INTRA.DIHEDRAL>
0

>  <SCORE.INTRA.DIHEDRAL.0>
0

>  <SCORE.INTRA.POLAR>
0

>  <SCORE.INTRA.POLAR.0>
0

>  <SCORE.INTRA.REPUL>
0

>  <SCORE.INTRA.REPUL.0>
0

>  <SCORE.INTRA.SOLV>
0

>  <SCORE.INTRA.SOLV.lig_0>
-23.9151

>  <SCORE.INTRA.VDW>
0

>  <SCORE.INTRA.VDW.0>
0

>  <SCORE.INTRA.norm>
0

>  <SCORE.RESTR>
0

>  <SCORE.RESTR.CAVITY>
0

>  <SCORE.RESTR.norm>
0

>  <SCORE.SYSTEM>
0

>  <SCORE.SYSTEM.CONST>
0

>  <SCORE.SYSTEM.DIHEDRAL>
0

>  <SCORE.SYSTEM.SOLV>
0

>  <SCORE.SYSTEM.norm>
0

>  <SCORE.heavy>
10

>  <SCORE.norm>
-1.32812

>  <RMSD>
0.987

$$$$
ligand
 OpenBabel11021811503D
libRbt.so/2013.1/901 2013/11/27
 10 11  0  0  0  0  0  0  0  0999 V2000
    3.7732  -19.4923   26.1078 N   0  0  0  0  0  0  0  0  0  0  0  0
    3.0569  -19.0544   27.1452 C   0  0  0  0  0  0  0  0  0  0  0  0
    1.7723  -19.2871   27.4415 N   0  0  0  0  0  0  0  0  0  0  0  0
    1.2046  -20.0639   26.4993 C   0  0  0  0  0  0  0  0  0  0  0  0
    1.8117  -20.5901   25.3749 C   0  0  0  0  0  0  0  0  0  0  0  0
    3.1724  -20.2797   25.1813 C   0  0  0  0  0  0  0  0  0  0  0  0
    3.8799  -20.7172   24.1272 N   0  0  0  0  0  0  0  0  0  0  0  0
    0.9202  -21.3482   24.6381 N   0  0  0  0  0  0  0  0  0  0  0  0
   -0.1927  -21.2767   25.3195 C   0  0  0  0  0  0  0  0  0  0  0  0
   -0.0946  -20.5098   26.4500 N   0  0  0  0  0  0  0  0  0  0  0  0
  1  2  2  0  0  0  0
  1  6  1  0  0  0  0
  2  3  1  0  0  0  0
  3  4  2  0  0  0  0
  4  5  1  0  0  0  0
  4 10  1  0  0  0  0
  5  6  2  0  0  0  0
  5  8  1  0  0  0  0
  6  7  1  0  0  0  0
  8  9  1  0  0  0  0
  9 10  2  0  0  0  0
M  END
>  <CHROM.1>
1.93959547,-20.26263476,25.82270039,0.14629707,0.26488636,1.00221144

>  <Name>
ligand

>  <RI>
0

>  <Rbt.Current_Directory>
/home/itssahil/PROJECTS/Mol_Feturizer/New_Systems/rnas/4LW0

>  <Rbt.Executable>
rbdock ($Id: //depot/dev/client3/rdock/2013.1/src/exe/rbdock.cxx#4 $)

>  <Rbt.Library>
libRbt.so (2013.1, Build901 2013/11/27)

>  <Rbt.Parameter_File>
/export/apps/rDock/src/rDock_2013.1_src/data/scripts/dock_solv.prm

>  <Rbt.Receptor>
prm/pocket_docking_4.prm

>  <SCORE>
-13.3787

>  <SCORE.INTER>
-13.3787

>  <SCORE.INTER.CONST>
1

>  <SCORE.INTER.POLAR>
0

>  <SCORE.INTER.ROT>
0

>  <SCORE.INTER.SOLV>
4.03801

>  <SCORE.INTER.VDW>
-13.8651

>  <SCORE.INTER.norm>
-1.33787

>  <SCORE.INTRA>
0

>  <SCORE.INTRA.DIHEDRAL>
0

>  <SCORE.INTRA.DIHEDRAL.0>
0

>  <SCORE.INTRA.POLAR>
0

>  <SCORE.INTRA.POLAR.0>
0

>  <SCORE.INTRA.REPUL>
0

>  <SCORE.INTRA.REPUL.0>
0

>  <SCORE.INTRA.SOLV>
0

>  <SCORE.INTRA.SOLV.lig_0>
-23.9151

>  <SCORE.INTRA.VDW>
0

>  <SCORE.INTRA.VDW.0>
0

>  <SCORE.INTRA.norm>
0

>  <SCORE.RESTR>
0

>  <SCORE.RESTR.CAVITY>
0

>  <SCORE.RESTR.norm>
0

>  <SCORE.SYSTEM>
0

>  <SCORE.SYSTEM.CONST>
0

>  <SCORE.SYSTEM.DIHEDRAL>
0

>  <SCORE.SYSTEM.SOLV>
0

>  <SCORE.SYSTEM.norm>
0

>  <SCORE.heavy>
10

>  <SCORE.norm>
-1.33787

>  <RMSD>
0.988

$$$$
ligand
 OpenBabel11021811503D
libRbt.so/2013.1/901 2013/11/27
 10 11  0  0  0  0  0  0  0  0999 V2000
    3.7375  -19.3935   26.0554 N   0  0  0  0  0  0  0  0  0  0  0  0
    3.0291  -19.0078   27.1187 C   0  0  0  0  0  0  0  0  0  0  0  0
    1.7661  -19.3087   27.4451 N   0  0  0  0  0  0  0  0  0  0  0  0
    1.2118  -20.0982   26.5053 C   0  0  0  0  0  0  0  0  0  0  0  0
    1.8132  -20.5761   25.3566 C   0  0  0  0  0  0  0  0  0  0  0  0
    3.1512  -20.1954   25.1321 C   0  0  0  0  0  0  0  0  0  0  0  0
    3.8503  -20.5808   24.0525 N   0  0  0  0  0  0  0  0  0  0  0  0
    0.9404  -21.3661   24.6310 N   0  0  0  0  0  0  0  0  0  0  0  0
   -0.1556  -21.3606   25.3428 C   0  0  0  0  0  0  0  0  0  0  0  0
   -0.0646  -20.6073   26.4831 N   0  0  0  0  0  0  0  0  0  0  0  0
  1  2  2  0  0  0  0
  1  6  1  0  0  0  0
  2  3  1  0  0  0  0
  3  4  2  0  0  0  0
  4  5  1  0  0  0  0
  4 10  1  0  0  0  0
  5  6  2  0  0  0  0
  5  8  1  0  0  0  0
  6  7  1  0  0  0  0
  8  9  1  0  0  0  0
  9 10  2  0  0  0  0
M  END
>  <CHROM.1>
1.93698184,-20.24959182,25.80620714,0.15000907,0.32119914,1.01727138

>  <Name>
ligand

>  <RI>
0

>  <Rbt.Current_Directory>
/home/itssahil/PROJECTS/Mol_Feturizer/New_Systems/rnas/4LW0

>  <Rbt.Executable>
rbdock ($Id: //depot/dev/client3/rdock/2013.1/src/exe/rbdock.cxx#4 $)

>  <Rbt.Library>
libRbt.so (2013.1, Build901 2013/11/27)

>  <Rbt.Parameter_File>
/export/apps/rDock/src/rDock_2013.1_src/data/scripts/dock_solv.prm

>  <Rbt.Receptor>
prm/pocket_docking_5.prm

>  <SCORE>
-13.3104

>  <SCORE.INTER>
-13.3104

>  <SCORE.INTER.CONST>
1

>  <SCORE.INTER.POLAR>
0

>  <SCORE.INTER.ROT>
0

>  <SCORE.INTER.SOLV>
4.17866

>  <SCORE.INTER.VDW>
-13.8665

>  <SCORE.INTER.norm>
-1.33104

>  <SCORE.INTRA>
0

>  <SCORE.INTRA.DIHEDRAL>
0

>  <SCORE.INTRA.DIHEDRAL.0>
0

>  <SCORE.INTRA.POLAR>
0

>  <SCORE.INTRA.POLAR.0>
0

>  <SCORE.INTRA.REPUL>
0

>  <SCORE.INTRA.REPUL.0>
0

>  <SCORE.INTRA.SOLV>
0

>  <SCORE.INTRA.SOLV.lig_0>
-23.9151

>  <SCORE.INTRA.VDW>
0

>  <SCORE.INTRA.VDW.0>
0

>  <SCORE.INTRA.norm>
0

>  <SCORE.RESTR>
0

>  <SCORE.RESTR.CAVITY>
0

>  <SCORE.RESTR.norm>
0

>  <SCORE.SYSTEM>
0

>  <SCORE.SYSTEM.CONST>
0

>  <SCORE.SYSTEM.DIHEDRAL>
0

>  <SCORE.SYSTEM.SOLV>
0

>  <SCORE.SYSTEM.norm>
0

>  <SCORE.heavy>
10

>  <SCORE.norm>
-1.33104

>  <RMSD>
0.988

$$$$
ligand
 OpenBabel11021811503D
libRbt.so/2013.1/901 2013/11/27
 10 11  0  0  0  0  0  0  0  0999 V2000
    3.7528  -19.5273   26.1320 N   0  0  0  0  0  0  0  0  0  0  0  0
    3.0399  -19.0822   27.1687 C   0  0  0  0  0  0  0  0  0  0  0  0
    1.7537  -19.3053   27.4658 N   0  0  0  0  0  0  0  0  0  0  0  0
    1.1803  -20.0800   26.5253 C   0  0  0  0  0  0  0  0  0  0  0  0
    1.7835  -20.6128   25.4019 C   0  0  0  0  0  0  0  0  0  0  0  0
    3.1463  -20.3123   25.2073 C   0  0  0  0  0  0  0  0  0  0  0  0
    3.8504  -20.7570   24.1540 N   0  0  0  0  0  0  0  0  0  0  0  0
    0.8865  -21.3662   24.6669 N   0  0  0  0  0  0  0  0  0  0  0  0
   -0.2257  -21.2854   25.3484 C   0  0  0  0  0  0  0  0  0  0  0  0
   -0.1219  -20.5169   26.4774 N   0  0  0  0  0  0  0  0  0  0  0  0
  1  2  2  0  0  0  0
  1  6  1  0  0  0  0
  2  3  1  0  0  0  0
  3  4  2  0  0  0  0
  4  5  1  0  0  0  0
  4 10  1  0  0  0  0
  5  6  2  0  0  0  0
  5  8  1  0  0  0  0
  6  7  1  0  0  0  0
  8  9  1  0  0  0  0
  9 10  2  0  0  0  0
M  END
>  <CHROM.1>
1.91378287,-20.28529876,25.84897976,0.14215244,0.25912394,1.00121514

>  <Name>
ligand

>  <RI>
0

>  <Rbt.Current_Directory>
/home/itssahil/PROJECTS/Mol_Feturizer/New_Systems/rnas/4LW0

>  <Rbt.Executable>
rbdock ($Id: //depot/dev/client3/rdock/2013.1/src/exe/rbdock.cxx#4 $)

>  <Rbt.Library>
libRbt.so (2013.1, Build901 2013/11/27)

>  <Rbt.Parameter_File>
/export/apps/rDock/src/rDock_2013.1_src/data/scripts/dock_solv.prm

>  <Rbt.Receptor>
prm/pocket_docking_8.prm

>  <SCORE>
-13.3644

>  <SCORE.INTER>
-13.3644

>  <SCORE.INTER.CONST>
1

>  <SCORE.INTER.POLAR>
0

>  <SCORE.INTER.ROT>
0

>  <SCORE.INTER.SOLV>
4.11656

>  <SCORE.INTER.VDW>
-13.8818

>  <SCORE.INTER.norm>
-1.33644

>  <SCORE.INTRA>
0

>  <SCORE.INTRA.DIHEDRAL>
0

>  <SCORE.INTRA.DIHEDRAL.0>
0

>  <SCORE.INTRA.POLAR>
0

>  <SCORE.INTRA.POLAR.0>
0

>  <SCORE.INTRA.REPUL>
0

>  <SCORE.INTRA.REPUL.0>
0

>  <SCORE.INTRA.SOLV>
0

>  <SCORE.INTRA.SOLV.lig_0>
-23.9151

>  <SCORE.INTRA.VDW>
0

>  <SCORE.INTRA.VDW.0>
0

>  <SCORE.INTRA.norm>
0

>  <SCORE.RESTR>
0

>  <SCORE.RESTR.CAVITY>
0

>  <SCORE.RESTR.norm>
0

>  <SCORE.SYSTEM>
0

>  <SCORE.SYSTEM.CONST>
0

>  <SCORE.SYSTEM.DIHEDRAL>
0

>  <SCORE.SYSTEM.SOLV>
0

>  <SCORE.SYSTEM.norm>
0

>  <SCORE.heavy>
10

>  <SCORE.norm>
-1.33644

>  <RMSD>
0.988

$$$$
ligand
 OpenBabel11021811503D
libRbt.so/2013.1/901 2013/11/27
 10 11  0  0  0  0  0  0  0  0999 V2000
    3.7674  -19.5268   26.1292 N   0  0  0  0  0  0  0  0  0  0  0  0
    3.0538  -19.0955   27.1712 C   0  0  0  0  0  0  0  0  0  0  0  0
    1.7665  -19.3194   27.4625 N   0  0  0  0  0  0  0  0  0  0  0  0
    1.1926  -20.0781   26.5092 C   0  0  0  0  0  0  0  0  0  0  0  0
    1.7964  -20.5954   25.3789 C   0  0  0  0  0  0  0  0  0  0  0  0
    3.1604  -20.2959   25.1915 C   0  0  0  0  0  0  0  0  0  0  0  0
    3.8653  -20.7265   24.1328 N   0  0  0  0  0  0  0  0  0  0  0  0
    0.8987  -21.3349   24.6308 N   0  0  0  0  0  0  0  0  0  0  0  0
   -0.2145  -21.2613   25.3115 C   0  0  0  0  0  0  0  0  0  0  0  0
   -0.1108  -20.5104   26.4522 N   0  0  0  0  0  0  0  0  0  0  0  0
  1  2  2  0  0  0  0
  1  6  1  0  0  0  0
  2  3  1  0  0  0  0
  3  4  2  0  0  0  0
  4  5  1  0  0  0  0
  4 10  1  0  0  0  0
  5  6  2  0  0  0  0
  5  8  1  0  0  0  0
  6  7  1  0  0  0  0
  8  9  1  0  0  0  0
  9 10  2  0  0  0  0
M  END
>  <CHROM.1>
1.92677957,-20.27513436,25.83117818,0.14222681,0.25570806,1.01645275

>  <Name>
ligand

>  <RI>
0

>  <Rbt.Current_Directory>
/home/itssahil/PROJECTS/Mol_Feturizer/New_Systems/rnas/4LW0

>  <Rbt.Executable>
rbdock ($Id: //depot/dev/client3/rdock/2013.1/src/exe/rbdock.cxx#4 $)

>  <Rbt.Library>
libRbt.so (2013.1, Build901 2013/11/27)

>  <Rbt.Parameter_File>
/export/apps/rDock/src/rDock_2013.1_src/data/scripts/dock_solv.prm

>  <Rbt.Receptor>
prm/pocket_docking_3.prm

>  <SCORE>
-13.3918

>  <SCORE.INTER>
-13.3918

>  <SCORE.INTER.CONST>
1

>  <SCORE.INTER.POLAR>
0

>  <SCORE.INTER.ROT>
0

>  <SCORE.INTER.SOLV>
4.08388

>  <SCORE.INTER.VDW>
-13.8892

>  <SCORE.INTER.norm>
-1.33918

>  <SCORE.INTRA>
0

>  <SCORE.INTRA.DIHEDRAL>
0

>  <SCORE.INTRA.DIHEDRAL.0>
0

>  <SCORE.INTRA.POLAR>
0

>  <SCORE.INTRA.POLAR.0>
0

>  <SCORE.INTRA.REPUL>
0

>  <SCORE.INTRA.REPUL.0>
0

>  <SCORE.INTRA.SOLV>
0

>  <SCORE.INTRA.SOLV.lig_0>
-23.9151

>  <SCORE.INTRA.VDW>
0

>  <SCORE.INTRA.VDW.0>
0

>  <SCORE.INTRA.norm>
0

>  <SCORE.RESTR>
0

>  <SCORE.RESTR.CAVITY>
0

>  <SCORE.RESTR.norm>
0

>  <SCORE.SYSTEM>
0

>  <SCORE.SYSTEM.CONST>
0

>  <SCORE.SYSTEM.DIHEDRAL>
0

>  <SCORE.SYSTEM.SOLV>
0

>  <SCORE.SYSTEM.norm>
0

>  <SCORE.heavy>
10

>  <SCORE.norm>
-1.33918

>  <RMSD>
0.989

$$$$
ligand
 OpenBabel11021811503D
libRbt.so/2013.1/901 2013/11/27
 10 11  0  0  0  0  0  0  0  0999 V2000
    3.7655  -19.5167   26.1212 N   0  0  0  0  0  0  0  0  0  0  0  0
    3.0509  -19.0719   27.1568 C   0  0  0  0  0  0  0  0  0  0  0  0
    1.7632  -19.2919   27.4498 N   0  0  0  0  0  0  0  0  0  0  0  0
    1.1903  -20.0628   26.5058 C   0  0  0  0  0  0  0  0  0  0  0  0
    1.7951  -20.5948   25.3830 C   0  0  0  0  0  0  0  0  0  0  0  0
    3.1593  -20.2979   25.1930 C   0  0  0  0  0  0  0  0  0  0  0  0
    3.8652  -20.7422   24.1406 N   0  0  0  0  0  0  0  0  0  0  0  0
    0.8980  -21.3438   24.6437 N   0  0  0  0  0  0  0  0  0  0  0  0
   -0.2159  -21.2613   25.3222 C   0  0  0  0  0  0  0  0  0  0  0  0
   -0.1131  -20.4957   26.4531 N   0  0  0  0  0  0  0  0  0  0  0  0
  1  2  2  0  0  0  0
  1  6  1  0  0  0  0
  2  3  1  0  0  0  0
  3  4  2  0  0  0  0
  4  5  1  0  0  0  0
  4 10  1  0  0  0  0
  5  6  2  0  0  0  0
  5  8  1  0  0  0  0
  6  7  1  0  0  0  0
  8  9  1  0  0  0  0
  9 10  2  0  0  0  0
M  END
>  <CHROM.1>
1.92505076,-20.26868812,25.83114858,0.14302443,0.25510471,1.00328950

>  <Name>
ligand

>  <RI>
0

>  <Rbt.Current_Directory>
/home/itssahil/PROJECTS/Mol_Feturizer/New_Systems/rnas/4LW0

>  <Rbt.Executable>
rbdock ($Id: //depot/dev/client3/rdock/2013.1/src/exe/rbdock.cxx#4 $)

>  <Rbt.Library>
libRbt.so (2013.1, Build901 2013/11/27)

>  <Rbt.Parameter_File>
/export/apps/rDock/src/rDock_2013.1_src/data/scripts/dock_solv.prm

>  <Rbt.Receptor>
prm/pocket_docking_4.prm

>  <SCORE>
-13.3724

>  <SCORE.INTER>
-13.3724

>  <SCORE.INTER.CONST>
1

>  <SCORE.INTER.POLAR>
0

>  <SCORE.INTER.ROT>
0

>  <SCORE.INTER.SOLV>
4.0861

>  <SCORE.INTER.VDW>
-13.877

>  <SCORE.INTER.norm>
-1.33724

>  <SCORE.INTRA>
0

>  <SCORE.INTRA.DIHEDRAL>
0

>  <SCORE.INTRA.DIHEDRAL.0>
0

>  <SCORE.INTRA.POLAR>
0

>  <SCORE.INTRA.POLAR.0>
0

>  <SCORE.INTRA.REPUL>
0

>  <SCORE.INTRA.REPUL.0>
0

>  <SCORE.INTRA.SOLV>
0

>  <SCORE.INTRA.SOLV.lig_0>
-23.9151

>  <SCORE.INTRA.VDW>
0

>  <SCORE.INTRA.VDW.0>
0

>  <SCORE.INTRA.norm>
0

>  <SCORE.RESTR>
0

>  <SCORE.RESTR.CAVITY>
0

>  <SCORE.RESTR.norm>
0

>  <SCORE.SYSTEM>
0

>  <SCORE.SYSTEM.CONST>
0

>  <SCORE.SYSTEM.DIHEDRAL>
0

>  <SCORE.SYSTEM.SOLV>
0

>  <SCORE.SYSTEM.norm>
0

>  <SCORE.heavy>
10

>  <SCORE.norm>
-1.33724

>  <RMSD>
0.989

$$$$
ligand
 OpenBabel11021811503D
libRbt.so/2013.1/901 2013/11/27
 10 11  0  0  0  0  0  0  0  0999 V2000
    3.7602  -19.5299   26.1321 N   0  0  0  0  0  0  0  0  0  0  0  0
    3.0466  -19.0868   27.1692 C   0  0  0  0  0  0  0  0  0  0  0  0
    1.7587  -19.3056   27.4620 N   0  0  0  0  0  0  0  0  0  0  0  0
    1.1842  -20.0730   26.5161 C   0  0  0  0  0  0  0  0  0  0  0  0
    1.7878  -20.6028   25.3916 C   0  0  0  0  0  0  0  0  0  0  0  0
    3.1524  -20.3075   25.2019 C   0  0  0  0  0  0  0  0  0  0  0  0
    3.8572  -20.7500   24.1481 N   0  0  0  0  0  0  0  0  0  0  0  0
    0.8893  -21.3484   24.6505 N   0  0  0  0  0  0  0  0  0  0  0  0
   -0.2242  -21.2660   25.3296 C   0  0  0  0  0  0  0  0  0  0  0  0
   -0.1199  -20.5037   26.4627 N   0  0  0  0  0  0  0  0  0  0  0  0
  1  2  2  0  0  0  0
  1  6  1  0  0  0  0
  2  3  1  0  0  0  0
  3  4  2  0  0  0  0
  4  5  1  0  0  0  0
  4 10  1  0  0  0  0
  5  6  2  0  0  0  0
  5  8  1  0  0  0  0
  6  7  1  0  0  0  0
  8  9  1  0  0  0  0
  9 10  2  0  0  0  0
M  END
>  <CHROM.1>
1.91843082,-20.27813927,25.84060687,0.14184991,0.25396808,1.00635916

>  <Name>
ligand

>  <RI>
0

>  <Rbt.Current_Directory>
/home/itssahil/PROJECTS/Mol_Feturizer/New_Systems/rnas/4LW0

>  <Rbt.Executable>
rbdock ($Id: //depot/dev/client3/rdock/2013.1/src/exe/rbdock.cxx#4 $)

>  <Rbt.Library>
libRbt.so (2013.1, Build901 2013/11/27)

>  <Rbt.Parameter_File>
/export/apps/rDock/src/rDock_2013.1_src/data/scripts/dock_solv.prm

>  <Rbt.Receptor>
prm/pocket_docking_5.prm

>  <SCORE>
-13.3666

>  <SCORE.INTER>
-13.3666

>  <SCORE.INTER.CONST>
1

>  <SCORE.INTER.POLAR>
0

>  <SCORE.INTER.ROT>
0

>  <SCORE.INTER.SOLV>
4.10222

>  <SCORE.INTER.VDW>
-13.8785

>  <SCORE.INTER.norm>
-1.33666

>  <SCORE.INTRA>
0

>  <SCORE.INTRA.DIHEDRAL>
0

>  <SCORE.INTRA.DIHEDRAL.0>
0

>  <SCORE.INTRA.POLAR>
0

>  <SCORE.INTRA.POLAR.0>
0

>  <SCORE.INTRA.REPUL>
0

>  <SCORE.INTRA.REPUL.0>
0

>  <SCORE.INTRA.SOLV>
0

>  <SCORE.INTRA.SOLV.lig_0>
-23.9151

>  <SCORE.INTRA.VDW>
0

>  <SCORE.INTRA.VDW.0>
0

>  <SCORE.INTRA.norm>
0

>  <SCORE.RESTR>
0

>  <SCORE.RESTR.CAVITY>
0

>  <SCORE.RESTR.norm>
0

>  <SCORE.SYSTEM>
0

>  <SCORE.SYSTEM.CONST>
0

>  <SCORE.SYSTEM.DIHEDRAL>
0

>  <SCORE.SYSTEM.SOLV>
0

>  <SCORE.SYSTEM.norm>
0

>  <SCORE.heavy>
10

>  <SCORE.norm>
-1.33666

>  <RMSD>
0.989

$$$$
ligand
 OpenBabel11021811503D
libRbt.so/2013.1/901 2013/11/27
 10 11  0  0  0  0  0  0  0  0999 V2000
    3.7600  -19.5299   26.1326 N   0  0  0  0  0  0  0  0  0  0  0  0
    3.0450  -19.0867   27.1686 C   0  0  0  0  0  0  0  0  0  0  0  0
    1.7565  -19.3047   27.4591 N   0  0  0  0  0  0  0  0  0  0  0  0
    1.1830  -20.0713   26.5119 C   0  0  0  0  0  0  0  0  0  0  0  0
    1.7882  -20.6011   25.3882 C   0  0  0  0  0  0  0  0  0  0  0  0
    3.1534  -20.3067   25.2010 C   0  0  0  0  0  0  0  0  0  0  0  0
    3.8597  -20.7492   24.1482 N   0  0  0  0  0  0  0  0  0  0  0  0
    0.8904  -21.3457   24.6452 N   0  0  0  0  0  0  0  0  0  0  0  0
   -0.2242  -21.2628   25.3225 C   0  0  0  0  0  0  0  0  0  0  0  0
   -0.1213  -20.5010   26.4560 N   0  0  0  0  0  0  0  0  0  0  0  0
  1  2  2  0  0  0  0
  1  6  1  0  0  0  0
  2  3  1  0  0  0  0
  3  4  2  0  0  0  0
  4  5  1  0  0  0  0
  4 10  1  0  0  0  0
  5  6  2  0  0  0  0
  5  8  1  0  0  0  0
  6  7  1  0  0  0  0
  8  9  1  0  0  0  0
  9 10  2  0  0  0  0
M  END
>  <CHROM.1>
1.91828595,-20.27667365,25.83757538,0.14296194,0.25243069,1.00650020

>  <Name>
ligand

>  <RI>
0

>  <Rbt.Current_Directory>
/home/itssahil/PROJECTS/Mol_Feturizer/New_Systems/rnas/4LW0

>  <Rbt.Executable>
rbdock ($Id: //depot/dev/client3/rdock/2013.1/src/exe/rbdock.cxx#4 $)

>  <Rbt.Library>
libRbt.so (2013.1, Build901 2013/11/27)

>  <Rbt.Parameter_File>
/export/apps/rDock/src/rDock_2013.1_src/data/scripts/dock_solv.prm

>  <Rbt.Receptor>
prm/pocket_docking_3.prm

>  <SCORE>
-13.4014

>  <SCORE.INTER>
-13.4014

>  <SCORE.INTER.CONST>
1

>  <SCORE.INTER.POLAR>
0

>  <SCORE.INTER.ROT>
0

>  <SCORE.INTER.SOLV>
4.09481

>  <SCORE.INTER.VDW>
-13.8992

>  <SCORE.INTER.norm>
-1.34014

>  <SCORE.INTRA>
0

>  <SCORE.INTRA.DIHEDRAL>
0

>  <SCORE.INTRA.DIHEDRAL.0>
0

>  <SCORE.INTRA.POLAR>
0

>  <SCORE.INTRA.POLAR.0>
0

>  <SCORE.INTRA.REPUL>
0

>  <SCORE.INTRA.REPUL.0>
0

>  <SCORE.INTRA.SOLV>
0

>  <SCORE.INTRA.SOLV.lig_0>
-23.9151

>  <SCORE.INTRA.VDW>
0

>  <SCORE.INTRA.VDW.0>
0

>  <SCORE.INTRA.norm>
0

>  <SCORE.RESTR>
0

>  <SCORE.RESTR.CAVITY>
0

>  <SCORE.RESTR.norm>
0

>  <SCORE.SYSTEM>
0

>  <SCORE.SYSTEM.CONST>
0

>  <SCORE.SYSTEM.DIHEDRAL>
0

>  <SCORE.SYSTEM.SOLV>
0

>  <SCORE.SYSTEM.norm>
0

>  <SCORE.heavy>
10

>  <SCORE.norm>
-1.34014

>  <RMSD>
0.991

$$$$
ligand
 OpenBabel11021811503D
libRbt.so/2013.1/901 2013/11/27
 10 11  0  0  0  0  0  0  0  0999 V2000
    3.7629  -19.5333   26.1334 N   0  0  0  0  0  0  0  0  0  0  0  0
    3.0492  -19.0895   27.1700 C   0  0  0  0  0  0  0  0  0  0  0  0
    1.7596  -19.3030   27.4594 N   0  0  0  0  0  0  0  0  0  0  0  0
    1.1836  -20.0653   26.5103 C   0  0  0  0  0  0  0  0  0  0  0  0
    1.7872  -20.5951   25.3857 C   0  0  0  0  0  0  0  0  0  0  0  0
    3.1537  -20.3057   25.1999 C   0  0  0  0  0  0  0  0  0  0  0  0
    3.8587  -20.7489   24.1465 N   0  0  0  0  0  0  0  0  0  0  0  0
    0.8869  -21.3345   24.6408 N   0  0  0  0  0  0  0  0  0  0  0  0
   -0.2278  -21.2487   25.3176 C   0  0  0  0  0  0  0  0  0  0  0  0
   -0.1224  -20.4897   26.4528 N   0  0  0  0  0  0  0  0  0  0  0  0
  1  2  2  0  0  0  0
  1  6  1  0  0  0  0
  2  3  1  0  0  0  0
  3  4  2  0  0  0  0
  4  5  1  0  0  0  0
  4 10  1  0  0  0  0
  5  6  2  0  0  0  0
  5  8  1  0  0  0  0
  6  7  1  0  0  0  0
  8  9  1  0  0  0  0
  9 10  2  0  0  0  0
M  END
>  <CHROM.1>
1.91835640,-20.27218694,25.83589115,0.14121517,0.24879612,1.00905044

>  <Name>
ligand

>  <RI>
0

>  <Rbt.Current_Directory>
/home/itssahil/PROJECTS/Mol_Feturizer/New_Systems/rnas/4LW0

>  <Rbt.Executable>
rbdock ($Id: //depot/dev/client3/rdock/2013.1/src/exe/rbdock.cxx#4 $)

>  <Rbt.Library>
libRbt.so (2013.1, Build901 2013/11/27)

>  <Rbt.Parameter_File>
/export/apps/rDock/src/rDock_2013.1_src/data/scripts/dock_solv.prm

>  <Rbt.Receptor>
prm/pocket_docking_8.prm

>  <SCORE>
-13.3995

>  <SCORE.INTER>
-13.3995

>  <SCORE.INTER.CONST>
1

>  <SCORE.INTER.POLAR>
0

>  <SCORE.INTER.ROT>
0

>  <SCORE.INTER.SOLV>
4.10372

>  <SCORE.INTER.VDW>
-13.9009

>  <SCORE.INTER.norm>
-1.33995

>  <SCORE.INTRA>
0

>  <SCORE.INTRA.DIHEDRAL>
0

>  <SCORE.INTRA.DIHEDRAL.0>
0

>  <SCORE.INTRA.POLAR>
0

>  <SCORE.INTRA.POLAR.0>
0

>  <SCORE.INTRA.REPUL>
0

>  <SCORE.INTRA.REPUL.0>
0

>  <SCORE.INTRA.SOLV>
0

>  <SCORE.INTRA.SOLV.lig_0>
-23.9151

>  <SCORE.INTRA.VDW>
0

>  <SCORE.INTRA.VDW.0>
0

>  <SCORE.INTRA.norm>
0

>  <SCORE.RESTR>
0

>  <SCORE.RESTR.CAVITY>
0

>  <SCORE.RESTR.norm>
0

>  <SCORE.SYSTEM>
0

>  <SCORE.SYSTEM.CONST>
0

>  <SCORE.SYSTEM.DIHEDRAL>
0

>  <SCORE.SYSTEM.SOLV>
0

>  <SCORE.SYSTEM.norm>
0

>  <SCORE.heavy>
10

>  <SCORE.norm>
-1.33995

>  <RMSD>
0.991

$$$$
ligand
 OpenBabel11021811503D
libRbt.so/2013.1/901 2013/11/27
 10 11  0  0  0  0  0  0  0  0999 V2000
    3.7800  -19.4627   26.1088 N   0  0  0  0  0  0  0  0  0  0  0  0
    3.0634  -19.0382   27.1517 C   0  0  0  0  0  0  0  0  0  0  0  0
    1.7819  -19.2843   27.4508 N   0  0  0  0  0  0  0  0  0  0  0  0
    1.2179  -20.0598   26.5052 C   0  0  0  0  0  0  0  0  0  0  0  0
    1.8258  -20.5729   25.3752 C   0  0  0  0  0  0  0  0  0  0  0  0
    3.1830  -20.2491   25.1791 C   0  0  0  0  0  0  0  0  0  0  0  0
    3.8906  -20.6731   24.1196 N   0  0  0  0  0  0  0  0  0  0  0  0
    0.9384  -21.3339   24.6363 N   0  0  0  0  0  0  0  0  0  0  0  0
   -0.1726  -21.2769   25.3220 C   0  0  0  0  0  0  0  0  0  0  0  0
   -0.0775  -20.5168   26.4574 N   0  0  0  0  0  0  0  0  0  0  0  0
  1  2  2  0  0  0  0
  1  6  1  0  0  0  0
  2  3  1  0  0  0  0
  3  4  2  0  0  0  0
  4  5  1  0  0  0  0
  4 10  1  0  0  0  0
  5  6  2  0  0  0  0
  5  8  1  0  0  0  0
  6  7  1  0  0  0  0
  8  9  1  0  0  0  0
  9 10  2  0  0  0  0
M  END
>  <CHROM.1>
1.95226161,-20.24731849,25.82478347,0.14820439,0.27425309,1.00851673

>  <Name>
ligand

>  <RI>
0

>  <Rbt.Current_Directory>
/home/itssahil/PROJECTS/Mol_Feturizer/New_Systems/rnas/4LW0

>  <Rbt.Executable>
rbdock ($Id: //depot/dev/client3/rdock/2013.1/src/exe/rbdock.cxx#4 $)

>  <Rbt.Library>
libRbt.so (2013.1, Build901 2013/11/27)

>  <Rbt.Parameter_File>
/export/apps/rDock/src/rDock_2013.1_src/data/scripts/dock_solv.prm

>  <Rbt.Receptor>
prm/pocket_docking_3.prm

>  <SCORE>
-13.3709

>  <SCORE.INTER>
-13.3709

>  <SCORE.INTER.CONST>
1

>  <SCORE.INTER.POLAR>
0

>  <SCORE.INTER.ROT>
0

>  <SCORE.INTER.SOLV>
3.98701

>  <SCORE.INTER.VDW>
-13.843

>  <SCORE.INTER.norm>
-1.33709

>  <SCORE.INTRA>
0

>  <SCORE.INTRA.DIHEDRAL>
0

>  <SCORE.INTRA.DIHEDRAL.0>
0

>  <SCORE.INTRA.POLAR>
0

>  <SCORE.INTRA.POLAR.0>
0

>  <SCORE.INTRA.REPUL>
0

>  <SCORE.INTRA.REPUL.0>
0

>  <SCORE.INTRA.SOLV>
0

>  <SCORE.INTRA.SOLV.lig_0>
-23.9151

>  <SCORE.INTRA.VDW>
0

>  <SCORE.INTRA.VDW.0>
0

>  <SCORE.INTRA.norm>
0

>  <SCORE.RESTR>
0

>  <SCORE.RESTR.CAVITY>
0

>  <SCORE.RESTR.norm>
0

>  <SCORE.SYSTEM>
0

>  <SCORE.SYSTEM.CONST>
0

>  <SCORE.SYSTEM.DIHEDRAL>
0

>  <SCORE.SYSTEM.SOLV>
0

>  <SCORE.SYSTEM.norm>
0

>  <SCORE.heavy>
10

>  <SCORE.norm>
-1.33709

>  <RMSD>
0.993

$$$$
ligand
 OpenBabel11021811503D
libRbt.so/2013.1/901 2013/11/27
 10 11  0  0  0  0  0  0  0  0999 V2000
    3.7534  -19.5314   26.1318 N   0  0  0  0  0  0  0  0  0  0  0  0
    3.0368  -19.0843   27.1651 C   0  0  0  0  0  0  0  0  0  0  0  0
    1.7482  -19.3022   27.4552 N   0  0  0  0  0  0  0  0  0  0  0  0
    1.1765  -20.0735   26.5108 C   0  0  0  0  0  0  0  0  0  0  0  0
    1.7833  -20.6078   25.3901 C   0  0  0  0  0  0  0  0  0  0  0  0
    3.1484  -20.3129   25.2031 C   0  0  0  0  0  0  0  0  0  0  0  0
    3.8562  -20.7595   24.1530 N   0  0  0  0  0  0  0  0  0  0  0  0
    0.8870  -21.3565   24.6496 N   0  0  0  0  0  0  0  0  0  0  0  0
   -0.2284  -21.2717   25.3252 C   0  0  0  0  0  0  0  0  0  0  0  0
   -0.1274  -20.5048   26.4555 N   0  0  0  0  0  0  0  0  0  0  0  0
  1  2  2  0  0  0  0
  1  6  1  0  0  0  0
  2  3  1  0  0  0  0
  3  4  2  0  0  0  0
  4  5  1  0  0  0  0
  4 10  1  0  0  0  0
  5  6  2  0  0  0  0
  5  8  1  0  0  0  0
  6  7  1  0  0  0  0
  8  9  1  0  0  0  0
  9 10  2  0  0  0  0
M  END
>  <CHROM.1>
1.91261012,-20.28125871,25.83820439,0.14440319,0.25265067,1.00168378

>  <Name>
ligand

>  <RI>
0

>  <Rbt.Current_Directory>
/home/itssahil/PROJECTS/Mol_Feturizer/New_Systems/rnas/4LW0

>  <Rbt.Executable>
rbdock ($Id: //depot/dev/client3/rdock/2013.1/src/exe/rbdock.cxx#4 $)

>  <Rbt.Library>
libRbt.so (2013.1, Build901 2013/11/27)

>  <Rbt.Parameter_File>
/export/apps/rDock/src/rDock_2013.1_src/data/scripts/dock_solv.prm

>  <Rbt.Receptor>
prm/pocket_docking_3.prm

>  <SCORE>
-13.398

>  <SCORE.INTER>
-13.398

>  <SCORE.INTER.CONST>
1

>  <SCORE.INTER.POLAR>
0

>  <SCORE.INTER.ROT>
0

>  <SCORE.INTER.SOLV>
4.10501

>  <SCORE.INTER.VDW>
-13.9003

>  <SCORE.INTER.norm>
-1.3398

>  <SCORE.INTRA>
0

>  <SCORE.INTRA.DIHEDRAL>
0

>  <SCORE.INTRA.DIHEDRAL.0>
0

>  <SCORE.INTRA.POLAR>
0

>  <SCORE.INTRA.POLAR.0>
0

>  <SCORE.INTRA.REPUL>
0

>  <SCORE.INTRA.REPUL.0>
0

>  <SCORE.INTRA.SOLV>
0

>  <SCORE.INTRA.SOLV.lig_0>
-23.9151

>  <SCORE.INTRA.VDW>
0

>  <SCORE.INTRA.VDW.0>
0

>  <SCORE.INTRA.norm>
0

>  <SCORE.RESTR>
0

>  <SCORE.RESTR.CAVITY>
0

>  <SCORE.RESTR.norm>
0

>  <SCORE.SYSTEM>
0

>  <SCORE.SYSTEM.CONST>
0

>  <SCORE.SYSTEM.DIHEDRAL>
0

>  <SCORE.SYSTEM.SOLV>
0

>  <SCORE.SYSTEM.norm>
0

>  <SCORE.heavy>
10

>  <SCORE.norm>
-1.3398

>  <RMSD>
0.993

$$$$
ligand
 OpenBabel11021811503D
libRbt.so/2013.1/901 2013/11/27
 10 11  0  0  0  0  0  0  0  0999 V2000
    3.7645  -19.5217   26.1323 N   0  0  0  0  0  0  0  0  0  0  0  0
    3.0494  -19.0844   27.1708 C   0  0  0  0  0  0  0  0  0  0  0  0
    1.7613  -19.3056   27.4610 N   0  0  0  0  0  0  0  0  0  0  0  0
    1.1885  -20.0687   26.5106 C   0  0  0  0  0  0  0  0  0  0  0  0
    1.7939  -20.5925   25.3841 C   0  0  0  0  0  0  0  0  0  0  0  0
    3.1585  -20.2952   25.1975 C   0  0  0  0  0  0  0  0  0  0  0  0
    3.8648  -20.7318   24.1424 N   0  0  0  0  0  0  0  0  0  0  0  0
    0.8967  -21.3350   24.6383 N   0  0  0  0  0  0  0  0  0  0  0  0
   -0.2176  -21.2569   25.3165 C   0  0  0  0  0  0  0  0  0  0  0  0
   -0.1152  -20.5001   26.4535 N   0  0  0  0  0  0  0  0  0  0  0  0
  1  2  2  0  0  0  0
  1  6  1  0  0  0  0
  2  3  1  0  0  0  0
  3  4  2  0  0  0  0
  4  5  1  0  0  0  0
  4 10  1  0  0  0  0
  5  6  2  0  0  0  0
  5  8  1  0  0  0  0
  6  7  1  0  0  0  0
  8  9  1  0  0  0  0
  9 10  2  0  0  0  0
M  END
>  <CHROM.1>
1.92368282,-20.26993064,25.83493374,0.14330461,0.25398269,1.01098122

>  <Name>
ligand

>  <RI>
0

>  <Rbt.Current_Directory>
/home/itssahil/PROJECTS/Mol_Feturizer/New_Systems/rnas/4LW0

>  <Rbt.Executable>
rbdock ($Id: //depot/dev/client3/rdock/2013.1/src/exe/rbdock.cxx#4 $)

>  <Rbt.Library>
libRbt.so (2013.1, Build901 2013/11/27)

>  <Rbt.Parameter_File>
/export/apps/rDock/src/rDock_2013.1_src/data/scripts/dock_solv.prm

>  <Rbt.Receptor>
prm/pocket_docking_4.prm

>  <SCORE>
-13.3994

>  <SCORE.INTER>
-13.3994

>  <SCORE.INTER.CONST>
1

>  <SCORE.INTER.POLAR>
0

>  <SCORE.INTER.ROT>
0

>  <SCORE.INTER.SOLV>
4.078

>  <SCORE.INTER.VDW>
-13.8922

>  <SCORE.INTER.norm>
-1.33994

>  <SCORE.INTRA>
0

>  <SCORE.INTRA.DIHEDRAL>
0

>  <SCORE.INTRA.DIHEDRAL.0>
0

>  <SCORE.INTRA.POLAR>
0

>  <SCORE.INTRA.POLAR.0>
0

>  <SCORE.INTRA.REPUL>
0

>  <SCORE.INTRA.REPUL.0>
0

>  <SCORE.INTRA.SOLV>
0

>  <SCORE.INTRA.SOLV.lig_0>
-23.9151

>  <SCORE.INTRA.VDW>
0

>  <SCORE.INTRA.VDW.0>
0

>  <SCORE.INTRA.norm>
0

>  <SCORE.RESTR>
0

>  <SCORE.RESTR.CAVITY>
0

>  <SCORE.RESTR.norm>
0

>  <SCORE.SYSTEM>
0

>  <SCORE.SYSTEM.CONST>
0

>  <SCORE.SYSTEM.DIHEDRAL>
0

>  <SCORE.SYSTEM.SOLV>
0

>  <SCORE.SYSTEM.norm>
0

>  <SCORE.heavy>
10

>  <SCORE.norm>
-1.33994

>  <RMSD>
0.993

$$$$
ligand
 OpenBabel11021811503D
libRbt.so/2013.1/901 2013/11/27
 10 11  0  0  0  0  0  0  0  0999 V2000
    3.7587  -19.5332   26.1339 N   0  0  0  0  0  0  0  0  0  0  0  0
    3.0427  -19.0895   27.1690 C   0  0  0  0  0  0  0  0  0  0  0  0
    1.7533  -19.3058   27.4573 N   0  0  0  0  0  0  0  0  0  0  0  0
    1.1804  -20.0712   26.5088 C   0  0  0  0  0  0  0  0  0  0  0  0
    1.7867  -20.6014   25.3858 C   0  0  0  0  0  0  0  0  0  0  0  0
    3.1525  -20.3087   25.2010 C   0  0  0  0  0  0  0  0  0  0  0  0
    3.8599  -20.7518   24.1492 N   0  0  0  0  0  0  0  0  0  0  0  0
    0.8891  -21.3444   24.6411 N   0  0  0  0  0  0  0  0  0  0  0  0
   -0.2265  -21.2603   25.3166 C   0  0  0  0  0  0  0  0  0  0  0  0
   -0.1244  -20.4992   26.4506 N   0  0  0  0  0  0  0  0  0  0  0  0
  1  2  2  0  0  0  0
  1  6  1  0  0  0  0
  2  3  1  0  0  0  0
  3  4  2  0  0  0  0
  4  5  1  0  0  0  0
  4 10  1  0  0  0  0
  5  6  2  0  0  0  0
  5  8  1  0  0  0  0
  6  7  1  0  0  0  0
  8  9  1  0  0  0  0
  9 10  2  0  0  0  0
M  END
>  <CHROM.1>
1.91645252,-20.27733895,25.83558479,0.14362706,0.25040017,1.00676550

>  <Name>
ligand

>  <RI>
0

>  <Rbt.Current_Directory>
/home/itssahil/PROJECTS/Mol_Feturizer/New_Systems/rnas/4LW0

>  <Rbt.Executable>
rbdock ($Id: //depot/dev/client3/rdock/2013.1/src/exe/rbdock.cxx#4 $)

>  <Rbt.Library>
libRbt.so (2013.1, Build901 2013/11/27)

>  <Rbt.Parameter_File>
/export/apps/rDock/src/rDock_2013.1_src/data/scripts/dock_solv.prm

>  <Rbt.Receptor>
prm/pocket_docking_6.prm

>  <SCORE>
-13.3971

>  <SCORE.INTER>
-13.3971

>  <SCORE.INTER.CONST>
1

>  <SCORE.INTER.POLAR>
0

>  <SCORE.INTER.ROT>
0

>  <SCORE.INTER.SOLV>
4.09484

>  <SCORE.INTER.VDW>
-13.8964

>  <SCORE.INTER.norm>
-1.33971

>  <SCORE.INTRA>
0

>  <SCORE.INTRA.DIHEDRAL>
0

>  <SCORE.INTRA.DIHEDRAL.0>
0

>  <SCORE.INTRA.POLAR>
0

>  <SCORE.INTRA.POLAR.0>
0

>  <SCORE.INTRA.REPUL>
0

>  <SCORE.INTRA.REPUL.0>
0

>  <SCORE.INTRA.SOLV>
0

>  <SCORE.INTRA.SOLV.lig_0>
-23.9151

>  <SCORE.INTRA.VDW>
0

>  <SCORE.INTRA.VDW.0>
0

>  <SCORE.INTRA.norm>
0

>  <SCORE.RESTR>
0

>  <SCORE.RESTR.CAVITY>
0

>  <SCORE.RESTR.norm>
0

>  <SCORE.SYSTEM>
0

>  <SCORE.SYSTEM.CONST>
0

>  <SCORE.SYSTEM.DIHEDRAL>
0

>  <SCORE.SYSTEM.SOLV>
0

>  <SCORE.SYSTEM.norm>
0

>  <SCORE.heavy>
10

>  <SCORE.norm>
-1.33971

>  <RMSD>
0.993

$$$$
ligand
 OpenBabel11021811503D
libRbt.so/2013.1/901 2013/11/27
 10 11  0  0  0  0  0  0  0  0999 V2000
    3.7598  -19.5246   26.1303 N   0  0  0  0  0  0  0  0  0  0  0  0
    3.0427  -19.0871   27.1672 C   0  0  0  0  0  0  0  0  0  0  0  0
    1.7548  -19.3107   27.4565 N   0  0  0  0  0  0  0  0  0  0  0  0
    1.1847  -20.0767   26.5068 C   0  0  0  0  0  0  0  0  0  0  0  0
    1.7924  -20.6010   25.3819 C   0  0  0  0  0  0  0  0  0  0  0  0
    3.1565  -20.3010   25.1962 C   0  0  0  0  0  0  0  0  0  0  0  0
    3.8650  -20.7379   24.1425 N   0  0  0  0  0  0  0  0  0  0  0  0
    0.8977  -21.3468   24.6364 N   0  0  0  0  0  0  0  0  0  0  0  0
   -0.2175  -21.2700   25.3133 C   0  0  0  0  0  0  0  0  0  0  0  0
   -0.1180  -20.5111   26.4491 N   0  0  0  0  0  0  0  0  0  0  0  0
  1  2  2  0  0  0  0
  1  6  1  0  0  0  0
  2  3  1  0  0  0  0
  3  4  2  0  0  0  0
  4  5  1  0  0  0  0
  4 10  1  0  0  0  0
  5  6  2  0  0  0  0
  5  8  1  0  0  0  0
  6  7  1  0  0  0  0
  8  9  1  0  0  0  0
  9 10  2  0  0  0  0
M  END
>  <CHROM.1>
1.92102621,-20.27741246,25.83224022,0.14543742,0.25532724,1.00873816

>  <Name>
ligand

>  <RI>
0

>  <Rbt.Current_Directory>
/home/itssahil/PROJECTS/Mol_Feturizer/New_Systems/rnas/4LW0

>  <Rbt.Executable>
rbdock ($Id: //depot/dev/client3/rdock/2013.1/src/exe/rbdock.cxx#4 $)

>  <Rbt.Library>
libRbt.so (2013.1, Build901 2013/11/27)

>  <Rbt.Parameter_File>
/export/apps/rDock/src/rDock_2013.1_src/data/scripts/dock_solv.prm

>  <Rbt.Receptor>
prm/pocket_docking_6.prm

>  <SCORE>
-13.395

>  <SCORE.INTER>
-13.395

>  <SCORE.INTER.CONST>
1

>  <SCORE.INTER.POLAR>
0

>  <SCORE.INTER.ROT>
0

>  <SCORE.INTER.SOLV>
4.07819

>  <SCORE.INTER.VDW>
-13.8894

>  <SCORE.INTER.norm>
-1.3395

>  <SCORE.INTRA>
0

>  <SCORE.INTRA.DIHEDRAL>
0

>  <SCORE.INTRA.DIHEDRAL.0>
0

>  <SCORE.INTRA.POLAR>
0

>  <SCORE.INTRA.POLAR.0>
0

>  <SCORE.INTRA.REPUL>
0

>  <SCORE.INTRA.REPUL.0>
0

>  <SCORE.INTRA.SOLV>
0

>  <SCORE.INTRA.SOLV.lig_0>
-23.9151

>  <SCORE.INTRA.VDW>
0

>  <SCORE.INTRA.VDW.0>
0

>  <SCORE.INTRA.norm>
0

>  <SCORE.RESTR>
0

>  <SCORE.RESTR.CAVITY>
0

>  <SCORE.RESTR.norm>
0

>  <SCORE.SYSTEM>
0

>  <SCORE.SYSTEM.CONST>
0

>  <SCORE.SYSTEM.DIHEDRAL>
0

>  <SCORE.SYSTEM.SOLV>
0

>  <SCORE.SYSTEM.norm>
0

>  <SCORE.heavy>
10

>  <SCORE.norm>
-1.3395

>  <RMSD>
0.993

$$$$
ligand
 OpenBabel11021811503D
libRbt.so/2013.1/901 2013/11/27
 10 11  0  0  0  0  0  0  0  0999 V2000
    3.7376  -19.4631   26.1103 N   0  0  0  0  0  0  0  0  0  0  0  0
    3.0310  -19.0639   27.1698 C   0  0  0  0  0  0  0  0  0  0  0  0
    1.7555  -19.3263   27.4804 N   0  0  0  0  0  0  0  0  0  0  0  0
    1.1857  -20.0889   26.5278 C   0  0  0  0  0  0  0  0  0  0  0  0
    1.7834  -20.5760   25.3809 C   0  0  0  0  0  0  0  0  0  0  0  0
    3.1353  -20.2372   25.1737 C   0  0  0  0  0  0  0  0  0  0  0  0
    3.8328  -20.6356   24.0978 N   0  0  0  0  0  0  0  0  0  0  0  0
    0.8929  -21.3306   24.6392 N   0  0  0  0  0  0  0  0  0  0  0  0
   -0.2097  -21.2956   25.3398 C   0  0  0  0  0  0  0  0  0  0  0  0
   -0.1063  -20.5559   26.4878 N   0  0  0  0  0  0  0  0  0  0  0  0
  1  2  2  0  0  0  0
  1  6  1  0  0  0  0
  2  3  1  0  0  0  0
  3  4  2  0  0  0  0
  4  5  1  0  0  0  0
  4 10  1  0  0  0  0
  5  6  2  0  0  0  0
  5  8  1  0  0  0  0
  6  7  1  0  0  0  0
  8  9  1  0  0  0  0
  9 10  2  0  0  0  0
M  END
>  <CHROM.1>
1.91292028,-20.25768377,25.83479724,0.14150406,0.28794965,1.02888297

>  <Name>
ligand

>  <RI>
0

>  <Rbt.Current_Directory>
/home/itssahil/PROJECTS/Mol_Feturizer/New_Systems/rnas/4LW0

>  <Rbt.Executable>
rbdock ($Id: //depot/dev/client3/rdock/2013.1/src/exe/rbdock.cxx#4 $)

>  <Rbt.Library>
libRbt.so (2013.1, Build901 2013/11/27)

>  <Rbt.Parameter_File>
/export/apps/rDock/src/rDock_2013.1_src/data/scripts/dock_solv.prm

>  <Rbt.Receptor>
prm/pocket_docking_8.prm

>  <SCORE>
-13.327

>  <SCORE.INTER>
-13.327

>  <SCORE.INTER.CONST>
1

>  <SCORE.INTER.POLAR>
0

>  <SCORE.INTER.ROT>
0

>  <SCORE.INTER.SOLV>
4.21349

>  <SCORE.INTER.VDW>
-13.8892

>  <SCORE.INTER.norm>
-1.3327

>  <SCORE.INTRA>
0

>  <SCORE.INTRA.DIHEDRAL>
0

>  <SCORE.INTRA.DIHEDRAL.0>
0

>  <SCORE.INTRA.POLAR>
0

>  <SCORE.INTRA.POLAR.0>
0

>  <SCORE.INTRA.REPUL>
0

>  <SCORE.INTRA.REPUL.0>
0

>  <SCORE.INTRA.SOLV>
0

>  <SCORE.INTRA.SOLV.lig_0>
-23.9151

>  <SCORE.INTRA.VDW>
0

>  <SCORE.INTRA.VDW.0>
0

>  <SCORE.INTRA.norm>
0

>  <SCORE.RESTR>
0

>  <SCORE.RESTR.CAVITY>
0

>  <SCORE.RESTR.norm>
0

>  <SCORE.SYSTEM>
0

>  <SCORE.SYSTEM.CONST>
0

>  <SCORE.SYSTEM.DIHEDRAL>
0

>  <SCORE.SYSTEM.SOLV>
0

>  <SCORE.SYSTEM.norm>
0

>  <SCORE.heavy>
10

>  <SCORE.norm>
-1.3327

>  <RMSD>
0.993

$$$$
ligand
 OpenBabel11021811503D
libRbt.so/2013.1/901 2013/11/27
 10 11  0  0  0  0  0  0  0  0999 V2000
    3.7693  -19.5221   26.1319 N   0  0  0  0  0  0  0  0  0  0  0  0
    3.0537  -19.0884   27.1715 C   0  0  0  0  0  0  0  0  0  0  0  0
    1.7649  -19.3089   27.4591 N   0  0  0  0  0  0  0  0  0  0  0  0
    1.1920  -20.0668   26.5046 C   0  0  0  0  0  0  0  0  0  0  0  0
    1.7979  -20.5863   25.3764 C   0  0  0  0  0  0  0  0  0  0  0  0
    3.1632  -20.2903   25.1928 C   0  0  0  0  0  0  0  0  0  0  0  0
    3.8701  -20.7232   24.1365 N   0  0  0  0  0  0  0  0  0  0  0  0
    0.9005  -21.3239   24.6261 N   0  0  0  0  0  0  0  0  0  0  0  0
   -0.2145  -21.2472   25.3033 C   0  0  0  0  0  0  0  0  0  0  0  0
   -0.1123  -20.4959   26.4439 N   0  0  0  0  0  0  0  0  0  0  0  0
  1  2  2  0  0  0  0
  1  6  1  0  0  0  0
  2  3  1  0  0  0  0
  3  4  2  0  0  0  0
  4  5  1  0  0  0  0
  4 10  1  0  0  0  0
  5  6  2  0  0  0  0
  5  8  1  0  0  0  0
  6  7  1  0  0  0  0
  8  9  1  0  0  0  0
  9 10  2  0  0  0  0
M  END
>  <CHROM.1>
1.92769272,-20.26604161,25.82884425,0.14348874,0.25200542,1.01553586

>  <Name>
ligand

>  <RI>
0

>  <Rbt.Current_Directory>
/home/itssahil/PROJECTS/Mol_Feturizer/New_Systems/rnas/4LW0

>  <Rbt.Executable>
rbdock ($Id: //depot/dev/client3/rdock/2013.1/src/exe/rbdock.cxx#4 $)

>  <Rbt.Library>
libRbt.so (2013.1, Build901 2013/11/27)

>  <Rbt.Parameter_File>
/export/apps/rDock/src/rDock_2013.1_src/data/scripts/dock_solv.prm

>  <Rbt.Receptor>
prm/pocket_docking_8.prm

>  <SCORE>
-13.3952

>  <SCORE.INTER>
-13.3952

>  <SCORE.INTER.CONST>
1

>  <SCORE.INTER.POLAR>
0

>  <SCORE.INTER.ROT>
0

>  <SCORE.INTER.SOLV>
4.06493

>  <SCORE.INTER.VDW>
-13.8851

>  <SCORE.INTER.norm>
-1.33952

>  <SCORE.INTRA>
0

>  <SCORE.INTRA.DIHEDRAL>
0

>  <SCORE.INTRA.DIHEDRAL.0>
0

>  <SCORE.INTRA.POLAR>
0

>  <SCORE.INTRA.POLAR.0>
0

>  <SCORE.INTRA.REPUL>
0

>  <SCORE.INTRA.REPUL.0>
0

>  <SCORE.INTRA.SOLV>
0

>  <SCORE.INTRA.SOLV.lig_0>
-23.9151

>  <SCORE.INTRA.VDW>
0

>  <SCORE.INTRA.VDW.0>
0

>  <SCORE.INTRA.norm>
0

>  <SCORE.RESTR>
0

>  <SCORE.RESTR.CAVITY>
0

>  <SCORE.RESTR.norm>
0

>  <SCORE.SYSTEM>
0

>  <SCORE.SYSTEM.CONST>
0

>  <SCORE.SYSTEM.DIHEDRAL>
0

>  <SCORE.SYSTEM.SOLV>
0

>  <SCORE.SYSTEM.norm>
0

>  <SCORE.heavy>
10

>  <SCORE.norm>
-1.33952

>  <RMSD>
0.994

$$$$
ligand
 OpenBabel11021811503D
libRbt.so/2013.1/901 2013/11/27
 10 11  0  0  0  0  0  0  0  0999 V2000
    3.7661  -19.5189   26.1306 N   0  0  0  0  0  0  0  0  0  0  0  0
    3.0475  -19.0888   27.1696 C   0  0  0  0  0  0  0  0  0  0  0  0
    1.7597  -19.3161   27.4565 N   0  0  0  0  0  0  0  0  0  0  0  0
    1.1915  -20.0772   26.5017 C   0  0  0  0  0  0  0  0  0  0  0  0
    1.8009  -20.5937   25.3741 C   0  0  0  0  0  0  0  0  0  0  0  0
    3.1647  -20.2905   25.1913 C   0  0  0  0  0  0  0  0  0  0  0  0
    3.8746  -20.7200   24.1356 N   0  0  0  0  0  0  0  0  0  0  0  0
    0.9079  -21.3364   24.6234 N   0  0  0  0  0  0  0  0  0  0  0  0
   -0.2079  -21.2654   25.2999 C   0  0  0  0  0  0  0  0  0  0  0  0
   -0.1104  -20.5132   26.4403 N   0  0  0  0  0  0  0  0  0  0  0  0
  1  2  2  0  0  0  0
  1  6  1  0  0  0  0
  2  3  1  0  0  0  0
  3  4  2  0  0  0  0
  4  5  1  0  0  0  0
  4 10  1  0  0  0  0
  5  6  2  0  0  0  0
  5  8  1  0  0  0  0
  6  7  1  0  0  0  0
  8  9  1  0  0  0  0
  9 10  2  0  0  0  0
M  END
>  <CHROM.1>
1.92868851,-20.27270556,25.82654422,0.14696346,0.25618564,1.01441688

>  <Name>
ligand

>  <RI>
0

>  <Rbt.Current_Directory>
/home/itssahil/PROJECTS/Mol_Feturizer/New_Systems/rnas/4LW0

>  <Rbt.Executable>
rbdock ($Id: //depot/dev/client3/rdock/2013.1/src/exe/rbdock.cxx#4 $)

>  <Rbt.Library>
libRbt.so (2013.1, Build901 2013/11/27)

>  <Rbt.Parameter_File>
/export/apps/rDock/src/rDock_2013.1_src/data/scripts/dock_solv.prm

>  <Rbt.Receptor>
prm/pocket_docking_8.prm

>  <SCORE>
-13.3912

>  <SCORE.INTER>
-13.3912

>  <SCORE.INTER.CONST>
1

>  <SCORE.INTER.POLAR>
0

>  <SCORE.INTER.ROT>
0

>  <SCORE.INTER.SOLV>
4.0445

>  <SCORE.INTER.VDW>
-13.8757

>  <SCORE.INTER.norm>
-1.33912

>  <SCORE.INTRA>
0

>  <SCORE.INTRA.DIHEDRAL>
0

>  <SCORE.INTRA.DIHEDRAL.0>
0

>  <SCORE.INTRA.POLAR>
0

>  <SCORE.INTRA.POLAR.0>
0

>  <SCORE.INTRA.REPUL>
0

>  <SCORE.INTRA.REPUL.0>
0

>  <SCORE.INTRA.SOLV>
0

>  <SCORE.INTRA.SOLV.lig_0>
-23.9151

>  <SCORE.INTRA.VDW>
0

>  <SCORE.INTRA.VDW.0>
0

>  <SCORE.INTRA.norm>
0

>  <SCORE.RESTR>
0

>  <SCORE.RESTR.CAVITY>
0

>  <SCORE.RESTR.norm>
0

>  <SCORE.SYSTEM>
0

>  <SCORE.SYSTEM.CONST>
0

>  <SCORE.SYSTEM.DIHEDRAL>
0

>  <SCORE.SYSTEM.SOLV>
0

>  <SCORE.SYSTEM.norm>
0

>  <SCORE.heavy>
10

>  <SCORE.norm>
-1.33912

>  <RMSD>
0.995

$$$$
ligand
 OpenBabel11021811503D
libRbt.so/2013.1/901 2013/11/27
 10 11  0  0  0  0  0  0  0  0999 V2000
    3.7668  -19.5097   26.1311 N   0  0  0  0  0  0  0  0  0  0  0  0
    3.0507  -19.0794   27.1718 C   0  0  0  0  0  0  0  0  0  0  0  0
    1.7637  -19.3069   27.4619 N   0  0  0  0  0  0  0  0  0  0  0  0
    1.1932  -20.0683   26.5087 C   0  0  0  0  0  0  0  0  0  0  0  0
    1.7999  -20.5850   25.3797 C   0  0  0  0  0  0  0  0  0  0  0  0
    3.1632  -20.2816   25.1935 C   0  0  0  0  0  0  0  0  0  0  0  0
    3.8706  -20.7112   24.1361 N   0  0  0  0  0  0  0  0  0  0  0  0
    0.9052  -21.3280   24.6314 N   0  0  0  0  0  0  0  0  0  0  0  0
   -0.2090  -21.2571   25.3106 C   0  0  0  0  0  0  0  0  0  0  0  0
   -0.1088  -20.5046   26.4506 N   0  0  0  0  0  0  0  0  0  0  0  0
  1  2  2  0  0  0  0
  1  6  1  0  0  0  0
  2  3  1  0  0  0  0
  3  4  2  0  0  0  0
  4  5  1  0  0  0  0
  4 10  1  0  0  0  0
  5  6  2  0  0  0  0
  5  8  1  0  0  0  0
  6  7  1  0  0  0  0
  8  9  1  0  0  0  0
  9 10  2  0  0  0  0
M  END
>  <CHROM.1>
1.92876512,-20.26386240,25.83176670,0.14489050,0.25764576,1.01470371

>  <Name>
ligand

>  <RI>
0

>  <Rbt.Current_Directory>
/home/itssahil/PROJECTS/Mol_Feturizer/New_Systems/rnas/4LW0

>  <Rbt.Executable>
rbdock ($Id: //depot/dev/client3/rdock/2013.1/src/exe/rbdock.cxx#4 $)

>  <Rbt.Library>
libRbt.so (2013.1, Build901 2013/11/27)

>  <Rbt.Parameter_File>
/export/apps/rDock/src/rDock_2013.1_src/data/scripts/dock_solv.prm

>  <Rbt.Receptor>
prm/pocket_docking_8.prm

>  <SCORE>
-13.3952

>  <SCORE.INTER>
-13.3952

>  <SCORE.INTER.CONST>
1

>  <SCORE.INTER.POLAR>
0

>  <SCORE.INTER.ROT>
0

>  <SCORE.INTER.SOLV>
4.05725

>  <SCORE.INTER.VDW>
-13.8826

>  <SCORE.INTER.norm>
-1.33952

>  <SCORE.INTRA>
0

>  <SCORE.INTRA.DIHEDRAL>
0

>  <SCORE.INTRA.DIHEDRAL.0>
0

>  <SCORE.INTRA.POLAR>
0

>  <SCORE.INTRA.POLAR.0>
0

>  <SCORE.INTRA.REPUL>
0

>  <SCORE.INTRA.REPUL.0>
0

>  <SCORE.INTRA.SOLV>
0

>  <SCORE.INTRA.SOLV.lig_0>
-23.9151

>  <SCORE.INTRA.VDW>
0

>  <SCORE.INTRA.VDW.0>
0

>  <SCORE.INTRA.norm>
0

>  <SCORE.RESTR>
0

>  <SCORE.RESTR.CAVITY>
0

>  <SCORE.RESTR.norm>
0

>  <SCORE.SYSTEM>
0

>  <SCORE.SYSTEM.CONST>
0

>  <SCORE.SYSTEM.DIHEDRAL>
0

>  <SCORE.SYSTEM.SOLV>
0

>  <SCORE.SYSTEM.norm>
0

>  <SCORE.heavy>
10

>  <SCORE.norm>
-1.33952

>  <RMSD>
0.995

$$$$
ligand
 OpenBabel11021811503D
libRbt.so/2013.1/901 2013/11/27
 10 11  0  0  0  0  0  0  0  0999 V2000
    3.7630  -19.5144   26.1317 N   0  0  0  0  0  0  0  0  0  0  0  0
    3.0451  -19.0793   27.1692 C   0  0  0  0  0  0  0  0  0  0  0  0
    1.7573  -19.3046   27.4577 N   0  0  0  0  0  0  0  0  0  0  0  0
    1.1883  -20.0697   26.5066 C   0  0  0  0  0  0  0  0  0  0  0  0
    1.7968  -20.5916   25.3810 C   0  0  0  0  0  0  0  0  0  0  0  0
    3.1607  -20.2899   25.1962 C   0  0  0  0  0  0  0  0  0  0  0  0
    3.8699  -20.7244   24.1420 N   0  0  0  0  0  0  0  0  0  0  0  0
    0.9031  -21.3372   24.6340 N   0  0  0  0  0  0  0  0  0  0  0  0
   -0.2124  -21.2626   25.3108 C   0  0  0  0  0  0  0  0  0  0  0  0
   -0.1139  -20.5054   26.4478 N   0  0  0  0  0  0  0  0  0  0  0  0
  1  2  2  0  0  0  0
  1  6  1  0  0  0  0
  2  3  1  0  0  0  0
  3  4  2  0  0  0  0
  4  5  1  0  0  0  0
  4 10  1  0  0  0  0
  5  6  2  0  0  0  0
  5  8  1  0  0  0  0
  6  7  1  0  0  0  0
  8  9  1  0  0  0  0
  9 10  2  0  0  0  0
M  END
>  <CHROM.1>
1.92500038,-20.26861889,25.83193637,0.14626635,0.25604224,1.01012353

>  <Name>
ligand

>  <RI>
0

>  <Rbt.Current_Directory>
/home/itssahil/PROJECTS/Mol_Feturizer/New_Systems/rnas/4LW0

>  <Rbt.Executable>
rbdock ($Id: //depot/dev/client3/rdock/2013.1/src/exe/rbdock.cxx#4 $)

>  <Rbt.Library>
libRbt.so (2013.1, Build901 2013/11/27)

>  <Rbt.Parameter_File>
/export/apps/rDock/src/rDock_2013.1_src/data/scripts/dock_solv.prm

>  <Rbt.Receptor>
prm/pocket_docking_7.prm

>  <SCORE>
-13.3971

>  <SCORE.INTER>
-13.3971

>  <SCORE.INTER.CONST>
1

>  <SCORE.INTER.POLAR>
0

>  <SCORE.INTER.ROT>
0

>  <SCORE.INTER.SOLV>
4.05732

>  <SCORE.INTER.VDW>
-13.8838

>  <SCORE.INTER.norm>
-1.33971

>  <SCORE.INTRA>
0

>  <SCORE.INTRA.DIHEDRAL>
0

>  <SCORE.INTRA.DIHEDRAL.0>
0

>  <SCORE.INTRA.POLAR>
0

>  <SCORE.INTRA.POLAR.0>
0

>  <SCORE.INTRA.REPUL>
0

>  <SCORE.INTRA.REPUL.0>
0

>  <SCORE.INTRA.SOLV>
0

>  <SCORE.INTRA.SOLV.lig_0>
-23.9151

>  <SCORE.INTRA.VDW>
0

>  <SCORE.INTRA.VDW.0>
0

>  <SCORE.INTRA.norm>
0

>  <SCORE.RESTR>
0

>  <SCORE.RESTR.CAVITY>
0

>  <SCORE.RESTR.norm>
0

>  <SCORE.SYSTEM>
0

>  <SCORE.SYSTEM.CONST>
0

>  <SCORE.SYSTEM.DIHEDRAL>
0

>  <SCORE.SYSTEM.SOLV>
0

>  <SCORE.SYSTEM.norm>
0

>  <SCORE.heavy>
10

>  <SCORE.norm>
-1.33971

>  <RMSD>
0.996

$$$$
ligand
 OpenBabel11021811503D
libRbt.so/2013.1/901 2013/11/27
 10 11  0  0  0  0  0  0  0  0999 V2000
    3.7464  -19.4558   26.1186 N   0  0  0  0  0  0  0  0  0  0  0  0
    3.0296  -19.0478   27.1678 C   0  0  0  0  0  0  0  0  0  0  0  0
    1.7552  -19.3188   27.4755 N   0  0  0  0  0  0  0  0  0  0  0  0
    1.1989  -20.1020   26.5317 C   0  0  0  0  0  0  0  0  0  0  0  0
    1.8081  -20.6005   25.3959 C   0  0  0  0  0  0  0  0  0  0  0  0
    3.1575  -20.2507   25.1909 C   0  0  0  0  0  0  0  0  0  0  0  0
    3.8653  -20.6583   24.1251 N   0  0  0  0  0  0  0  0  0  0  0  0
    0.9299  -21.3759   24.6612 N   0  0  0  0  0  0  0  0  0  0  0  0
   -0.1771  -21.3418   25.3550 C   0  0  0  0  0  0  0  0  0  0  0  0
   -0.0879  -20.5833   26.4919 N   0  0  0  0  0  0  0  0  0  0  0  0
  1  2  2  0  0  0  0
  1  6  1  0  0  0  0
  2  3  1  0  0  0  0
  3  4  2  0  0  0  0
  4  5  1  0  0  0  0
  4 10  1  0  0  0  0
  5  6  2  0  0  0  0
  5  8  1  0  0  0  0
  6  7  1  0  0  0  0
  8  9  1  0  0  0  0
  9 10  2  0  0  0  0
M  END
>  <CHROM.1>
1.93173682,-20.27386305,25.84547491,0.15223488,0.29401689,1.01025951

>  <Name>
ligand

>  <RI>
0

>  <Rbt.Current_Directory>
/home/itssahil/PROJECTS/Mol_Feturizer/New_Systems/rnas/4LW0

>  <Rbt.Executable>
rbdock ($Id: //depot/dev/client3/rdock/2013.1/src/exe/rbdock.cxx#4 $)

>  <Rbt.Library>
libRbt.so (2013.1, Build901 2013/11/27)

>  <Rbt.Parameter_File>
/export/apps/rDock/src/rDock_2013.1_src/data/scripts/dock_solv.prm

>  <Rbt.Receptor>
prm/pocket_docking_3.prm

>  <SCORE>
-13.3569

>  <SCORE.INTER>
-13.3569

>  <SCORE.INTER.CONST>
1

>  <SCORE.INTER.POLAR>
0

>  <SCORE.INTER.ROT>
0

>  <SCORE.INTER.SOLV>
4.04859

>  <SCORE.INTER.VDW>
-13.8541

>  <SCORE.INTER.norm>
-1.33569

>  <SCORE.INTRA>
0

>  <SCORE.INTRA.DIHEDRAL>
0

>  <SCORE.INTRA.DIHEDRAL.0>
0

>  <SCORE.INTRA.POLAR>
0

>  <SCORE.INTRA.POLAR.0>
0

>  <SCORE.INTRA.REPUL>
0

>  <SCORE.INTRA.REPUL.0>
0

>  <SCORE.INTRA.SOLV>
0

>  <SCORE.INTRA.SOLV.lig_0>
-23.9151

>  <SCORE.INTRA.VDW>
0

>  <SCORE.INTRA.VDW.0>
0

>  <SCORE.INTRA.norm>
0

>  <SCORE.RESTR>
0

>  <SCORE.RESTR.CAVITY>
0

>  <SCORE.RESTR.norm>
0

>  <SCORE.SYSTEM>
0

>  <SCORE.SYSTEM.CONST>
0

>  <SCORE.SYSTEM.DIHEDRAL>
0

>  <SCORE.SYSTEM.SOLV>
0

>  <SCORE.SYSTEM.norm>
0

>  <SCORE.heavy>
10

>  <SCORE.norm>
-1.33569

>  <RMSD>
0.997

$$$$
ligand
 OpenBabel11021811503D
libRbt.so/2013.1/901 2013/11/27
 10 11  0  0  0  0  0  0  0  0999 V2000
    3.7479  -19.4849   26.1254 N   0  0  0  0  0  0  0  0  0  0  0  0
    3.0292  -19.0644   27.1683 C   0  0  0  0  0  0  0  0  0  0  0  0
    1.7487  -19.3166   27.4669 N   0  0  0  0  0  0  0  0  0  0  0  0
    1.1884  -20.0939   26.5206 C   0  0  0  0  0  0  0  0  0  0  0  0
    1.7990  -20.6035   25.3905 C   0  0  0  0  0  0  0  0  0  0  0  0
    3.1547  -20.2733   25.1949 C   0  0  0  0  0  0  0  0  0  0  0  0
    3.8646  -20.6934   24.1354 N   0  0  0  0  0  0  0  0  0  0  0  0
    0.9153  -21.3680   24.6508 N   0  0  0  0  0  0  0  0  0  0  0  0
   -0.1962  -21.3165   25.3362 C   0  0  0  0  0  0  0  0  0  0  0  0
   -0.1048  -20.5568   26.4721 N   0  0  0  0  0  0  0  0  0  0  0  0
  1  2  2  0  0  0  0
  1  6  1  0  0  0  0
  2  3  1  0  0  0  0
  3  4  2  0  0  0  0
  4  5  1  0  0  0  0
  4 10  1  0  0  0  0
  5  6  2  0  0  0  0
  5  8  1  0  0  0  0
  6  7  1  0  0  0  0
  8  9  1  0  0  0  0
  9 10  2  0  0  0  0
M  END
>  <CHROM.1>
1.92385925,-20.27765523,25.84028561,0.15097744,0.27795464,1.00845602

>  <Name>
ligand

>  <RI>
0

>  <Rbt.Current_Directory>
/home/itssahil/PROJECTS/Mol_Feturizer/New_Systems/rnas/4LW0

>  <Rbt.Executable>
rbdock ($Id: //depot/dev/client3/rdock/2013.1/src/exe/rbdock.cxx#4 $)

>  <Rbt.Library>
libRbt.so (2013.1, Build901 2013/11/27)

>  <Rbt.Parameter_File>
/export/apps/rDock/src/rDock_2013.1_src/data/scripts/dock_solv.prm

>  <Rbt.Receptor>
prm/pocket_docking_4.prm

>  <SCORE>
-13.373

>  <SCORE.INTER>
-13.373

>  <SCORE.INTER.CONST>
1

>  <SCORE.INTER.POLAR>
0

>  <SCORE.INTER.ROT>
0

>  <SCORE.INTER.SOLV>
4.06074

>  <SCORE.INTER.VDW>
-13.8689

>  <SCORE.INTER.norm>
-1.3373

>  <SCORE.INTRA>
0

>  <SCORE.INTRA.DIHEDRAL>
0

>  <SCORE.INTRA.DIHEDRAL.0>
0

>  <SCORE.INTRA.POLAR>
0

>  <SCORE.INTRA.POLAR.0>
0

>  <SCORE.INTRA.REPUL>
0

>  <SCORE.INTRA.REPUL.0>
0

>  <SCORE.INTRA.SOLV>
0

>  <SCORE.INTRA.SOLV.lig_0>
-23.9151

>  <SCORE.INTRA.VDW>
0

>  <SCORE.INTRA.VDW.0>
0

>  <SCORE.INTRA.norm>
0

>  <SCORE.RESTR>
0

>  <SCORE.RESTR.CAVITY>
0

>  <SCORE.RESTR.norm>
0

>  <SCORE.SYSTEM>
0

>  <SCORE.SYSTEM.CONST>
0

>  <SCORE.SYSTEM.DIHEDRAL>
0

>  <SCORE.SYSTEM.SOLV>
0

>  <SCORE.SYSTEM.norm>
0

>  <SCORE.heavy>
10

>  <SCORE.norm>
-1.3373

>  <RMSD>
0.997

$$$$
ligand
 OpenBabel11021811503D
libRbt.so/2013.1/901 2013/11/27
 10 11  0  0  0  0  0  0  0  0999 V2000
    3.7488  -19.4840   26.1250 N   0  0  0  0  0  0  0  0  0  0  0  0
    3.0309  -19.0613   27.1676 C   0  0  0  0  0  0  0  0  0  0  0  0
    1.7499  -19.3106   27.4663 N   0  0  0  0  0  0  0  0  0  0  0  0
    1.1881  -20.0876   26.5206 C   0  0  0  0  0  0  0  0  0  0  0  0
    1.7977  -20.5993   25.3909 C   0  0  0  0  0  0  0  0  0  0  0  0
    3.1541  -20.2720   25.1951 C   0  0  0  0  0  0  0  0  0  0  0  0
    3.8632  -20.6943   24.1359 N   0  0  0  0  0  0  0  0  0  0  0  0
    0.9125  -21.3626   24.6518 N   0  0  0  0  0  0  0  0  0  0  0  0
   -0.1989  -21.3084   25.3371 C   0  0  0  0  0  0  0  0  0  0  0  0
   -0.1060  -20.5480   26.4725 N   0  0  0  0  0  0  0  0  0  0  0  0
  1  2  2  0  0  0  0
  1  6  1  0  0  0  0
  2  3  1  0  0  0  0
  3  4  2  0  0  0  0
  4  5  1  0  0  0  0
  4 10  1  0  0  0  0
  5  6  2  0  0  0  0
  5  8  1  0  0  0  0
  6  7  1  0  0  0  0
  8  9  1  0  0  0  0
  9 10  2  0  0  0  0
M  END
>  <CHROM.1>
1.92318947,-20.27335338,25.84045400,0.14989796,0.27624325,1.00796438

>  <Name>
ligand

>  <RI>
0

>  <Rbt.Current_Directory>
/home/itssahil/PROJECTS/Mol_Feturizer/New_Systems/rnas/4LW0

>  <Rbt.Executable>
rbdock ($Id: //depot/dev/client3/rdock/2013.1/src/exe/rbdock.cxx#4 $)

>  <Rbt.Library>
libRbt.so (2013.1, Build901 2013/11/27)

>  <Rbt.Parameter_File>
/export/apps/rDock/src/rDock_2013.1_src/data/scripts/dock_solv.prm

>  <Rbt.Receptor>
prm/pocket_docking_5.prm

>  <SCORE>
-13.3773

>  <SCORE.INTER>
-13.3773

>  <SCORE.INTER.CONST>
1

>  <SCORE.INTER.POLAR>
0

>  <SCORE.INTER.ROT>
0

>  <SCORE.INTER.SOLV>
4.06868

>  <SCORE.INTER.VDW>
-13.8744

>  <SCORE.INTER.norm>
-1.33773

>  <SCORE.INTRA>
0

>  <SCORE.INTRA.DIHEDRAL>
0

>  <SCORE.INTRA.DIHEDRAL.0>
0

>  <SCORE.INTRA.POLAR>
0

>  <SCORE.INTRA.POLAR.0>
0

>  <SCORE.INTRA.REPUL>
0

>  <SCORE.INTRA.REPUL.0>
0

>  <SCORE.INTRA.SOLV>
0

>  <SCORE.INTRA.SOLV.lig_0>
-23.9151

>  <SCORE.INTRA.VDW>
0

>  <SCORE.INTRA.VDW.0>
0

>  <SCORE.INTRA.norm>
0

>  <SCORE.RESTR>
0

>  <SCORE.RESTR.CAVITY>
0

>  <SCORE.RESTR.norm>
0

>  <SCORE.SYSTEM>
0

>  <SCORE.SYSTEM.CONST>
0

>  <SCORE.SYSTEM.DIHEDRAL>
0

>  <SCORE.SYSTEM.SOLV>
0

>  <SCORE.SYSTEM.norm>
0

>  <SCORE.heavy>
10

>  <SCORE.norm>
-1.33773

>  <RMSD>
0.997

$$$$
ligand
 OpenBabel11021811503D
libRbt.so/2013.1/901 2013/11/27
 10 11  0  0  0  0  0  0  0  0999 V2000
    3.7487  -19.4604   26.1204 N   0  0  0  0  0  0  0  0  0  0  0  0
    3.0319  -19.0510   27.1689 C   0  0  0  0  0  0  0  0  0  0  0  0
    1.7558  -19.3172   27.4740 N   0  0  0  0  0  0  0  0  0  0  0  0
    1.1979  -20.0968   26.5281 C   0  0  0  0  0  0  0  0  0  0  0  0
    1.8070  -20.5960   25.3926 C   0  0  0  0  0  0  0  0  0  0  0  0
    3.1582  -20.2514   25.1904 C   0  0  0  0  0  0  0  0  0  0  0  0
    3.8661  -20.6604   24.1253 N   0  0  0  0  0  0  0  0  0  0  0  0
    0.9268  -21.3668   24.6552 N   0  0  0  0  0  0  0  0  0  0  0  0
   -0.1811  -21.3290   25.3472 C   0  0  0  0  0  0  0  0  0  0  0  0
   -0.0908  -20.5726   26.4854 N   0  0  0  0  0  0  0  0  0  0  0  0
  1  2  2  0  0  0  0
  1  6  1  0  0  0  0
  2  3  1  0  0  0  0
  3  4  2  0  0  0  0
  4  5  1  0  0  0  0
  4 10  1  0  0  0  0
  5  6  2  0  0  0  0
  5  8  1  0  0  0  0
  6  7  1  0  0  0  0
  8  9  1  0  0  0  0
  9 10  2  0  0  0  0
M  END
>  <CHROM.1>
1.93121717,-20.27056828,25.84287765,0.15147341,0.28962014,1.01196687

>  <Name>
ligand

>  <RI>
0

>  <Rbt.Current_Directory>
/home/itssahil/PROJECTS/Mol_Feturizer/New_Systems/rnas/4LW0

>  <Rbt.Executable>
rbdock ($Id: //depot/dev/client3/rdock/2013.1/src/exe/rbdock.cxx#4 $)

>  <Rbt.Library>
libRbt.so (2013.1, Build901 2013/11/27)

>  <Rbt.Parameter_File>
/export/apps/rDock/src/rDock_2013.1_src/data/scripts/dock_solv.prm

>  <Rbt.Receptor>
prm/pocket_docking_6.prm

>  <SCORE>
-13.3628

>  <SCORE.INTER>
-13.3628

>  <SCORE.INTER.CONST>
1

>  <SCORE.INTER.POLAR>
0

>  <SCORE.INTER.ROT>
0

>  <SCORE.INTER.SOLV>
4.05008

>  <SCORE.INTER.VDW>
-13.8586

>  <SCORE.INTER.norm>
-1.33628

>  <SCORE.INTRA>
0

>  <SCORE.INTRA.DIHEDRAL>
0

>  <SCORE.INTRA.DIHEDRAL.0>
0

>  <SCORE.INTRA.POLAR>
0

>  <SCORE.INTRA.POLAR.0>
0

>  <SCORE.INTRA.REPUL>
0

>  <SCORE.INTRA.REPUL.0>
0

>  <SCORE.INTRA.SOLV>
0

>  <SCORE.INTRA.SOLV.lig_0>
-23.9151

>  <SCORE.INTRA.VDW>
0

>  <SCORE.INTRA.VDW.0>
0

>  <SCORE.INTRA.norm>
0

>  <SCORE.RESTR>
0

>  <SCORE.RESTR.CAVITY>
0

>  <SCORE.RESTR.norm>
0

>  <SCORE.SYSTEM>
0

>  <SCORE.SYSTEM.CONST>
0

>  <SCORE.SYSTEM.DIHEDRAL>
0

>  <SCORE.SYSTEM.SOLV>
0

>  <SCORE.SYSTEM.norm>
0

>  <SCORE.heavy>
10

>  <SCORE.norm>
-1.33628

>  <RMSD>
0.997

$$$$
ligand
 OpenBabel11021811503D
libRbt.so/2013.1/901 2013/11/27
 10 11  0  0  0  0  0  0  0  0999 V2000
    3.7526  -19.4866   26.1288 N   0  0  0  0  0  0  0  0  0  0  0  0
    3.0322  -19.0580   27.1673 C   0  0  0  0  0  0  0  0  0  0  0  0
    1.7502  -19.3046   27.4637 N   0  0  0  0  0  0  0  0  0  0  0  0
    1.1902  -20.0857   26.5204 C   0  0  0  0  0  0  0  0  0  0  0  0
    1.8023  -20.6037   25.3949 C   0  0  0  0  0  0  0  0  0  0  0  0
    3.1596  -20.2787   25.2012 C   0  0  0  0  0  0  0  0  0  0  0  0
    3.8712  -20.7070   24.1461 N   0  0  0  0  0  0  0  0  0  0  0  0
    0.9184  -21.3698   24.6572 N   0  0  0  0  0  0  0  0  0  0  0  0
   -0.1948  -21.3110   25.3392 C   0  0  0  0  0  0  0  0  0  0  0  0
   -0.1043  -20.5451   26.4710 N   0  0  0  0  0  0  0  0  0  0  0  0
  1  2  2  0  0  0  0
  1  6  1  0  0  0  0
  2  3  1  0  0  0  0
  3  4  2  0  0  0  0
  4  5  1  0  0  0  0
  4 10  1  0  0  0  0
  5  6  2  0  0  0  0
  5  8  1  0  0  0  0
  6  7  1  0  0  0  0
  8  9  1  0  0  0  0
  9 10  2  0  0  0  0
M  END
>  <CHROM.1>
1.92696489,-20.27559713,25.84317014,0.15175585,0.27393363,1.00246285

>  <Name>
ligand

>  <RI>
0

>  <Rbt.Current_Directory>
/home/itssahil/PROJECTS/Mol_Feturizer/New_Systems/rnas/4LW0

>  <Rbt.Executable>
rbdock ($Id: //depot/dev/client3/rdock/2013.1/src/exe/rbdock.cxx#4 $)

>  <Rbt.Library>
libRbt.so (2013.1, Build901 2013/11/27)

>  <Rbt.Parameter_File>
/export/apps/rDock/src/rDock_2013.1_src/data/scripts/dock_solv.prm

>  <Rbt.Receptor>
prm/pocket_docking_4.prm

>  <SCORE>
-13.3655

>  <SCORE.INTER>
-13.3655

>  <SCORE.INTER.CONST>
1

>  <SCORE.INTER.POLAR>
0

>  <SCORE.INTER.ROT>
0

>  <SCORE.INTER.SOLV>
4.02799

>  <SCORE.INTER.VDW>
-13.853

>  <SCORE.INTER.norm>
-1.33655

>  <SCORE.INTRA>
0

>  <SCORE.INTRA.DIHEDRAL>
0

>  <SCORE.INTRA.DIHEDRAL.0>
0

>  <SCORE.INTRA.POLAR>
0

>  <SCORE.INTRA.POLAR.0>
0

>  <SCORE.INTRA.REPUL>
0

>  <SCORE.INTRA.REPUL.0>
0

>  <SCORE.INTRA.SOLV>
0

>  <SCORE.INTRA.SOLV.lig_0>
-23.9151

>  <SCORE.INTRA.VDW>
0

>  <SCORE.INTRA.VDW.0>
0

>  <SCORE.INTRA.norm>
0

>  <SCORE.RESTR>
0

>  <SCORE.RESTR.CAVITY>
0

>  <SCORE.RESTR.norm>
0

>  <SCORE.SYSTEM>
0

>  <SCORE.SYSTEM.CONST>
0

>  <SCORE.SYSTEM.DIHEDRAL>
0

>  <SCORE.SYSTEM.SOLV>
0

>  <SCORE.SYSTEM.norm>
0

>  <SCORE.heavy>
10

>  <SCORE.norm>
-1.33655

>  <RMSD>
0.998

$$$$
ligand
 OpenBabel11021811503D
libRbt.so/2013.1/901 2013/11/27
 10 11  0  0  0  0  0  0  0  0999 V2000
    3.7512  -19.4648   26.1239 N   0  0  0  0  0  0  0  0  0  0  0  0
    3.0373  -19.0468   27.1712 C   0  0  0  0  0  0  0  0  0  0  0  0
    1.7575  -19.2977   27.4738 N   0  0  0  0  0  0  0  0  0  0  0  0
    1.1921  -20.0704   26.5268 C   0  0  0  0  0  0  0  0  0  0  0  0
    1.7973  -20.5770   25.3924 C   0  0  0  0  0  0  0  0  0  0  0  0
    3.1529  -20.2487   25.1928 C   0  0  0  0  0  0  0  0  0  0  0  0
    3.8579  -20.6662   24.1290 N   0  0  0  0  0  0  0  0  0  0  0  0
    0.9093  -21.3370   24.6533 N   0  0  0  0  0  0  0  0  0  0  0  0
   -0.1994  -21.2860   25.3432 C   0  0  0  0  0  0  0  0  0  0  0  0
   -0.1022  -20.5307   26.4816 N   0  0  0  0  0  0  0  0  0  0  0  0
  1  2  2  0  0  0  0
  1  6  1  0  0  0  0
  2  3  1  0  0  0  0
  3  4  2  0  0  0  0
  4  5  1  0  0  0  0
  4 10  1  0  0  0  0
  5  6  2  0  0  0  0
  5  8  1  0  0  0  0
  6  7  1  0  0  0  0
  8  9  1  0  0  0  0
  9 10  2  0  0  0  0
M  END
>  <CHROM.1>
1.92454171,-20.25305096,25.84293458,0.14651875,0.27837236,1.01337739

>  <Name>
ligand

>  <RI>
0

>  <Rbt.Current_Directory>
/home/itssahil/PROJECTS/Mol_Feturizer/New_Systems/rnas/4LW0

>  <Rbt.Executable>
rbdock ($Id: //depot/dev/client3/rdock/2013.1/src/exe/rbdock.cxx#4 $)

>  <Rbt.Library>
libRbt.so (2013.1, Build901 2013/11/27)

>  <Rbt.Parameter_File>
/export/apps/rDock/src/rDock_2013.1_src/data/scripts/dock_solv.prm

>  <Rbt.Receptor>
prm/pocket_docking_3.prm

>  <SCORE>
-13.3688

>  <SCORE.INTER>
-13.3688

>  <SCORE.INTER.CONST>
1

>  <SCORE.INTER.POLAR>
0

>  <SCORE.INTER.ROT>
0

>  <SCORE.INTER.SOLV>
4.09227

>  <SCORE.INTER.VDW>
-13.8766

>  <SCORE.INTER.norm>
-1.33688

>  <SCORE.INTRA>
0

>  <SCORE.INTRA.DIHEDRAL>
0

>  <SCORE.INTRA.DIHEDRAL.0>
0

>  <SCORE.INTRA.POLAR>
0

>  <SCORE.INTRA.POLAR.0>
0

>  <SCORE.INTRA.REPUL>
0

>  <SCORE.INTRA.REPUL.0>
0

>  <SCORE.INTRA.SOLV>
0

>  <SCORE.INTRA.SOLV.lig_0>
-23.9151

>  <SCORE.INTRA.VDW>
0

>  <SCORE.INTRA.VDW.0>
0

>  <SCORE.INTRA.norm>
0

>  <SCORE.RESTR>
0

>  <SCORE.RESTR.CAVITY>
0

>  <SCORE.RESTR.norm>
0

>  <SCORE.SYSTEM>
0

>  <SCORE.SYSTEM.CONST>
0

>  <SCORE.SYSTEM.DIHEDRAL>
0

>  <SCORE.SYSTEM.SOLV>
0

>  <SCORE.SYSTEM.norm>
0

>  <SCORE.heavy>
10

>  <SCORE.norm>
-1.33688

>  <RMSD>
0.999

$$$$
ligand
 OpenBabel11021811503D
libRbt.so/2013.1/901 2013/11/27
 10 11  0  0  0  0  0  0  0  0999 V2000
    3.7578  -19.5197   26.1300 N   0  0  0  0  0  0  0  0  0  0  0  0
    3.0379  -19.0836   27.1656 C   0  0  0  0  0  0  0  0  0  0  0  0
    1.7488  -19.3062   27.4502 N   0  0  0  0  0  0  0  0  0  0  0  0
    1.1808  -20.0694   26.4970 C   0  0  0  0  0  0  0  0  0  0  0  0
    1.7914  -20.5919   25.3728 C   0  0  0  0  0  0  0  0  0  0  0  0
    3.1565  -20.2932   25.1922 C   0  0  0  0  0  0  0  0  0  0  0  0
    3.8678  -20.7285   24.1398 N   0  0  0  0  0  0  0  0  0  0  0  0
    0.8982  -21.3349   24.6227 N   0  0  0  0  0  0  0  0  0  0  0  0
   -0.2191  -21.2582   25.2963 C   0  0  0  0  0  0  0  0  0  0  0  0
   -0.1222  -20.5021   26.4341 N   0  0  0  0  0  0  0  0  0  0  0  0
  1  2  2  0  0  0  0
  1  6  1  0  0  0  0
  2  3  1  0  0  0  0
  3  4  2  0  0  0  0
  4  5  1  0  0  0  0
  4 10  1  0  0  0  0
  5  6  2  0  0  0  0
  5  8  1  0  0  0  0
  6  7  1  0  0  0  0
  8  9  1  0  0  0  0
  9 10  2  0  0  0  0
M  END
>  <CHROM.1>
1.91904512,-20.26949387,25.82434179,0.14754494,0.25256059,1.01049037

>  <Name>
ligand

>  <RI>
0

>  <Rbt.Current_Directory>
/home/itssahil/PROJECTS/Mol_Feturizer/New_Systems/rnas/4LW0

>  <Rbt.Executable>
rbdock ($Id: //depot/dev/client3/rdock/2013.1/src/exe/rbdock.cxx#4 $)

>  <Rbt.Library>
libRbt.so (2013.1, Build901 2013/11/27)

>  <Rbt.Parameter_File>
/export/apps/rDock/src/rDock_2013.1_src/data/scripts/dock_solv.prm

>  <Rbt.Receptor>
prm/pocket_docking_4.prm

>  <SCORE>
-13.3815

>  <SCORE.INTER>
-13.3815

>  <SCORE.INTER.CONST>
1

>  <SCORE.INTER.POLAR>
0

>  <SCORE.INTER.ROT>
0

>  <SCORE.INTER.SOLV>
4.07505

>  <SCORE.INTER.VDW>
-13.8794

>  <SCORE.INTER.norm>
-1.33815

>  <SCORE.INTRA>
0

>  <SCORE.INTRA.DIHEDRAL>
0

>  <SCORE.INTRA.DIHEDRAL.0>
0

>  <SCORE.INTRA.POLAR>
0

>  <SCORE.INTRA.POLAR.0>
0

>  <SCORE.INTRA.REPUL>
0

>  <SCORE.INTRA.REPUL.0>
0

>  <SCORE.INTRA.SOLV>
0

>  <SCORE.INTRA.SOLV.lig_0>
-23.9151

>  <SCORE.INTRA.VDW>
0

>  <SCORE.INTRA.VDW.0>
0

>  <SCORE.INTRA.norm>
0

>  <SCORE.RESTR>
0

>  <SCORE.RESTR.CAVITY>
0

>  <SCORE.RESTR.norm>
0

>  <SCORE.SYSTEM>
0

>  <SCORE.SYSTEM.CONST>
0

>  <SCORE.SYSTEM.DIHEDRAL>
0

>  <SCORE.SYSTEM.SOLV>
0

>  <SCORE.SYSTEM.norm>
0

>  <SCORE.heavy>
10

>  <SCORE.norm>
-1.33815

>  <RMSD>
0.999

$$$$
ligand
 OpenBabel11021811503D
libRbt.so/2013.1/901 2013/11/27
 10 11  0  0  0  0  0  0  0  0999 V2000
    3.7517  -19.4638   26.1245 N   0  0  0  0  0  0  0  0  0  0  0  0
    3.0388  -19.0459   27.1725 C   0  0  0  0  0  0  0  0  0  0  0  0
    1.7590  -19.2959   27.4758 N   0  0  0  0  0  0  0  0  0  0  0  0
    1.1924  -20.0676   26.5287 C   0  0  0  0  0  0  0  0  0  0  0  0
    1.7964  -20.5739   25.3936 C   0  0  0  0  0  0  0  0  0  0  0  0
    3.1522  -20.2466   25.1933 C   0  0  0  0  0  0  0  0  0  0  0  0
    3.8561  -20.6640   24.1288 N   0  0  0  0  0  0  0  0  0  0  0  0
    0.9073  -21.3328   24.6546 N   0  0  0  0  0  0  0  0  0  0  0  0
   -0.2009  -21.2813   25.3452 C   0  0  0  0  0  0  0  0  0  0  0  0
   -0.1023  -20.5268   26.4841 N   0  0  0  0  0  0  0  0  0  0  0  0
  1  2  2  0  0  0  0
  1  6  1  0  0  0  0
  2  3  1  0  0  0  0
  3  4  2  0  0  0  0
  4  5  1  0  0  0  0
  4 10  1  0  0  0  0
  5  6  2  0  0  0  0
  5  8  1  0  0  0  0
  6  7  1  0  0  0  0
  8  9  1  0  0  0  0
  9 10  2  0  0  0  0
M  END
>  <CHROM.1>
1.92420864,-20.25037113,25.84423913,0.14549155,0.27805142,1.01429691

>  <Name>
ligand

>  <RI>
0

>  <Rbt.Current_Directory>
/home/itssahil/PROJECTS/Mol_Feturizer/New_Systems/rnas/4LW0

>  <Rbt.Executable>
rbdock ($Id: //depot/dev/client3/rdock/2013.1/src/exe/rbdock.cxx#4 $)

>  <Rbt.Library>
libRbt.so (2013.1, Build901 2013/11/27)

>  <Rbt.Parameter_File>
/export/apps/rDock/src/rDock_2013.1_src/data/scripts/dock_solv.prm

>  <Rbt.Receptor>
prm/pocket_docking_4.prm

>  <SCORE>
-13.3664

>  <SCORE.INTER>
-13.3664

>  <SCORE.INTER.CONST>
1

>  <SCORE.INTER.POLAR>
0

>  <SCORE.INTER.ROT>
0

>  <SCORE.INTER.SOLV>
4.09921

>  <SCORE.INTER.VDW>
-13.8773

>  <SCORE.INTER.norm>
-1.33664

>  <SCORE.INTRA>
0

>  <SCORE.INTRA.DIHEDRAL>
0

>  <SCORE.INTRA.DIHEDRAL.0>
0

>  <SCORE.INTRA.POLAR>
0

>  <SCORE.INTRA.POLAR.0>
0

>  <SCORE.INTRA.REPUL>
0

>  <SCORE.INTRA.REPUL.0>
0

>  <SCORE.INTRA.SOLV>
0

>  <SCORE.INTRA.SOLV.lig_0>
-23.9151

>  <SCORE.INTRA.VDW>
0

>  <SCORE.INTRA.VDW.0>
0

>  <SCORE.INTRA.norm>
0

>  <SCORE.RESTR>
0

>  <SCORE.RESTR.CAVITY>
0

>  <SCORE.RESTR.norm>
0

>  <SCORE.SYSTEM>
0

>  <SCORE.SYSTEM.CONST>
0

>  <SCORE.SYSTEM.DIHEDRAL>
0

>  <SCORE.SYSTEM.SOLV>
0

>  <SCORE.SYSTEM.norm>
0

>  <SCORE.heavy>
10

>  <SCORE.norm>
-1.33664

>  <RMSD>
0.999

$$$$
ligand
 OpenBabel11021811503D
libRbt.so/2013.1/901 2013/11/27
 10 11  0  0  0  0  0  0  0  0999 V2000
    3.7471  -19.4858   26.1257 N   0  0  0  0  0  0  0  0  0  0  0  0
    3.0288  -19.0618   27.1676 C   0  0  0  0  0  0  0  0  0  0  0  0
    1.7469  -19.3082   27.4646 N   0  0  0  0  0  0  0  0  0  0  0  0
    1.1844  -20.0834   26.5177 C   0  0  0  0  0  0  0  0  0  0  0  0
    1.7942  -20.5960   25.3885 C   0  0  0  0  0  0  0  0  0  0  0  0
    3.1517  -20.2719   25.1947 C   0  0  0  0  0  0  0  0  0  0  0  0
    3.8611  -20.6954   24.1362 N   0  0  0  0  0  0  0  0  0  0  0  0
    0.9082  -21.3568   24.6479 N   0  0  0  0  0  0  0  0  0  0  0  0
   -0.2040  -21.3002   25.3318 C   0  0  0  0  0  0  0  0  0  0  0  0
   -0.1107  -20.5406   26.4677 N   0  0  0  0  0  0  0  0  0  0  0  0
  1  2  2  0  0  0  0
  1  6  1  0  0  0  0
  2  3  1  0  0  0  0
  3  4  2  0  0  0  0
  4  5  1  0  0  0  0
  4 10  1  0  0  0  0
  5  6  2  0  0  0  0
  5  8  1  0  0  0  0
  6  7  1  0  0  0  0
  8  9  1  0  0  0  0
  9 10  2  0  0  0  0
M  END
>  <CHROM.1>
1.91996500,-20.27056915,25.83842110,0.14970123,0.27351293,1.00851026

>  <Name>
ligand

>  <RI>
0

>  <Rbt.Current_Directory>
/home/itssahil/PROJECTS/Mol_Feturizer/New_Systems/rnas/4LW0

>  <Rbt.Executable>
rbdock ($Id: //depot/dev/client3/rdock/2013.1/src/exe/rbdock.cxx#4 $)

>  <Rbt.Library>
libRbt.so (2013.1, Build901 2013/11/27)

>  <Rbt.Parameter_File>
/export/apps/rDock/src/rDock_2013.1_src/data/scripts/dock_solv.prm

>  <Rbt.Receptor>
prm/pocket_docking_4.prm

>  <SCORE>
-13.3747

>  <SCORE.INTER>
-13.3747

>  <SCORE.INTER.CONST>
1

>  <SCORE.INTER.POLAR>
0

>  <SCORE.INTER.ROT>
0

>  <SCORE.INTER.SOLV>
4.08017

>  <SCORE.INTER.VDW>
-13.8765

>  <SCORE.INTER.norm>
-1.33747

>  <SCORE.INTRA>
0

>  <SCORE.INTRA.DIHEDRAL>
0

>  <SCORE.INTRA.DIHEDRAL.0>
0

>  <SCORE.INTRA.POLAR>
0

>  <SCORE.INTRA.POLAR.0>
0

>  <SCORE.INTRA.REPUL>
0

>  <SCORE.INTRA.REPUL.0>
0

>  <SCORE.INTRA.SOLV>
0

>  <SCORE.INTRA.SOLV.lig_0>
-23.9151

>  <SCORE.INTRA.VDW>
0

>  <SCORE.INTRA.VDW.0>
0

>  <SCORE.INTRA.norm>
0

>  <SCORE.RESTR>
0

>  <SCORE.RESTR.CAVITY>
0

>  <SCORE.RESTR.norm>
0

>  <SCORE.SYSTEM>
0

>  <SCORE.SYSTEM.CONST>
0

>  <SCORE.SYSTEM.DIHEDRAL>
0

>  <SCORE.SYSTEM.SOLV>
0

>  <SCORE.SYSTEM.norm>
0

>  <SCORE.heavy>
10

>  <SCORE.norm>
-1.33747

>  <RMSD>
0.999

$$$$
ligand
 OpenBabel11021811503D
libRbt.so/2013.1/901 2013/11/27
 10 11  0  0  0  0  0  0  0  0999 V2000
    3.7667  -19.4837   26.1281 N   0  0  0  0  0  0  0  0  0  0  0  0
    3.0480  -19.0678   27.1729 C   0  0  0  0  0  0  0  0  0  0  0  0
    1.7644  -19.3120   27.4646 N   0  0  0  0  0  0  0  0  0  0  0  0
    1.2008  -20.0746   26.5084 C   0  0  0  0  0  0  0  0  0  0  0  0
    1.8108  -20.5777   25.3750 C   0  0  0  0  0  0  0  0  0  0  0  0
    3.1700  -20.2573   25.1875 C   0  0  0  0  0  0  0  0  0  0  0  0
    3.8799  -20.6724   24.1260 N   0  0  0  0  0  0  0  0  0  0  0  0
    0.9232  -21.3268   24.6245 N   0  0  0  0  0  0  0  0  0  0  0  0
   -0.1902  -21.2729   25.3066 C   0  0  0  0  0  0  0  0  0  0  0  0
   -0.0962  -20.5258   26.4507 N   0  0  0  0  0  0  0  0  0  0  0  0
  1  2  2  0  0  0  0
  1  6  1  0  0  0  0
  2  3  1  0  0  0  0
  3  4  2  0  0  0  0
  4  5  1  0  0  0  0
  4 10  1  0  0  0  0
  5  6  2  0  0  0  0
  5  8  1  0  0  0  0
  6  7  1  0  0  0  0
  8  9  1  0  0  0  0
  9 10  2  0  0  0  0
M  END
>  <CHROM.1>
1.93694894,-20.25763480,25.82861986,0.14924994,0.26883586,1.01931356

>  <Name>
ligand

>  <RI>
0

>  <Rbt.Current_Directory>
/home/itssahil/PROJECTS/Mol_Feturizer/New_Systems/rnas/4LW0

>  <Rbt.Executable>
rbdock ($Id: //depot/dev/client3/rdock/2013.1/src/exe/rbdock.cxx#4 $)

>  <Rbt.Library>
libRbt.so (2013.1, Build901 2013/11/27)

>  <Rbt.Parameter_File>
/export/apps/rDock/src/rDock_2013.1_src/data/scripts/dock_solv.prm

>  <Rbt.Receptor>
prm/pocket_docking_3.prm

>  <SCORE>
-13.4215

>  <SCORE.INTER>
-13.4215

>  <SCORE.INTER.CONST>
1

>  <SCORE.INTER.POLAR>
0

>  <SCORE.INTER.ROT>
0

>  <SCORE.INTER.SOLV>
4.01638

>  <SCORE.INTER.VDW>
-13.8864

>  <SCORE.INTER.norm>
-1.34215

>  <SCORE.INTRA>
0

>  <SCORE.INTRA.DIHEDRAL>
0

>  <SCORE.INTRA.DIHEDRAL.0>
0

>  <SCORE.INTRA.POLAR>
0

>  <SCORE.INTRA.POLAR.0>
0

>  <SCORE.INTRA.REPUL>
0

>  <SCORE.INTRA.REPUL.0>
0

>  <SCORE.INTRA.SOLV>
0

>  <SCORE.INTRA.SOLV.lig_0>
-23.9151

>  <SCORE.INTRA.VDW>
0

>  <SCORE.INTRA.VDW.0>
0

>  <SCORE.INTRA.norm>
0

>  <SCORE.RESTR>
0

>  <SCORE.RESTR.CAVITY>
0

>  <SCORE.RESTR.norm>
0

>  <SCORE.SYSTEM>
0

>  <SCORE.SYSTEM.CONST>
0

>  <SCORE.SYSTEM.DIHEDRAL>
0

>  <SCORE.SYSTEM.SOLV>
0

>  <SCORE.SYSTEM.norm>
0

>  <SCORE.heavy>
10

>  <SCORE.norm>
-1.34215

>  <RMSD>
1.000

$$$$
ligand
 OpenBabel11021811503D
libRbt.so/2013.1/901 2013/11/27
 10 11  0  0  0  0  0  0  0  0999 V2000
    3.7533  -19.4403   26.1171 N   0  0  0  0  0  0  0  0  0  0  0  0
    3.0353  -19.0457   27.1706 C   0  0  0  0  0  0  0  0  0  0  0  0
    1.7621  -19.3249   27.4760 N   0  0  0  0  0  0  0  0  0  0  0  0
    1.2085  -20.1008   26.5246 C   0  0  0  0  0  0  0  0  0  0  0  0
    1.8193  -20.5854   25.3836 C   0  0  0  0  0  0  0  0  0  0  0  0
    3.1672  -20.2281   25.1816 C   0  0  0  0  0  0  0  0  0  0  0  0
    3.8762  -20.6222   24.1116 N   0  0  0  0  0  0  0  0  0  0  0  0
    0.9438  -21.3568   24.6414 N   0  0  0  0  0  0  0  0  0  0  0  0
   -0.1630  -21.3341   25.3359 C   0  0  0  0  0  0  0  0  0  0  0  0
   -0.0764  -20.5867   26.4804 N   0  0  0  0  0  0  0  0  0  0  0  0
  1  2  2  0  0  0  0
  1  6  1  0  0  0  0
  2  3  1  0  0  0  0
  3  4  2  0  0  0  0
  4  5  1  0  0  0  0
  4 10  1  0  0  0  0
  5  6  2  0  0  0  0
  5  8  1  0  0  0  0
  6  7  1  0  0  0  0
  8  9  1  0  0  0  0
  9 10  2  0  0  0  0
M  END
>  <CHROM.1>
1.94177608,-20.26277274,25.83638836,0.15409868,0.29759295,1.01978577

>  <Name>
ligand

>  <RI>
0

>  <Rbt.Current_Directory>
/home/itssahil/PROJECTS/Mol_Feturizer/New_Systems/rnas/4LW0

>  <Rbt.Executable>
rbdock ($Id: //depot/dev/client3/rdock/2013.1/src/exe/rbdock.cxx#4 $)

>  <Rbt.Library>
libRbt.so (2013.1, Build901 2013/11/27)

>  <Rbt.Parameter_File>
/export/apps/rDock/src/rDock_2013.1_src/data/scripts/dock_solv.prm

>  <Rbt.Receptor>
prm/pocket_docking_6.prm

>  <SCORE>
-13.351

>  <SCORE.INTER>
-13.351

>  <SCORE.INTER.CONST>
1

>  <SCORE.INTER.POLAR>
0

>  <SCORE.INTER.ROT>
0

>  <SCORE.INTER.SOLV>
4.01071

>  <SCORE.INTER.VDW>
-13.8376

>  <SCORE.INTER.norm>
-1.3351

>  <SCORE.INTRA>
0

>  <SCORE.INTRA.DIHEDRAL>
0

>  <SCORE.INTRA.DIHEDRAL.0>
0

>  <SCORE.INTRA.POLAR>
0

>  <SCORE.INTRA.POLAR.0>
0

>  <SCORE.INTRA.REPUL>
0

>  <SCORE.INTRA.REPUL.0>
0

>  <SCORE.INTRA.SOLV>
0

>  <SCORE.INTRA.SOLV.lig_0>
-23.9151

>  <SCORE.INTRA.VDW>
0

>  <SCORE.INTRA.VDW.0>
0

>  <SCORE.INTRA.norm>
0

>  <SCORE.RESTR>
0

>  <SCORE.RESTR.CAVITY>
0

>  <SCORE.RESTR.norm>
0

>  <SCORE.SYSTEM>
0

>  <SCORE.SYSTEM.CONST>
0

>  <SCORE.SYSTEM.DIHEDRAL>
0

>  <SCORE.SYSTEM.SOLV>
0

>  <SCORE.SYSTEM.norm>
0

>  <SCORE.heavy>
10

>  <SCORE.norm>
-1.3351

>  <RMSD>
1.001

$$$$
ligand
 OpenBabel11021811503D
libRbt.so/2013.1/901 2013/11/27
 10 11  0  0  0  0  0  0  0  0999 V2000
    3.7777  -19.4739   26.1252 N   0  0  0  0  0  0  0  0  0  0  0  0
    3.0564  -19.0750   27.1747 C   0  0  0  0  0  0  0  0  0  0  0  0
    1.7750  -19.3325   27.4645 N   0  0  0  0  0  0  0  0  0  0  0  0
    1.2168  -20.0895   26.5006 C   0  0  0  0  0  0  0  0  0  0  0  0
    1.8301  -20.5756   25.3616 C   0  0  0  0  0  0  0  0  0  0  0  0
    3.1866  -20.2423   25.1767 C   0  0  0  0  0  0  0  0  0  0  0  0
    3.8991  -20.6405   24.1105 N   0  0  0  0  0  0  0  0  0  0  0  0
    0.9480  -21.3238   24.6037 N   0  0  0  0  0  0  0  0  0  0  0  0
   -0.1653  -21.2861   25.2870 C   0  0  0  0  0  0  0  0  0  0  0  0
   -0.0766  -20.5505   26.4389 N   0  0  0  0  0  0  0  0  0  0  0  0
  1  2  2  0  0  0  0
  1  6  1  0  0  0  0
  2  3  1  0  0  0  0
  3  4  2  0  0  0  0
  4  5  1  0  0  0  0
  4 10  1  0  0  0  0
  5  6  2  0  0  0  0
  5  8  1  0  0  0  0
  6  7  1  0  0  0  0
  8  9  1  0  0  0  0
  9 10  2  0  0  0  0
M  END
>  <CHROM.1>
1.95397954,-20.25938118,25.81852226,0.15304887,0.27600670,1.02888373

>  <Name>
ligand

>  <RI>
0

>  <Rbt.Current_Directory>
/home/itssahil/PROJECTS/Mol_Feturizer/New_Systems/rnas/4LW0

>  <Rbt.Executable>
rbdock ($Id: //depot/dev/client3/rdock/2013.1/src/exe/rbdock.cxx#4 $)

>  <Rbt.Library>
libRbt.so (2013.1, Build901 2013/11/27)

>  <Rbt.Parameter_File>
/export/apps/rDock/src/rDock_2013.1_src/data/scripts/dock_solv.prm

>  <Rbt.Receptor>
prm/pocket_docking_7.prm

>  <SCORE>
-13.3721

>  <SCORE.INTER>
-13.3721

>  <SCORE.INTER.CONST>
1

>  <SCORE.INTER.POLAR>
0

>  <SCORE.INTER.ROT>
0

>  <SCORE.INTER.SOLV>
3.94178

>  <SCORE.INTER.VDW>
-13.8287

>  <SCORE.INTER.norm>
-1.33721

>  <SCORE.INTRA>
0

>  <SCORE.INTRA.DIHEDRAL>
0

>  <SCORE.INTRA.DIHEDRAL.0>
0

>  <SCORE.INTRA.POLAR>
0

>  <SCORE.INTRA.POLAR.0>
0

>  <SCORE.INTRA.REPUL>
0

>  <SCORE.INTRA.REPUL.0>
0

>  <SCORE.INTRA.SOLV>
0

>  <SCORE.INTRA.SOLV.lig_0>
-23.9151

>  <SCORE.INTRA.VDW>
0

>  <SCORE.INTRA.VDW.0>
0

>  <SCORE.INTRA.norm>
0

>  <SCORE.RESTR>
0

>  <SCORE.RESTR.CAVITY>
0

>  <SCORE.RESTR.norm>
0

>  <SCORE.SYSTEM>
0

>  <SCORE.SYSTEM.CONST>
0

>  <SCORE.SYSTEM.DIHEDRAL>
0

>  <SCORE.SYSTEM.SOLV>
0

>  <SCORE.SYSTEM.norm>
0

>  <SCORE.heavy>
10

>  <SCORE.norm>
-1.33721

>  <RMSD>
1.001

$$$$
ligand
 OpenBabel11021811503D
libRbt.so/2013.1/901 2013/11/27
 10 11  0  0  0  0  0  0  0  0999 V2000
    3.7480  -19.5112   26.1313 N   0  0  0  0  0  0  0  0  0  0  0  0
    3.0237  -19.0743   27.1635 C   0  0  0  0  0  0  0  0  0  0  0  0
    1.7374  -19.3092   27.4509 N   0  0  0  0  0  0  0  0  0  0  0  0
    1.1777  -20.0871   26.5048 C   0  0  0  0  0  0  0  0  0  0  0  0
    1.7936  -20.6125   25.3849 C   0  0  0  0  0  0  0  0  0  0  0  0
    3.1551  -20.2998   25.2007 C   0  0  0  0  0  0  0  0  0  0  0  0
    3.8707  -20.7363   24.1518 N   0  0  0  0  0  0  0  0  0  0  0  0
    0.9086  -21.3722   24.6419 N   0  0  0  0  0  0  0  0  0  0  0  0
   -0.2092  -21.3025   25.3155 C   0  0  0  0  0  0  0  0  0  0  0  0
   -0.1204  -20.5352   26.4465 N   0  0  0  0  0  0  0  0  0  0  0  0
  1  2  2  0  0  0  0
  1  6  1  0  0  0  0
  2  3  1  0  0  0  0
  3  4  2  0  0  0  0
  4  5  1  0  0  0  0
  4 10  1  0  0  0  0
  5  6  2  0  0  0  0
  5  8  1  0  0  0  0
  6  7  1  0  0  0  0
  8  9  1  0  0  0  0
  9 10  2  0  0  0  0
M  END
>  <CHROM.1>
1.91776543,-20.28470611,25.83343939,0.15338334,0.26253628,1.00018929

>  <Name>
ligand

>  <RI>
0

>  <Rbt.Current_Directory>
/home/itssahil/PROJECTS/Mol_Feturizer/New_Systems/rnas/4LW0

>  <Rbt.Executable>
rbdock ($Id: //depot/dev/client3/rdock/2013.1/src/exe/rbdock.cxx#4 $)

>  <Rbt.Library>
libRbt.so (2013.1, Build901 2013/11/27)

>  <Rbt.Parameter_File>
/export/apps/rDock/src/rDock_2013.1_src/data/scripts/dock_solv.prm

>  <Rbt.Receptor>
prm/pocket_docking_8.prm

>  <SCORE>
-13.358

>  <SCORE.INTER>
-13.3582

>  <SCORE.INTER.CONST>
1

>  <SCORE.INTER.POLAR>
0

>  <SCORE.INTER.ROT>
0

>  <SCORE.INTER.SOLV>
4.03939

>  <SCORE.INTER.VDW>
-13.852

>  <SCORE.INTER.norm>
-1.33582

>  <SCORE.INTRA>
0

>  <SCORE.INTRA.DIHEDRAL>
0

>  <SCORE.INTRA.DIHEDRAL.0>
0

>  <SCORE.INTRA.POLAR>
0

>  <SCORE.INTRA.POLAR.0>
0

>  <SCORE.INTRA.REPUL>
0

>  <SCORE.INTRA.REPUL.0>
0

>  <SCORE.INTRA.SOLV>
0

>  <SCORE.INTRA.SOLV.lig_0>
-23.9151

>  <SCORE.INTRA.VDW>
0

>  <SCORE.INTRA.VDW.0>
0

>  <SCORE.INTRA.norm>
0

>  <SCORE.RESTR>
0.000222848

>  <SCORE.RESTR.CAVITY>
0.000222848

>  <SCORE.RESTR.norm>
2.22848e-05

>  <SCORE.SYSTEM>
0

>  <SCORE.SYSTEM.CONST>
0

>  <SCORE.SYSTEM.DIHEDRAL>
0

>  <SCORE.SYSTEM.SOLV>
0

>  <SCORE.SYSTEM.norm>
0

>  <SCORE.heavy>
10

>  <SCORE.norm>
-1.3358

>  <RMSD>
1.001

$$$$
ligand
 OpenBabel11021811503D
libRbt.so/2013.1/901 2013/11/27
 10 11  0  0  0  0  0  0  0  0999 V2000
    3.7425  -19.4465   26.1171 N   0  0  0  0  0  0  0  0  0  0  0  0
    3.0225  -19.0433   27.1659 C   0  0  0  0  0  0  0  0  0  0  0  0
    1.7475  -19.3170   27.4692 N   0  0  0  0  0  0  0  0  0  0  0  0
    1.1948  -20.0975   26.5210 C   0  0  0  0  0  0  0  0  0  0  0  0
    1.8076  -20.5911   25.3851 C   0  0  0  0  0  0  0  0  0  0  0  0
    3.1572  -20.2388   25.1849 C   0  0  0  0  0  0  0  0  0  0  0  0
    3.8683  -20.6417   24.1196 N   0  0  0  0  0  0  0  0  0  0  0  0
    0.9324  -21.3650   24.6452 N   0  0  0  0  0  0  0  0  0  0  0  0
   -0.1764  -21.3347   25.3362 C   0  0  0  0  0  0  0  0  0  0  0  0
   -0.0913  -20.5802   26.4761 N   0  0  0  0  0  0  0  0  0  0  0  0
  1  2  2  0  0  0  0
  1  6  1  0  0  0  0
  2  3  1  0  0  0  0
  3  4  2  0  0  0  0
  4  5  1  0  0  0  0
  4 10  1  0  0  0  0
  5  6  2  0  0  0  0
  5  8  1  0  0  0  0
  6  7  1  0  0  0  0
  8  9  1  0  0  0  0
  9 10  2  0  0  0  0
M  END
>  <CHROM.1>
1.92966164,-20.26592282,25.83614382,0.15531344,0.29367503,1.01299181

>  <Name>
ligand

>  <RI>
0

>  <Rbt.Current_Directory>
/home/itssahil/PROJECTS/Mol_Feturizer/New_Systems/rnas/4LW0

>  <Rbt.Executable>
rbdock ($Id: //depot/dev/client3/rdock/2013.1/src/exe/rbdock.cxx#4 $)

>  <Rbt.Library>
libRbt.so (2013.1, Build901 2013/11/27)

>  <Rbt.Parameter_File>
/export/apps/rDock/src/rDock_2013.1_src/data/scripts/dock_solv.prm

>  <Rbt.Receptor>
prm/pocket_docking_4.prm

>  <SCORE>
-13.3504

>  <SCORE.INTER>
-13.3504

>  <SCORE.INTER.CONST>
1

>  <SCORE.INTER.POLAR>
0

>  <SCORE.INTER.ROT>
0

>  <SCORE.INTER.SOLV>
4.04449

>  <SCORE.INTER.VDW>
-13.8485

>  <SCORE.INTER.norm>
-1.33504

>  <SCORE.INTRA>
0

>  <SCORE.INTRA.DIHEDRAL>
0

>  <SCORE.INTRA.DIHEDRAL.0>
0

>  <SCORE.INTRA.POLAR>
0

>  <SCORE.INTRA.POLAR.0>
0

>  <SCORE.INTRA.REPUL>
0

>  <SCORE.INTRA.REPUL.0>
0

>  <SCORE.INTRA.SOLV>
0

>  <SCORE.INTRA.SOLV.lig_0>
-23.9151

>  <SCORE.INTRA.VDW>
0

>  <SCORE.INTRA.VDW.0>
0

>  <SCORE.INTRA.norm>
0

>  <SCORE.RESTR>
0

>  <SCORE.RESTR.CAVITY>
0

>  <SCORE.RESTR.norm>
0

>  <SCORE.SYSTEM>
0

>  <SCORE.SYSTEM.CONST>
0

>  <SCORE.SYSTEM.DIHEDRAL>
0

>  <SCORE.SYSTEM.SOLV>
0

>  <SCORE.SYSTEM.norm>
0

>  <SCORE.heavy>
10

>  <SCORE.norm>
-1.33504

>  <RMSD>
1.003

$$$$
ligand
 OpenBabel11021811503D
libRbt.so/2013.1/901 2013/11/27
 10 11  0  0  0  0  0  0  0  0999 V2000
    3.7461  -19.5262   26.1463 N   0  0  0  0  0  0  0  0  0  0  0  0
    3.0252  -19.0899   27.1813 C   0  0  0  0  0  0  0  0  0  0  0  0
    1.7365  -19.3146   27.4661 N   0  0  0  0  0  0  0  0  0  0  0  0
    1.1701  -20.0803   26.5140 C   0  0  0  0  0  0  0  0  0  0  0  0
    1.7819  -20.6034   25.3907 C   0  0  0  0  0  0  0  0  0  0  0  0
    3.1464  -20.3023   25.2097 C   0  0  0  0  0  0  0  0  0  0  0  0
    3.8586  -20.7380   24.1581 N   0  0  0  0  0  0  0  0  0  0  0  0
    0.8902  -21.3493   24.6416 N   0  0  0  0  0  0  0  0  0  0  0  0
   -0.2273  -21.2737   25.3149 C   0  0  0  0  0  0  0  0  0  0  0  0
   -0.1321  -20.5156   26.4516 N   0  0  0  0  0  0  0  0  0  0  0  0
  1  2  2  0  0  0  0
  1  6  1  0  0  0  0
  2  3  1  0  0  0  0
  3  4  2  0  0  0  0
  4  5  1  0  0  0  0
  4 10  1  0  0  0  0
  5  6  2  0  0  0  0
  5  8  1  0  0  0  0
  6  7  1  0  0  0  0
  8  9  1  0  0  0  0
  9 10  2  0  0  0  0
M  END
>  <CHROM.1>
1.90878955,-20.28004622,25.84168885,0.14870434,0.25413231,1.00863652

>  <Name>
ligand

>  <RI>
0

>  <Rbt.Current_Directory>
/home/itssahil/PROJECTS/Mol_Feturizer/New_Systems/rnas/4LW0

>  <Rbt.Executable>
rbdock ($Id: //depot/dev/client3/rdock/2013.1/src/exe/rbdock.cxx#4 $)

>  <Rbt.Library>
libRbt.so (2013.1, Build901 2013/11/27)

>  <Rbt.Parameter_File>
/export/apps/rDock/src/rDock_2013.1_src/data/scripts/dock_solv.prm

>  <Rbt.Receptor>
prm/pocket_docking_6.prm

>  <SCORE>
-13.3824

>  <SCORE.INTER>
-13.3824

>  <SCORE.INTER.CONST>
1

>  <SCORE.INTER.POLAR>
0

>  <SCORE.INTER.ROT>
0

>  <SCORE.INTER.SOLV>
4.07903

>  <SCORE.INTER.VDW>
-13.8813

>  <SCORE.INTER.norm>
-1.33824

>  <SCORE.INTRA>
0

>  <SCORE.INTRA.DIHEDRAL>
0

>  <SCORE.INTRA.DIHEDRAL.0>
0

>  <SCORE.INTRA.POLAR>
0

>  <SCORE.INTRA.POLAR.0>
0

>  <SCORE.INTRA.REPUL>
0

>  <SCORE.INTRA.REPUL.0>
0

>  <SCORE.INTRA.SOLV>
0

>  <SCORE.INTRA.SOLV.lig_0>
-23.9151

>  <SCORE.INTRA.VDW>
0

>  <SCORE.INTRA.VDW.0>
0

>  <SCORE.INTRA.norm>
0

>  <SCORE.RESTR>
0

>  <SCORE.RESTR.CAVITY>
0

>  <SCORE.RESTR.norm>
0

>  <SCORE.SYSTEM>
0

>  <SCORE.SYSTEM.CONST>
0

>  <SCORE.SYSTEM.DIHEDRAL>
0

>  <SCORE.SYSTEM.SOLV>
0

>  <SCORE.SYSTEM.norm>
0

>  <SCORE.heavy>
10

>  <SCORE.norm>
-1.33824

>  <RMSD>
1.003

$$$$
ligand
 OpenBabel11021811503D
libRbt.so/2013.1/901 2013/11/27
 10 11  0  0  0  0  0  0  0  0999 V2000
    3.7494  -19.4834   26.1270 N   0  0  0  0  0  0  0  0  0  0  0  0
    3.0312  -19.0629   27.1702 C   0  0  0  0  0  0  0  0  0  0  0  0
    1.7471  -19.3039   27.4624 N   0  0  0  0  0  0  0  0  0  0  0  0
    1.1824  -20.0688   26.5087 C   0  0  0  0  0  0  0  0  0  0  0  0
    1.7918  -20.5767   25.3772 C   0  0  0  0  0  0  0  0  0  0  0  0
    3.1516  -20.2592   25.1888 C   0  0  0  0  0  0  0  0  0  0  0  0
    3.8610  -20.6791   24.1289 N   0  0  0  0  0  0  0  0  0  0  0  0
    0.9031  -21.3269   24.6289 N   0  0  0  0  0  0  0  0  0  0  0  0
   -0.2103  -21.2688   25.3107 C   0  0  0  0  0  0  0  0  0  0  0  0
   -0.1153  -20.5181   26.4523 N   0  0  0  0  0  0  0  0  0  0  0  0
  1  2  2  0  0  0  0
  1  6  1  0  0  0  0
  2  3  1  0  0  0  0
  3  4  2  0  0  0  0
  4  5  1  0  0  0  0
  4 10  1  0  0  0  0
  5  6  2  0  0  0  0
  5  8  1  0  0  0  0
  6  7  1  0  0  0  0
  8  9  1  0  0  0  0
  9 10  2  0  0  0  0
M  END
>  <CHROM.1>
1.91839303,-20.25533864,25.82969416,0.14852542,0.26731399,1.01614675

>  <Name>
ligand

>  <RI>
0

>  <Rbt.Current_Directory>
/home/itssahil/PROJECTS/Mol_Feturizer/New_Systems/rnas/4LW0

>  <Rbt.Executable>
rbdock ($Id: //depot/dev/client3/rdock/2013.1/src/exe/rbdock.cxx#4 $)

>  <Rbt.Library>
libRbt.so (2013.1, Build901 2013/11/27)

>  <Rbt.Parameter_File>
/export/apps/rDock/src/rDock_2013.1_src/data/scripts/dock_solv.prm

>  <Rbt.Receptor>
prm/pocket_docking_7.prm

>  <SCORE>
-13.4375

>  <SCORE.INTER>
-13.4375

>  <SCORE.INTER.CONST>
1

>  <SCORE.INTER.POLAR>
0

>  <SCORE.INTER.ROT>
0

>  <SCORE.INTER.SOLV>
4.09467

>  <SCORE.INTER.VDW>
-13.9232

>  <SCORE.INTER.norm>
-1.34375

>  <SCORE.INTRA>
0

>  <SCORE.INTRA.DIHEDRAL>
0

>  <SCORE.INTRA.DIHEDRAL.0>
0

>  <SCORE.INTRA.POLAR>
0

>  <SCORE.INTRA.POLAR.0>
0

>  <SCORE.INTRA.REPUL>
0

>  <SCORE.INTRA.REPUL.0>
0

>  <SCORE.INTRA.SOLV>
0

>  <SCORE.INTRA.SOLV.lig_0>
-23.9151

>  <SCORE.INTRA.VDW>
0

>  <SCORE.INTRA.VDW.0>
0

>  <SCORE.INTRA.norm>
0

>  <SCORE.RESTR>
0

>  <SCORE.RESTR.CAVITY>
0

>  <SCORE.RESTR.norm>
0

>  <SCORE.SYSTEM>
0

>  <SCORE.SYSTEM.CONST>
0

>  <SCORE.SYSTEM.DIHEDRAL>
0

>  <SCORE.SYSTEM.SOLV>
0

>  <SCORE.SYSTEM.norm>
0

>  <SCORE.heavy>
10

>  <SCORE.norm>
-1.34375

>  <RMSD>
1.003

$$$$
ligand
 OpenBabel11021811503D
libRbt.so/2013.1/901 2013/11/27
 10 11  0  0  0  0  0  0  0  0999 V2000
    3.7516  -19.4819   26.1284 N   0  0  0  0  0  0  0  0  0  0  0  0
    3.0327  -19.0609   27.1710 C   0  0  0  0  0  0  0  0  0  0  0  0
    1.7486  -19.3022   27.4626 N   0  0  0  0  0  0  0  0  0  0  0  0
    1.1846  -20.0678   26.5090 C   0  0  0  0  0  0  0  0  0  0  0  0
    1.7948  -20.5762   25.3782 C   0  0  0  0  0  0  0  0  0  0  0  0
    3.1546  -20.2584   25.1904 C   0  0  0  0  0  0  0  0  0  0  0  0
    3.8647  -20.6788   24.1312 N   0  0  0  0  0  0  0  0  0  0  0  0
    0.9067  -21.3271   24.6299 N   0  0  0  0  0  0  0  0  0  0  0  0
   -0.2071  -21.2689   25.3110 C   0  0  0  0  0  0  0  0  0  0  0  0
   -0.1130  -20.5174   26.4522 N   0  0  0  0  0  0  0  0  0  0  0  0
  1  2  2  0  0  0  0
  1  6  1  0  0  0  0
  2  3  1  0  0  0  0
  3  4  2  0  0  0  0
  4  5  1  0  0  0  0
  4 10  1  0  0  0  0
  5  6  2  0  0  0  0
  5  8  1  0  0  0  0
  6  7  1  0  0  0  0
  8  9  1  0  0  0  0
  9 10  2  0  0  0  0
M  END
>  <CHROM.1>
1.92101048,-20.25454708,25.83059732,0.14918111,0.26724348,1.01534804

>  <Name>
ligand

>  <RI>
0

>  <Rbt.Current_Directory>
/home/itssahil/PROJECTS/Mol_Feturizer/New_Systems/rnas/4LW0

>  <Rbt.Executable>
rbdock ($Id: //depot/dev/client3/rdock/2013.1/src/exe/rbdock.cxx#4 $)

>  <Rbt.Library>
libRbt.so (2013.1, Build901 2013/11/27)

>  <Rbt.Parameter_File>
/export/apps/rDock/src/rDock_2013.1_src/data/scripts/dock_solv.prm

>  <Rbt.Receptor>
prm/pocket_docking_6.prm

>  <SCORE>
-13.4418

>  <SCORE.INTER>
-13.4418

>  <SCORE.INTER.CONST>
1

>  <SCORE.INTER.POLAR>
0

>  <SCORE.INTER.ROT>
0

>  <SCORE.INTER.SOLV>
4.07676

>  <SCORE.INTER.VDW>
-13.9201

>  <SCORE.INTER.norm>
-1.34418

>  <SCORE.INTRA>
0

>  <SCORE.INTRA.DIHEDRAL>
0

>  <SCORE.INTRA.DIHEDRAL.0>
0

>  <SCORE.INTRA.POLAR>
0

>  <SCORE.INTRA.POLAR.0>
0

>  <SCORE.INTRA.REPUL>
0

>  <SCORE.INTRA.REPUL.0>
0

>  <SCORE.INTRA.SOLV>
0

>  <SCORE.INTRA.SOLV.lig_0>
-23.9151

>  <SCORE.INTRA.VDW>
0

>  <SCORE.INTRA.VDW.0>
0

>  <SCORE.INTRA.norm>
0

>  <SCORE.RESTR>
0

>  <SCORE.RESTR.CAVITY>
0

>  <SCORE.RESTR.norm>
0

>  <SCORE.SYSTEM>
0

>  <SCORE.SYSTEM.CONST>
0

>  <SCORE.SYSTEM.DIHEDRAL>
0

>  <SCORE.SYSTEM.SOLV>
0

>  <SCORE.SYSTEM.norm>
0

>  <SCORE.heavy>
10

>  <SCORE.norm>
-1.34418

>  <RMSD>
1.004

$$$$
ligand
 OpenBabel11021811503D
libRbt.so/2013.1/901 2013/11/27
 10 11  0  0  0  0  0  0  0  0999 V2000
    3.7521  -19.4797   26.1253 N   0  0  0  0  0  0  0  0  0  0  0  0
    3.0294  -19.0637   27.1672 C   0  0  0  0  0  0  0  0  0  0  0  0
    1.7466  -19.3136   27.4576 N   0  0  0  0  0  0  0  0  0  0  0  0
    1.1887  -20.0829   26.5033 C   0  0  0  0  0  0  0  0  0  0  0  0
    1.8034  -20.5870   25.3730 C   0  0  0  0  0  0  0  0  0  0  0  0
    3.1613  -20.2600   25.1866 C   0  0  0  0  0  0  0  0  0  0  0  0
    3.8752  -20.6754   24.1280 N   0  0  0  0  0  0  0  0  0  0  0  0
    0.9211  -21.3437   24.6237 N   0  0  0  0  0  0  0  0  0  0  0  0
   -0.1937  -21.2931   25.3037 C   0  0  0  0  0  0  0  0  0  0  0  0
   -0.1057  -20.5413   26.4451 N   0  0  0  0  0  0  0  0  0  0  0  0
  1  2  2  0  0  0  0
  1  6  1  0  0  0  0
  2  3  1  0  0  0  0
  3  4  2  0  0  0  0
  4  5  1  0  0  0  0
  4 10  1  0  0  0  0
  5  6  2  0  0  0  0
  5  8  1  0  0  0  0
  6  7  1  0  0  0  0
  8  9  1  0  0  0  0
  9 10  2  0  0  0  0
M  END
>  <CHROM.1>
1.92706246,-20.26456800,25.82557282,0.15371960,0.27245585,1.01429542

>  <Name>
ligand

>  <RI>
0

>  <Rbt.Current_Directory>
/home/itssahil/PROJECTS/Mol_Feturizer/New_Systems/rnas/4LW0

>  <Rbt.Executable>
rbdock ($Id: //depot/dev/client3/rdock/2013.1/src/exe/rbdock.cxx#4 $)

>  <Rbt.Library>
libRbt.so (2013.1, Build901 2013/11/27)

>  <Rbt.Parameter_File>
/export/apps/rDock/src/rDock_2013.1_src/data/scripts/dock_solv.prm

>  <Rbt.Receptor>
prm/pocket_docking_6.prm

>  <SCORE>
-13.4046

>  <SCORE.INTER>
-13.4046

>  <SCORE.INTER.CONST>
1

>  <SCORE.INTER.POLAR>
0

>  <SCORE.INTER.ROT>
0

>  <SCORE.INTER.SOLV>
4.03369

>  <SCORE.INTER.VDW>
-13.881

>  <SCORE.INTER.norm>
-1.34046

>  <SCORE.INTRA>
0

>  <SCORE.INTRA.DIHEDRAL>
0

>  <SCORE.INTRA.DIHEDRAL.0>
0

>  <SCORE.INTRA.POLAR>
0

>  <SCORE.INTRA.POLAR.0>
0

>  <SCORE.INTRA.REPUL>
0

>  <SCORE.INTRA.REPUL.0>
0

>  <SCORE.INTRA.SOLV>
0

>  <SCORE.INTRA.SOLV.lig_0>
-23.9151

>  <SCORE.INTRA.VDW>
0

>  <SCORE.INTRA.VDW.0>
0

>  <SCORE.INTRA.norm>
0

>  <SCORE.RESTR>
0

>  <SCORE.RESTR.CAVITY>
0

>  <SCORE.RESTR.norm>
0

>  <SCORE.SYSTEM>
0

>  <SCORE.SYSTEM.CONST>
0

>  <SCORE.SYSTEM.DIHEDRAL>
0

>  <SCORE.SYSTEM.SOLV>
0

>  <SCORE.SYSTEM.norm>
0

>  <SCORE.heavy>
10

>  <SCORE.norm>
-1.34046

>  <RMSD>
1.004

$$$$
ligand
 OpenBabel11021811503D
libRbt.so/2013.1/901 2013/11/27
 10 11  0  0  0  0  0  0  0  0999 V2000
    3.7519  -19.4788   26.1281 N   0  0  0  0  0  0  0  0  0  0  0  0
    3.0335  -19.0593   27.1716 C   0  0  0  0  0  0  0  0  0  0  0  0
    1.7498  -19.3019   27.4640 N   0  0  0  0  0  0  0  0  0  0  0  0
    1.1857  -20.0672   26.5101 C   0  0  0  0  0  0  0  0  0  0  0  0
    1.7954  -20.5740   25.3784 C   0  0  0  0  0  0  0  0  0  0  0  0
    3.1548  -20.2549   25.1898 C   0  0  0  0  0  0  0  0  0  0  0  0
    3.8645  -20.6737   24.1296 N   0  0  0  0  0  0  0  0  0  0  0  0
    0.9074  -21.3250   24.6301 N   0  0  0  0  0  0  0  0  0  0  0  0
   -0.2060  -21.2683   25.3121 C   0  0  0  0  0  0  0  0  0  0  0  0
   -0.1115  -20.5179   26.4539 N   0  0  0  0  0  0  0  0  0  0  0  0
  1  2  2  0  0  0  0
  1  6  1  0  0  0  0
  2  3  1  0  0  0  0
  3  4  2  0  0  0  0
  4  5  1  0  0  0  0
  4 10  1  0  0  0  0
  5  6  2  0  0  0  0
  5  8  1  0  0  0  0
  6  7  1  0  0  0  0
  8  9  1  0  0  0  0
  9 10  2  0  0  0  0
M  END
>  <CHROM.1>
1.92174808,-20.25265730,25.83097350,0.14895882,0.26837383,1.01633718

>  <Name>
ligand

>  <RI>
0

>  <Rbt.Current_Directory>
/home/itssahil/PROJECTS/Mol_Feturizer/New_Systems/rnas/4LW0

>  <Rbt.Executable>
rbdock ($Id: //depot/dev/client3/rdock/2013.1/src/exe/rbdock.cxx#4 $)

>  <Rbt.Library>
libRbt.so (2013.1, Build901 2013/11/27)

>  <Rbt.Parameter_File>
/export/apps/rDock/src/rDock_2013.1_src/data/scripts/dock_solv.prm

>  <Rbt.Receptor>
prm/pocket_docking_7.prm

>  <SCORE>
-13.4406

>  <SCORE.INTER>
-13.4406

>  <SCORE.INTER.CONST>
1

>  <SCORE.INTER.POLAR>
0

>  <SCORE.INTER.ROT>
0

>  <SCORE.INTER.SOLV>
4.07747

>  <SCORE.INTER.VDW>
-13.9196

>  <SCORE.INTER.norm>
-1.34406

>  <SCORE.INTRA>
0

>  <SCORE.INTRA.DIHEDRAL>
0

>  <SCORE.INTRA.DIHEDRAL.0>
0

>  <SCORE.INTRA.POLAR>
0

>  <SCORE.INTRA.POLAR.0>
0

>  <SCORE.INTRA.REPUL>
0

>  <SCORE.INTRA.REPUL.0>
0

>  <SCORE.INTRA.SOLV>
0

>  <SCORE.INTRA.SOLV.lig_0>
-23.9151

>  <SCORE.INTRA.VDW>
0

>  <SCORE.INTRA.VDW.0>
0

>  <SCORE.INTRA.norm>
0

>  <SCORE.RESTR>
0

>  <SCORE.RESTR.CAVITY>
0

>  <SCORE.RESTR.norm>
0

>  <SCORE.SYSTEM>
0

>  <SCORE.SYSTEM.CONST>
0

>  <SCORE.SYSTEM.DIHEDRAL>
0

>  <SCORE.SYSTEM.SOLV>
0

>  <SCORE.SYSTEM.norm>
0

>  <SCORE.heavy>
10

>  <SCORE.norm>
-1.34406

>  <RMSD>
1.004

$$$$
ligand
 OpenBabel11021811503D
libRbt.so/2013.1/901 2013/11/27
 10 11  0  0  0  0  0  0  0  0999 V2000
    3.7535  -19.4762   26.1256 N   0  0  0  0  0  0  0  0  0  0  0  0
    3.0326  -19.0583   27.1680 C   0  0  0  0  0  0  0  0  0  0  0  0
    1.7483  -19.3019   27.4574 N   0  0  0  0  0  0  0  0  0  0  0  0
    1.1867  -20.0663   26.5015 C   0  0  0  0  0  0  0  0  0  0  0  0
    1.7991  -20.5717   25.3705 C   0  0  0  0  0  0  0  0  0  0  0  0
    3.1588  -20.2517   25.1852 C   0  0  0  0  0  0  0  0  0  0  0  0
    3.8709  -20.6689   24.1261 N   0  0  0  0  0  0  0  0  0  0  0  0
    0.9131  -21.3223   24.6195 N   0  0  0  0  0  0  0  0  0  0  0  0
   -0.2017  -21.2669   25.2991 C   0  0  0  0  0  0  0  0  0  0  0  0
   -0.1102  -20.5176   26.4419 N   0  0  0  0  0  0  0  0  0  0  0  0
  1  2  2  0  0  0  0
  1  6  1  0  0  0  0
  2  3  1  0  0  0  0
  3  4  2  0  0  0  0
  4  5  1  0  0  0  0
  4 10  1  0  0  0  0
  5  6  2  0  0  0  0
  5  8  1  0  0  0  0
  6  7  1  0  0  0  0
  8  9  1  0  0  0  0
  9 10  2  0  0  0  0
M  END
>  <CHROM.1>
1.92431452,-20.25073440,25.82369098,0.15113465,0.26768352,1.01682276

>  <Name>
ligand

>  <RI>
0

>  <Rbt.Current_Directory>
/home/itssahil/PROJECTS/Mol_Feturizer/New_Systems/rnas/4LW0

>  <Rbt.Executable>
rbdock ($Id: //depot/dev/client3/rdock/2013.1/src/exe/rbdock.cxx#4 $)

>  <Rbt.Library>
libRbt.so (2013.1, Build901 2013/11/27)

>  <Rbt.Parameter_File>
/export/apps/rDock/src/rDock_2013.1_src/data/scripts/dock_solv.prm

>  <Rbt.Receptor>
prm/pocket_docking_4.prm

>  <SCORE>
-13.4384

>  <SCORE.INTER>
-13.4384

>  <SCORE.INTER.CONST>
1

>  <SCORE.INTER.POLAR>
0

>  <SCORE.INTER.ROT>
0

>  <SCORE.INTER.SOLV>
4.05866

>  <SCORE.INTER.VDW>
-13.9118

>  <SCORE.INTER.norm>
-1.34384

>  <SCORE.INTRA>
0

>  <SCORE.INTRA.DIHEDRAL>
0

>  <SCORE.INTRA.DIHEDRAL.0>
0

>  <SCORE.INTRA.POLAR>
0

>  <SCORE.INTRA.POLAR.0>
0

>  <SCORE.INTRA.REPUL>
0

>  <SCORE.INTRA.REPUL.0>
0

>  <SCORE.INTRA.SOLV>
0

>  <SCORE.INTRA.SOLV.lig_0>
-23.9151

>  <SCORE.INTRA.VDW>
0

>  <SCORE.INTRA.VDW.0>
0

>  <SCORE.INTRA.norm>
0

>  <SCORE.RESTR>
0

>  <SCORE.RESTR.CAVITY>
0

>  <SCORE.RESTR.norm>
0

>  <SCORE.SYSTEM>
0

>  <SCORE.SYSTEM.CONST>
0

>  <SCORE.SYSTEM.DIHEDRAL>
0

>  <SCORE.SYSTEM.SOLV>
0

>  <SCORE.SYSTEM.norm>
0

>  <SCORE.heavy>
10

>  <SCORE.norm>
-1.34384

>  <RMSD>
1.006

$$$$
ligand
 OpenBabel11021811503D
libRbt.so/2013.1/901 2013/11/27
 10 11  0  0  0  0  0  0  0  0999 V2000
    3.7511  -19.4786   26.1293 N   0  0  0  0  0  0  0  0  0  0  0  0
    3.0316  -19.0624   27.1734 C   0  0  0  0  0  0  0  0  0  0  0  0
    1.7479  -19.3067   27.4643 N   0  0  0  0  0  0  0  0  0  0  0  0
    1.1850  -20.0699   26.5081 C   0  0  0  0  0  0  0  0  0  0  0  0
    1.7960  -20.5734   25.3754 C   0  0  0  0  0  0  0  0  0  0  0  0
    3.1553  -20.2528   25.1886 C   0  0  0  0  0  0  0  0  0  0  0  0
    3.8660  -20.6683   24.1279 N   0  0  0  0  0  0  0  0  0  0  0  0
    0.9090  -21.3231   24.6246 N   0  0  0  0  0  0  0  0  0  0  0  0
   -0.2048  -21.2691   25.3059 C   0  0  0  0  0  0  0  0  0  0  0  0
   -0.1118  -20.5215   26.4497 N   0  0  0  0  0  0  0  0  0  0  0  0
  1  2  2  0  0  0  0
  1  6  1  0  0  0  0
  2  3  1  0  0  0  0
  3  4  2  0  0  0  0
  4  5  1  0  0  0  0
  4 10  1  0  0  0  0
  5  6  2  0  0  0  0
  5  8  1  0  0  0  0
  6  7  1  0  0  0  0
  8  9  1  0  0  0  0
  9 10  2  0  0  0  0
M  END
>  <CHROM.1>
1.92173202,-20.25311913,25.82892950,0.14999828,0.26865495,1.01862657

>  <Name>
ligand

>  <RI>
0

>  <Rbt.Current_Directory>
/home/itssahil/PROJECTS/Mol_Feturizer/New_Systems/rnas/4LW0

>  <Rbt.Executable>
rbdock ($Id: //depot/dev/client3/rdock/2013.1/src/exe/rbdock.cxx#4 $)

>  <Rbt.Library>
libRbt.so (2013.1, Build901 2013/11/27)

>  <Rbt.Parameter_File>
/export/apps/rDock/src/rDock_2013.1_src/data/scripts/dock_solv.prm

>  <Rbt.Receptor>
prm/pocket_docking_5.prm

>  <SCORE>
-13.4354

>  <SCORE.INTER>
-13.4354

>  <SCORE.INTER.CONST>
1

>  <SCORE.INTER.POLAR>
0

>  <SCORE.INTER.ROT>
0

>  <SCORE.INTER.SOLV>
4.07167

>  <SCORE.INTER.VDW>
-13.9142

>  <SCORE.INTER.norm>
-1.34354

>  <SCORE.INTRA>
0

>  <SCORE.INTRA.DIHEDRAL>
0

>  <SCORE.INTRA.DIHEDRAL.0>
0

>  <SCORE.INTRA.POLAR>
0

>  <SCORE.INTRA.POLAR.0>
0

>  <SCORE.INTRA.REPUL>
0

>  <SCORE.INTRA.REPUL.0>
0

>  <SCORE.INTRA.SOLV>
0

>  <SCORE.INTRA.SOLV.lig_0>
-23.9151

>  <SCORE.INTRA.VDW>
0

>  <SCORE.INTRA.VDW.0>
0

>  <SCORE.INTRA.norm>
0

>  <SCORE.RESTR>
0

>  <SCORE.RESTR.CAVITY>
0

>  <SCORE.RESTR.norm>
0

>  <SCORE.SYSTEM>
0

>  <SCORE.SYSTEM.CONST>
0

>  <SCORE.SYSTEM.DIHEDRAL>
0

>  <SCORE.SYSTEM.SOLV>
0

>  <SCORE.SYSTEM.norm>
0

>  <SCORE.heavy>
10

>  <SCORE.norm>
-1.34354

>  <RMSD>
1.006

$$$$
ligand
 OpenBabel11021811503D
libRbt.so/2013.1/901 2013/11/27
 10 11  0  0  0  0  0  0  0  0999 V2000
    3.7517  -19.4868   26.1316 N   0  0  0  0  0  0  0  0  0  0  0  0
    3.0309  -19.0696   27.1745 C   0  0  0  0  0  0  0  0  0  0  0  0
    1.7459  -19.3109   27.4623 N   0  0  0  0  0  0  0  0  0  0  0  0
    1.1832  -20.0718   26.5042 C   0  0  0  0  0  0  0  0  0  0  0  0
    1.7953  -20.5760   25.3725 C   0  0  0  0  0  0  0  0  0  0  0  0
    3.1559  -20.2587   25.1890 C   0  0  0  0  0  0  0  0  0  0  0  0
    3.8678  -20.6751   24.1294 N   0  0  0  0  0  0  0  0  0  0  0  0
    0.9081  -21.3227   24.6191 N   0  0  0  0  0  0  0  0  0  0  0  0
   -0.2071  -21.2663   25.2980 C   0  0  0  0  0  0  0  0  0  0  0  0
   -0.1147  -20.5199   26.4427 N   0  0  0  0  0  0  0  0  0  0  0  0
  1  2  2  0  0  0  0
  1  6  1  0  0  0  0
  2  3  1  0  0  0  0
  3  4  2  0  0  0  0
  4  5  1  0  0  0  0
  4 10  1  0  0  0  0
  5  6  2  0  0  0  0
  5  8  1  0  0  0  0
  6  7  1  0  0  0  0
  8  9  1  0  0  0  0
  9 10  2  0  0  0  0
M  END
>  <CHROM.1>
1.92091653,-20.25634293,25.82655164,0.15051545,0.26529388,1.01932432

>  <Name>
ligand

>  <RI>
0

>  <Rbt.Current_Directory>
/home/itssahil/PROJECTS/Mol_Feturizer/New_Systems/rnas/4LW0

>  <Rbt.Executable>
rbdock ($Id: //depot/dev/client3/rdock/2013.1/src/exe/rbdock.cxx#4 $)

>  <Rbt.Library>
libRbt.so (2013.1, Build901 2013/11/27)

>  <Rbt.Parameter_File>
/export/apps/rDock/src/rDock_2013.1_src/data/scripts/dock_solv.prm

>  <Rbt.Receptor>
prm/pocket_docking_6.prm

>  <SCORE>
-13.4336

>  <SCORE.INTER>
-13.4336

>  <SCORE.INTER.CONST>
1

>  <SCORE.INTER.POLAR>
0

>  <SCORE.INTER.ROT>
0

>  <SCORE.INTER.SOLV>
4.06605

>  <SCORE.INTER.VDW>
-13.9111

>  <SCORE.INTER.norm>
-1.34336

>  <SCORE.INTRA>
0

>  <SCORE.INTRA.DIHEDRAL>
0

>  <SCORE.INTRA.DIHEDRAL.0>
0

>  <SCORE.INTRA.POLAR>
0

>  <SCORE.INTRA.POLAR.0>
0

>  <SCORE.INTRA.REPUL>
0

>  <SCORE.INTRA.REPUL.0>
0

>  <SCORE.INTRA.SOLV>
0

>  <SCORE.INTRA.SOLV.lig_0>
-23.9151

>  <SCORE.INTRA.VDW>
0

>  <SCORE.INTRA.VDW.0>
0

>  <SCORE.INTRA.norm>
0

>  <SCORE.RESTR>
0

>  <SCORE.RESTR.CAVITY>
0

>  <SCORE.RESTR.norm>
0

>  <SCORE.SYSTEM>
0

>  <SCORE.SYSTEM.CONST>
0

>  <SCORE.SYSTEM.DIHEDRAL>
0

>  <SCORE.SYSTEM.SOLV>
0

>  <SCORE.SYSTEM.norm>
0

>  <SCORE.heavy>
10

>  <SCORE.norm>
-1.34336

>  <RMSD>
1.006

$$$$
ligand
 OpenBabel11021811503D
libRbt.so/2013.1/901 2013/11/27
 10 11  0  0  0  0  0  0  0  0999 V2000
    3.7580  -19.4800   26.1309 N   0  0  0  0  0  0  0  0  0  0  0  0
    3.0338  -19.0559   27.1685 C   0  0  0  0  0  0  0  0  0  0  0  0
    1.7496  -19.3005   27.4572 N   0  0  0  0  0  0  0  0  0  0  0  0
    1.1919  -20.0739   26.5060 C   0  0  0  0  0  0  0  0  0  0  0  0
    1.8081  -20.5864   25.3803 C   0  0  0  0  0  0  0  0  0  0  0  0
    3.1672  -20.2643   25.1953 C   0  0  0  0  0  0  0  0  0  0  0  0
    3.8827  -20.6879   24.1409 N   0  0  0  0  0  0  0  0  0  0  0  0
    0.9255  -21.3451   24.6333 N   0  0  0  0  0  0  0  0  0  0  0  0
   -0.1909  -21.2873   25.3102 C   0  0  0  0  0  0  0  0  0  0  0  0
   -0.1036  -20.5290   26.4473 N   0  0  0  0  0  0  0  0  0  0  0  0
  1  2  2  0  0  0  0
  1  6  1  0  0  0  0
  2  3  1  0  0  0  0
  3  4  2  0  0  0  0
  4  5  1  0  0  0  0
  4 10  1  0  0  0  0
  5  6  2  0  0  0  0
  5  8  1  0  0  0  0
  6  7  1  0  0  0  0
  8  9  1  0  0  0  0
  9 10  2  0  0  0  0
M  END
>  <CHROM.1>
1.93145348,-20.26160298,25.83122651,0.15437186,0.26877856,1.00820637

>  <Name>
ligand

>  <RI>
0

>  <Rbt.Current_Directory>
/home/itssahil/PROJECTS/Mol_Feturizer/New_Systems/rnas/4LW0

>  <Rbt.Executable>
rbdock ($Id: //depot/dev/client3/rdock/2013.1/src/exe/rbdock.cxx#4 $)

>  <Rbt.Library>
libRbt.so (2013.1, Build901 2013/11/27)

>  <Rbt.Parameter_File>
/export/apps/rDock/src/rDock_2013.1_src/data/scripts/dock_solv.prm

>  <Rbt.Receptor>
prm/pocket_docking_6.prm

>  <SCORE>
-13.3984

>  <SCORE.INTER>
-13.3984

>  <SCORE.INTER.CONST>
1

>  <SCORE.INTER.POLAR>
0

>  <SCORE.INTER.ROT>
0

>  <SCORE.INTER.SOLV>
3.99322

>  <SCORE.INTER.VDW>
-13.8633

>  <SCORE.INTER.norm>
-1.33984

>  <SCORE.INTRA>
0

>  <SCORE.INTRA.DIHEDRAL>
0

>  <SCORE.INTRA.DIHEDRAL.0>
0

>  <SCORE.INTRA.POLAR>
0

>  <SCORE.INTRA.POLAR.0>
0

>  <SCORE.INTRA.REPUL>
0

>  <SCORE.INTRA.REPUL.0>
0

>  <SCORE.INTRA.SOLV>
0

>  <SCORE.INTRA.SOLV.lig_0>
-23.9151

>  <SCORE.INTRA.VDW>
0

>  <SCORE.INTRA.VDW.0>
0

>  <SCORE.INTRA.norm>
0

>  <SCORE.RESTR>
0

>  <SCORE.RESTR.CAVITY>
0

>  <SCORE.RESTR.norm>
0

>  <SCORE.SYSTEM>
0

>  <SCORE.SYSTEM.CONST>
0

>  <SCORE.SYSTEM.DIHEDRAL>
0

>  <SCORE.SYSTEM.SOLV>
0

>  <SCORE.SYSTEM.norm>
0

>  <SCORE.heavy>
10

>  <SCORE.norm>
-1.33984

>  <RMSD>
1.006

$$$$
ligand
 OpenBabel11021811503D
libRbt.so/2013.1/901 2013/11/27
 10 11  0  0  0  0  0  0  0  0999 V2000
    3.7505  -19.4860   26.1308 N   0  0  0  0  0  0  0  0  0  0  0  0
    3.0301  -19.0707   27.1747 C   0  0  0  0  0  0  0  0  0  0  0  0
    1.7454  -19.3129   27.4629 N   0  0  0  0  0  0  0  0  0  0  0  0
    1.1825  -20.0727   26.5040 C   0  0  0  0  0  0  0  0  0  0  0  0
    1.7942  -20.5749   25.3712 C   0  0  0  0  0  0  0  0  0  0  0  0
    3.1545  -20.2567   25.1874 C   0  0  0  0  0  0  0  0  0  0  0  0
    3.8661  -20.6714   24.1268 N   0  0  0  0  0  0  0  0  0  0  0  0
    0.9069  -21.3209   24.6172 N   0  0  0  0  0  0  0  0  0  0  0  0
   -0.2080  -21.2660   25.2968 C   0  0  0  0  0  0  0  0  0  0  0  0
   -0.1152  -20.5212   26.4425 N   0  0  0  0  0  0  0  0  0  0  0  0
  1  2  2  0  0  0  0
  1  6  1  0  0  0  0
  2  3  1  0  0  0  0
  3  4  2  0  0  0  0
  4  5  1  0  0  0  0
  4 10  1  0  0  0  0
  5  6  2  0  0  0  0
  5  8  1  0  0  0  0
  6  7  1  0  0  0  0
  8  9  1  0  0  0  0
  9 10  2  0  0  0  0
M  END
>  <CHROM.1>
1.91989235,-20.25588185,25.82564723,0.15026316,0.26594054,1.02086655

>  <Name>
ligand

>  <RI>
0

>  <Rbt.Current_Directory>
/home/itssahil/PROJECTS/Mol_Feturizer/New_Systems/rnas/4LW0

>  <Rbt.Executable>
rbdock ($Id: //depot/dev/client3/rdock/2013.1/src/exe/rbdock.cxx#4 $)

>  <Rbt.Library>
libRbt.so (2013.1, Build901 2013/11/27)

>  <Rbt.Parameter_File>
/export/apps/rDock/src/rDock_2013.1_src/data/scripts/dock_solv.prm

>  <Rbt.Receptor>
prm/pocket_docking_6.prm

>  <SCORE>
-13.429

>  <SCORE.INTER>
-13.429

>  <SCORE.INTER.CONST>
1

>  <SCORE.INTER.POLAR>
0

>  <SCORE.INTER.ROT>
0

>  <SCORE.INTER.SOLV>
4.07499

>  <SCORE.INTER.VDW>
-13.911

>  <SCORE.INTER.norm>
-1.3429

>  <SCORE.INTRA>
0

>  <SCORE.INTRA.DIHEDRAL>
0

>  <SCORE.INTRA.DIHEDRAL.0>
0

>  <SCORE.INTRA.POLAR>
0

>  <SCORE.INTRA.POLAR.0>
0

>  <SCORE.INTRA.REPUL>
0

>  <SCORE.INTRA.REPUL.0>
0

>  <SCORE.INTRA.SOLV>
0

>  <SCORE.INTRA.SOLV.lig_0>
-23.9151

>  <SCORE.INTRA.VDW>
0

>  <SCORE.INTRA.VDW.0>
0

>  <SCORE.INTRA.norm>
0

>  <SCORE.RESTR>
0

>  <SCORE.RESTR.CAVITY>
0

>  <SCORE.RESTR.norm>
0

>  <SCORE.SYSTEM>
0

>  <SCORE.SYSTEM.CONST>
0

>  <SCORE.SYSTEM.DIHEDRAL>
0

>  <SCORE.SYSTEM.SOLV>
0

>  <SCORE.SYSTEM.norm>
0

>  <SCORE.heavy>
10

>  <SCORE.norm>
-1.3429

>  <RMSD>
1.006

$$$$
ligand
 OpenBabel11021811503D
libRbt.so/2013.1/901 2013/11/27
 10 11  0  0  0  0  0  0  0  0999 V2000
    3.7539  -19.4688   26.1258 N   0  0  0  0  0  0  0  0  0  0  0  0
    3.0343  -19.0541   27.1704 C   0  0  0  0  0  0  0  0  0  0  0  0
    1.7512  -19.3010   27.4621 N   0  0  0  0  0  0  0  0  0  0  0  0
    1.1892  -20.0652   26.5062 C   0  0  0  0  0  0  0  0  0  0  0  0
    1.8003  -20.5674   25.3731 C   0  0  0  0  0  0  0  0  0  0  0  0
    3.1589  -20.2441   25.1854 C   0  0  0  0  0  0  0  0  0  0  0  0
    3.8697  -20.6581   24.1241 N   0  0  0  0  0  0  0  0  0  0  0  0
    0.9143  -21.3187   24.6228 N   0  0  0  0  0  0  0  0  0  0  0  0
   -0.1992  -21.2669   25.3049 C   0  0  0  0  0  0  0  0  0  0  0  0
   -0.1068  -20.5192   26.4487 N   0  0  0  0  0  0  0  0  0  0  0  0
  1  2  2  0  0  0  0
  1  6  1  0  0  0  0
  2  3  1  0  0  0  0
  3  4  2  0  0  0  0
  4  5  1  0  0  0  0
  4 10  1  0  0  0  0
  5  6  2  0  0  0  0
  5  8  1  0  0  0  0
  6  7  1  0  0  0  0
  8  9  1  0  0  0  0
  9 10  2  0  0  0  0
M  END
>  <CHROM.1>
1.92576623,-20.24686741,25.82656998,0.15043175,0.27066362,1.01859436

>  <Name>
ligand

>  <RI>
0

>  <Rbt.Current_Directory>
/home/itssahil/PROJECTS/Mol_Feturizer/New_Systems/rnas/4LW0

>  <Rbt.Executable>
rbdock ($Id: //depot/dev/client3/rdock/2013.1/src/exe/rbdock.cxx#4 $)

>  <Rbt.Library>
libRbt.so (2013.1, Build901 2013/11/27)

>  <Rbt.Parameter_File>
/export/apps/rDock/src/rDock_2013.1_src/data/scripts/dock_solv.prm

>  <Rbt.Receptor>
prm/pocket_docking_7.prm

>  <SCORE>
-13.4373

>  <SCORE.INTER>
-13.4373

>  <SCORE.INTER.CONST>
1

>  <SCORE.INTER.POLAR>
0

>  <SCORE.INTER.ROT>
0

>  <SCORE.INTER.SOLV>
4.06045

>  <SCORE.INTER.VDW>
-13.9117

>  <SCORE.INTER.norm>
-1.34373

>  <SCORE.INTRA>
0

>  <SCORE.INTRA.DIHEDRAL>
0

>  <SCORE.INTRA.DIHEDRAL.0>
0

>  <SCORE.INTRA.POLAR>
0

>  <SCORE.INTRA.POLAR.0>
0

>  <SCORE.INTRA.REPUL>
0

>  <SCORE.INTRA.REPUL.0>
0

>  <SCORE.INTRA.SOLV>
0

>  <SCORE.INTRA.SOLV.lig_0>
-23.9151

>  <SCORE.INTRA.VDW>
0

>  <SCORE.INTRA.VDW.0>
0

>  <SCORE.INTRA.norm>
0

>  <SCORE.RESTR>
0

>  <SCORE.RESTR.CAVITY>
0

>  <SCORE.RESTR.norm>
0

>  <SCORE.SYSTEM>
0

>  <SCORE.SYSTEM.CONST>
0

>  <SCORE.SYSTEM.DIHEDRAL>
0

>  <SCORE.SYSTEM.SOLV>
0

>  <SCORE.SYSTEM.norm>
0

>  <SCORE.heavy>
10

>  <SCORE.norm>
-1.34373

>  <RMSD>
1.006

$$$$
ligand
 OpenBabel11021811503D
libRbt.so/2013.1/901 2013/11/27
 10 11  0  0  0  0  0  0  0  0999 V2000
    3.7543  -19.4720   26.1253 N   0  0  0  0  0  0  0  0  0  0  0  0
    3.0335  -19.0573   27.1692 C   0  0  0  0  0  0  0  0  0  0  0  0
    1.7500  -19.3036   27.4592 N   0  0  0  0  0  0  0  0  0  0  0  0
    1.1888  -20.0673   26.5024 C   0  0  0  0  0  0  0  0  0  0  0  0
    1.8012  -20.5695   25.3699 C   0  0  0  0  0  0  0  0  0  0  0  0
    3.1601  -20.2468   25.1840 C   0  0  0  0  0  0  0  0  0  0  0  0
    3.8721  -20.6608   24.1236 N   0  0  0  0  0  0  0  0  0  0  0  0
    0.9158  -21.3203   24.6183 N   0  0  0  0  0  0  0  0  0  0  0  0
   -0.1985  -21.2681   25.2990 C   0  0  0  0  0  0  0  0  0  0  0  0
   -0.1073  -20.5208   26.4431 N   0  0  0  0  0  0  0  0  0  0  0  0
  1  2  2  0  0  0  0
  1  6  1  0  0  0  0
  2  3  1  0  0  0  0
  3  4  2  0  0  0  0
  4  5  1  0  0  0  0
  4 10  1  0  0  0  0
  5  6  2  0  0  0  0
  5  8  1  0  0  0  0
  6  7  1  0  0  0  0
  8  9  1  0  0  0  0
  9 10  2  0  0  0  0
M  END
>  <CHROM.1>
1.92619603,-20.24917723,25.82362068,0.15131722,0.26963142,1.01863035

>  <Name>
ligand

>  <RI>
0

>  <Rbt.Current_Directory>
/home/itssahil/PROJECTS/Mol_Feturizer/New_Systems/rnas/4LW0

>  <Rbt.Executable>
rbdock ($Id: //depot/dev/client3/rdock/2013.1/src/exe/rbdock.cxx#4 $)

>  <Rbt.Library>
libRbt.so (2013.1, Build901 2013/11/27)

>  <Rbt.Parameter_File>
/export/apps/rDock/src/rDock_2013.1_src/data/scripts/dock_solv.prm

>  <Rbt.Receptor>
prm/pocket_docking_3.prm

>  <SCORE>
-13.4373

>  <SCORE.INTER>
-13.4373

>  <SCORE.INTER.CONST>
1

>  <SCORE.INTER.POLAR>
0

>  <SCORE.INTER.ROT>
0

>  <SCORE.INTER.SOLV>
4.05343

>  <SCORE.INTER.VDW>
-13.9094

>  <SCORE.INTER.norm>
-1.34373

>  <SCORE.INTRA>
0

>  <SCORE.INTRA.DIHEDRAL>
0

>  <SCORE.INTRA.DIHEDRAL.0>
0

>  <SCORE.INTRA.POLAR>
0

>  <SCORE.INTRA.POLAR.0>
0

>  <SCORE.INTRA.REPUL>
0

>  <SCORE.INTRA.REPUL.0>
0

>  <SCORE.INTRA.SOLV>
0

>  <SCORE.INTRA.SOLV.lig_0>
-23.9151

>  <SCORE.INTRA.VDW>
0

>  <SCORE.INTRA.VDW.0>
0

>  <SCORE.INTRA.norm>
0

>  <SCORE.RESTR>
0

>  <SCORE.RESTR.CAVITY>
0

>  <SCORE.RESTR.norm>
0

>  <SCORE.SYSTEM>
0

>  <SCORE.SYSTEM.CONST>
0

>  <SCORE.SYSTEM.DIHEDRAL>
0

>  <SCORE.SYSTEM.SOLV>
0

>  <SCORE.SYSTEM.norm>
0

>  <SCORE.heavy>
10

>  <SCORE.norm>
-1.34373

>  <RMSD>
1.007

$$$$
ligand
 OpenBabel11021811503D
libRbt.so/2013.1/901 2013/11/27
 10 11  0  0  0  0  0  0  0  0999 V2000
    3.7583  -19.4760   26.1317 N   0  0  0  0  0  0  0  0  0  0  0  0
    3.0342  -19.0538   27.1701 C   0  0  0  0  0  0  0  0  0  0  0  0
    1.7504  -19.3002   27.4591 N   0  0  0  0  0  0  0  0  0  0  0  0
    1.1932  -20.0731   26.5075 C   0  0  0  0  0  0  0  0  0  0  0  0
    1.8093  -20.5837   25.3808 C   0  0  0  0  0  0  0  0  0  0  0  0
    3.1680  -20.2599   25.1955 C   0  0  0  0  0  0  0  0  0  0  0  0
    3.8834  -20.6816   24.1404 N   0  0  0  0  0  0  0  0  0  0  0  0
    0.9272  -21.3426   24.6335 N   0  0  0  0  0  0  0  0  0  0  0  0
   -0.1889  -21.2868   25.3110 C   0  0  0  0  0  0  0  0  0  0  0  0
   -0.1019  -20.5296   26.4489 N   0  0  0  0  0  0  0  0  0  0  0  0
  1  2  2  0  0  0  0
  1  6  1  0  0  0  0
  2  3  1  0  0  0  0
  3  4  2  0  0  0  0
  4  5  1  0  0  0  0
  4 10  1  0  0  0  0
  5  6  2  0  0  0  0
  5  8  1  0  0  0  0
  6  7  1  0  0  0  0
  8  9  1  0  0  0  0
  9 10  2  0  0  0  0
M  END
>  <CHROM.1>
1.93255603,-20.25928134,25.83208162,0.15456287,0.26998965,1.00923990

>  <Name>
ligand

>  <RI>
0

>  <Rbt.Current_Directory>
/home/itssahil/PROJECTS/Mol_Feturizer/New_Systems/rnas/4LW0

>  <Rbt.Executable>
rbdock ($Id: //depot/dev/client3/rdock/2013.1/src/exe/rbdock.cxx#4 $)

>  <Rbt.Library>
libRbt.so (2013.1, Build901 2013/11/27)

>  <Rbt.Parameter_File>
/export/apps/rDock/src/rDock_2013.1_src/data/scripts/dock_solv.prm

>  <Rbt.Receptor>
prm/pocket_docking_5.prm

>  <SCORE>
-13.3971

>  <SCORE.INTER>
-13.3971

>  <SCORE.INTER.CONST>
1

>  <SCORE.INTER.POLAR>
0

>  <SCORE.INTER.ROT>
0

>  <SCORE.INTER.SOLV>
3.98819

>  <SCORE.INTER.VDW>
-13.8608

>  <SCORE.INTER.norm>
-1.33971

>  <SCORE.INTRA>
0

>  <SCORE.INTRA.DIHEDRAL>
0

>  <SCORE.INTRA.DIHEDRAL.0>
0

>  <SCORE.INTRA.POLAR>
0

>  <SCORE.INTRA.POLAR.0>
0

>  <SCORE.INTRA.REPUL>
0

>  <SCORE.INTRA.REPUL.0>
0

>  <SCORE.INTRA.SOLV>
0

>  <SCORE.INTRA.SOLV.lig_0>
-23.9151

>  <SCORE.INTRA.VDW>
0

>  <SCORE.INTRA.VDW.0>
0

>  <SCORE.INTRA.norm>
0

>  <SCORE.RESTR>
0

>  <SCORE.RESTR.CAVITY>
0

>  <SCORE.RESTR.norm>
0

>  <SCORE.SYSTEM>
0

>  <SCORE.SYSTEM.CONST>
0

>  <SCORE.SYSTEM.DIHEDRAL>
0

>  <SCORE.SYSTEM.SOLV>
0

>  <SCORE.SYSTEM.norm>
0

>  <SCORE.heavy>
10

>  <SCORE.norm>
-1.33971

>  <RMSD>
1.007

$$$$
ligand
 OpenBabel11021811503D
libRbt.so/2013.1/901 2013/11/27
 10 11  0  0  0  0  0  0  0  0999 V2000
    3.7547  -19.4629   26.1238 N   0  0  0  0  0  0  0  0  0  0  0  0
    3.0327  -19.0571   27.1702 C   0  0  0  0  0  0  0  0  0  0  0  0
    1.7518  -19.3150   27.4622 N   0  0  0  0  0  0  0  0  0  0  0  0
    1.1951  -20.0806   26.5043 C   0  0  0  0  0  0  0  0  0  0  0  0
    1.8093  -20.5745   25.3692 C   0  0  0  0  0  0  0  0  0  0  0  0
    3.1651  -20.2399   25.1815 C   0  0  0  0  0  0  0  0  0  0  0  0
    3.8783  -20.6450   24.1184 N   0  0  0  0  0  0  0  0  0  0  0  0
    0.9286  -21.3305   24.6173 N   0  0  0  0  0  0  0  0  0  0  0  0
   -0.1847  -21.2896   25.3004 C   0  0  0  0  0  0  0  0  0  0  0  0
   -0.0973  -20.5447   26.4465 N   0  0  0  0  0  0  0  0  0  0  0  0
  1  2  2  0  0  0  0
  1  6  1  0  0  0  0
  2  3  1  0  0  0  0
  3  4  2  0  0  0  0
  4  5  1  0  0  0  0
  4 10  1  0  0  0  0
  5  6  2  0  0  0  0
  5  8  1  0  0  0  0
  6  7  1  0  0  0  0
  8  9  1  0  0  0  0
  9 10  2  0  0  0  0
M  END
>  <CHROM.1>
1.93255380,-20.25439827,25.82355627,0.15403993,0.27780954,1.02071647

>  <Name>
ligand

>  <RI>
0

>  <Rbt.Current_Directory>
/home/itssahil/PROJECTS/Mol_Feturizer/New_Systems/rnas/4LW0

>  <Rbt.Executable>
rbdock ($Id: //depot/dev/client3/rdock/2013.1/src/exe/rbdock.cxx#4 $)

>  <Rbt.Library>
libRbt.so (2013.1, Build901 2013/11/27)

>  <Rbt.Parameter_File>
/export/apps/rDock/src/rDock_2013.1_src/data/scripts/dock_solv.prm

>  <Rbt.Receptor>
prm/pocket_docking_5.prm

>  <SCORE>
-13.3982

>  <SCORE.INTER>
-13.3982

>  <SCORE.INTER.CONST>
1

>  <SCORE.INTER.POLAR>
0

>  <SCORE.INTER.ROT>
0

>  <SCORE.INTER.SOLV>
4.0221

>  <SCORE.INTER.VDW>
-13.8728

>  <SCORE.INTER.norm>
-1.33982

>  <SCORE.INTRA>
0

>  <SCORE.INTRA.DIHEDRAL>
0

>  <SCORE.INTRA.DIHEDRAL.0>
0

>  <SCORE.INTRA.POLAR>
0

>  <SCORE.INTRA.POLAR.0>
0

>  <SCORE.INTRA.REPUL>
0

>  <SCORE.INTRA.REPUL.0>
0

>  <SCORE.INTRA.SOLV>
0

>  <SCORE.INTRA.SOLV.lig_0>
-23.9151

>  <SCORE.INTRA.VDW>
0

>  <SCORE.INTRA.VDW.0>
0

>  <SCORE.INTRA.norm>
0

>  <SCORE.RESTR>
0

>  <SCORE.RESTR.CAVITY>
0

>  <SCORE.RESTR.norm>
0

>  <SCORE.SYSTEM>
0

>  <SCORE.SYSTEM.CONST>
0

>  <SCORE.SYSTEM.DIHEDRAL>
0

>  <SCORE.SYSTEM.SOLV>
0

>  <SCORE.SYSTEM.norm>
0

>  <SCORE.heavy>
10

>  <SCORE.norm>
-1.33982

>  <RMSD>
1.007

$$$$
ligand
 OpenBabel11021811503D
libRbt.so/2013.1/901 2013/11/27
 10 11  0  0  0  0  0  0  0  0999 V2000
    3.7529  -19.4758   26.1283 N   0  0  0  0  0  0  0  0  0  0  0  0
    3.0300  -19.0702   27.1742 C   0  0  0  0  0  0  0  0  0  0  0  0
    1.7482  -19.3262   27.4638 N   0  0  0  0  0  0  0  0  0  0  0  0
    1.1916  -20.0896   26.5040 C   0  0  0  0  0  0  0  0  0  0  0  0
    1.8067  -20.5830   25.3691 C   0  0  0  0  0  0  0  0  0  0  0  0
    3.1634  -20.2505   25.1840 C   0  0  0  0  0  0  0  0  0  0  0  0
    3.8776  -20.6555   24.1215 N   0  0  0  0  0  0  0  0  0  0  0  0
    0.9259  -21.3364   24.6148 N   0  0  0  0  0  0  0  0  0  0  0  0
   -0.1884  -21.2944   25.2962 C   0  0  0  0  0  0  0  0  0  0  0  0
   -0.1015  -20.5513   26.4434 N   0  0  0  0  0  0  0  0  0  0  0  0
  1  2  2  0  0  0  0
  1  6  1  0  0  0  0
  2  3  1  0  0  0  0
  3  4  2  0  0  0  0
  4  5  1  0  0  0  0
  4 10  1  0  0  0  0
  5  6  2  0  0  0  0
  5  8  1  0  0  0  0
  6  7  1  0  0  0  0
  8  9  1  0  0  0  0
  9 10  2  0  0  0  0
M  END
>  <CHROM.1>
1.92983650,-20.26373268,25.82413364,0.15447353,0.27547384,1.02197047

>  <Name>
ligand

>  <RI>
0

>  <Rbt.Current_Directory>
/home/itssahil/PROJECTS/Mol_Feturizer/New_Systems/rnas/4LW0

>  <Rbt.Executable>
rbdock ($Id: //depot/dev/client3/rdock/2013.1/src/exe/rbdock.cxx#4 $)

>  <Rbt.Library>
libRbt.so (2013.1, Build901 2013/11/27)

>  <Rbt.Parameter_File>
/export/apps/rDock/src/rDock_2013.1_src/data/scripts/dock_solv.prm

>  <Rbt.Receptor>
prm/pocket_docking_5.prm

>  <SCORE>
-13.3904

>  <SCORE.INTER>
-13.3904

>  <SCORE.INTER.CONST>
1

>  <SCORE.INTER.POLAR>
0

>  <SCORE.INTER.ROT>
0

>  <SCORE.INTER.SOLV>
4.02193

>  <SCORE.INTER.VDW>
-13.8676

>  <SCORE.INTER.norm>
-1.33904

>  <SCORE.INTRA>
0

>  <SCORE.INTRA.DIHEDRAL>
0

>  <SCORE.INTRA.DIHEDRAL.0>
0

>  <SCORE.INTRA.POLAR>
0

>  <SCORE.INTRA.POLAR.0>
0

>  <SCORE.INTRA.REPUL>
0

>  <SCORE.INTRA.REPUL.0>
0

>  <SCORE.INTRA.SOLV>
0

>  <SCORE.INTRA.SOLV.lig_0>
-23.9151

>  <SCORE.INTRA.VDW>
0

>  <SCORE.INTRA.VDW.0>
0

>  <SCORE.INTRA.norm>
0

>  <SCORE.RESTR>
0

>  <SCORE.RESTR.CAVITY>
0

>  <SCORE.RESTR.norm>
0

>  <SCORE.SYSTEM>
0

>  <SCORE.SYSTEM.CONST>
0

>  <SCORE.SYSTEM.DIHEDRAL>
0

>  <SCORE.SYSTEM.SOLV>
0

>  <SCORE.SYSTEM.norm>
0

>  <SCORE.heavy>
10

>  <SCORE.norm>
-1.33904

>  <RMSD>
1.007

$$$$
ligand
 OpenBabel11021811503D
libRbt.so/2013.1/901 2013/11/27
 10 11  0  0  0  0  0  0  0  0999 V2000
    3.7484  -19.4947   26.1374 N   0  0  0  0  0  0  0  0  0  0  0  0
    3.0299  -19.0764   27.1814 C   0  0  0  0  0  0  0  0  0  0  0  0
    1.7438  -19.3122   27.4690 N   0  0  0  0  0  0  0  0  0  0  0  0
    1.1773  -20.0684   26.5094 C   0  0  0  0  0  0  0  0  0  0  0  0
    1.7868  -20.5730   25.3764 C   0  0  0  0  0  0  0  0  0  0  0  0
    3.1488  -20.2617   25.1933 C   0  0  0  0  0  0  0  0  0  0  0  0
    3.8586  -20.6793   24.1327 N   0  0  0  0  0  0  0  0  0  0  0  0
    0.8959  -21.3139   24.6216 N   0  0  0  0  0  0  0  0  0  0  0  0
   -0.2189  -21.2537   25.3009 C   0  0  0  0  0  0  0  0  0  0  0  0
   -0.1227  -20.5103   26.4471 N   0  0  0  0  0  0  0  0  0  0  0  0
  1  2  2  0  0  0  0
  1  6  1  0  0  0  0
  2  3  1  0  0  0  0
  3  4  2  0  0  0  0
  4  5  1  0  0  0  0
  4 10  1  0  0  0  0
  5  6  2  0  0  0  0
  5  8  1  0  0  0  0
  6  7  1  0  0  0  0
  8  9  1  0  0  0  0
  9 10  2  0  0  0  0
M  END
>  <CHROM.1>
1.91400358,-20.25496217,25.83112036,0.14777097,0.26138627,1.02220064

>  <Name>
ligand

>  <RI>
0

>  <Rbt.Current_Directory>
/home/itssahil/PROJECTS/Mol_Feturizer/New_Systems/rnas/4LW0

>  <Rbt.Executable>
rbdock ($Id: //depot/dev/client3/rdock/2013.1/src/exe/rbdock.cxx#4 $)

>  <Rbt.Library>
libRbt.so (2013.1, Build901 2013/11/27)

>  <Rbt.Parameter_File>
/export/apps/rDock/src/rDock_2013.1_src/data/scripts/dock_solv.prm

>  <Rbt.Receptor>
prm/pocket_docking_5.prm

>  <SCORE>
-13.4228

>  <SCORE.INTER>
-13.4228

>  <SCORE.INTER.CONST>
1

>  <SCORE.INTER.POLAR>
0

>  <SCORE.INTER.ROT>
0

>  <SCORE.INTER.SOLV>
4.09991

>  <SCORE.INTER.VDW>
-13.9152

>  <SCORE.INTER.norm>
-1.34228

>  <SCORE.INTRA>
0

>  <SCORE.INTRA.DIHEDRAL>
0

>  <SCORE.INTRA.DIHEDRAL.0>
0

>  <SCORE.INTRA.POLAR>
0

>  <SCORE.INTRA.POLAR.0>
0

>  <SCORE.INTRA.REPUL>
0

>  <SCORE.INTRA.REPUL.0>
0

>  <SCORE.INTRA.SOLV>
0

>  <SCORE.INTRA.SOLV.lig_0>
-23.9151

>  <SCORE.INTRA.VDW>
0

>  <SCORE.INTRA.VDW.0>
0

>  <SCORE.INTRA.norm>
0

>  <SCORE.RESTR>
0

>  <SCORE.RESTR.CAVITY>
0

>  <SCORE.RESTR.norm>
0

>  <SCORE.SYSTEM>
0

>  <SCORE.SYSTEM.CONST>
0

>  <SCORE.SYSTEM.DIHEDRAL>
0

>  <SCORE.SYSTEM.SOLV>
0

>  <SCORE.SYSTEM.norm>
0

>  <SCORE.heavy>
10

>  <SCORE.norm>
-1.34228

>  <RMSD>
1.007

$$$$
ligand
 OpenBabel11021811503D
libRbt.so/2013.1/901 2013/11/27
 10 11  0  0  0  0  0  0  0  0999 V2000
    3.7545  -19.5019   26.1466 N   0  0  0  0  0  0  0  0  0  0  0  0
    3.0327  -19.0798   27.1867 C   0  0  0  0  0  0  0  0  0  0  0  0
    1.7460  -19.3157   27.4718 N   0  0  0  0  0  0  0  0  0  0  0  0
    1.1830  -20.0767   26.5138 C   0  0  0  0  0  0  0  0  0  0  0  0
    1.7962  -20.5855   25.3848 C   0  0  0  0  0  0  0  0  0  0  0  0
    3.1584  -20.2736   25.2041 C   0  0  0  0  0  0  0  0  0  0  0  0
    3.8716  -20.6950   24.1473 N   0  0  0  0  0  0  0  0  0  0  0  0
    0.9082  -21.3306   24.6307 N   0  0  0  0  0  0  0  0  0  0  0  0
   -0.2085  -21.2687   25.3066 C   0  0  0  0  0  0  0  0  0  0  0  0
   -0.1163  -20.5202   26.4499 N   0  0  0  0  0  0  0  0  0  0  0  0
  1  2  2  0  0  0  0
  1  6  1  0  0  0  0
  2  3  1  0  0  0  0
  3  4  2  0  0  0  0
  4  5  1  0  0  0  0
  4 10  1  0  0  0  0
  5  6  2  0  0  0  0
  5  8  1  0  0  0  0
  6  7  1  0  0  0  0
  8  9  1  0  0  0  0
  9 10  2  0  0  0  0
M  END
>  <CHROM.1>
1.92179549,-20.26536661,25.83848484,0.15081873,0.26082340,1.01706517

>  <Name>
ligand

>  <RI>
0

>  <Rbt.Current_Directory>
/home/itssahil/PROJECTS/Mol_Feturizer/New_Systems/rnas/4LW0

>  <Rbt.Executable>
rbdock ($Id: //depot/dev/client3/rdock/2013.1/src/exe/rbdock.cxx#4 $)

>  <Rbt.Library>
libRbt.so (2013.1, Build901 2013/11/27)

>  <Rbt.Parameter_File>
/export/apps/rDock/src/rDock_2013.1_src/data/scripts/dock_solv.prm

>  <Rbt.Receptor>
prm/pocket_docking_6.prm

>  <SCORE>
-13.4167

>  <SCORE.INTER>
-13.4167

>  <SCORE.INTER.CONST>
1

>  <SCORE.INTER.POLAR>
0

>  <SCORE.INTER.ROT>
0

>  <SCORE.INTER.SOLV>
4.02825

>  <SCORE.INTER.VDW>
-13.8872

>  <SCORE.INTER.norm>
-1.34167

>  <SCORE.INTRA>
0

>  <SCORE.INTRA.DIHEDRAL>
0

>  <SCORE.INTRA.DIHEDRAL.0>
0

>  <SCORE.INTRA.POLAR>
0

>  <SCORE.INTRA.POLAR.0>
0

>  <SCORE.INTRA.REPUL>
0

>  <SCORE.INTRA.REPUL.0>
0

>  <SCORE.INTRA.SOLV>
0

>  <SCORE.INTRA.SOLV.lig_0>
-23.9151

>  <SCORE.INTRA.VDW>
0

>  <SCORE.INTRA.VDW.0>
0

>  <SCORE.INTRA.norm>
0

>  <SCORE.RESTR>
0

>  <SCORE.RESTR.CAVITY>
0

>  <SCORE.RESTR.norm>
0

>  <SCORE.SYSTEM>
0

>  <SCORE.SYSTEM.CONST>
0

>  <SCORE.SYSTEM.DIHEDRAL>
0

>  <SCORE.SYSTEM.SOLV>
0

>  <SCORE.SYSTEM.norm>
0

>  <SCORE.heavy>
10

>  <SCORE.norm>
-1.34167

>  <RMSD>
1.007

$$$$
ligand
 OpenBabel11021811503D
libRbt.so/2013.1/901 2013/11/27
 10 11  0  0  0  0  0  0  0  0999 V2000
    3.7577  -19.4861   26.1370 N   0  0  0  0  0  0  0  0  0  0  0  0
    3.0345  -19.0623   27.1755 C   0  0  0  0  0  0  0  0  0  0  0  0
    1.7492  -19.3028   27.4626 N   0  0  0  0  0  0  0  0  0  0  0  0
    1.1891  -20.0710   26.5088 C   0  0  0  0  0  0  0  0  0  0  0  0
    1.8039  -20.5825   25.3818 C   0  0  0  0  0  0  0  0  0  0  0  0
    3.1645  -20.2652   25.1987 C   0  0  0  0  0  0  0  0  0  0  0  0
    3.8790  -20.6884   24.1435 N   0  0  0  0  0  0  0  0  0  0  0  0
    0.9189  -21.3355   24.6320 N   0  0  0  0  0  0  0  0  0  0  0  0
   -0.1977  -21.2754   25.3083 C   0  0  0  0  0  0  0  0  0  0  0  0
   -0.1082  -20.5209   26.4478 N   0  0  0  0  0  0  0  0  0  0  0  0
  1  2  2  0  0  0  0
  1  6  1  0  0  0  0
  2  3  1  0  0  0  0
  3  4  2  0  0  0  0
  4  5  1  0  0  0  0
  4 10  1  0  0  0  0
  5  6  2  0  0  0  0
  5  8  1  0  0  0  0
  6  7  1  0  0  0  0
  8  9  1  0  0  0  0
  9 10  2  0  0  0  0
M  END
>  <CHROM.1>
1.92831695,-20.25961676,25.83385811,0.15277260,0.26510218,1.01168065

>  <Name>
ligand

>  <RI>
0

>  <Rbt.Current_Directory>
/home/itssahil/PROJECTS/Mol_Feturizer/New_Systems/rnas/4LW0

>  <Rbt.Executable>
rbdock ($Id: //depot/dev/client3/rdock/2013.1/src/exe/rbdock.cxx#4 $)

>  <Rbt.Library>
libRbt.so (2013.1, Build901 2013/11/27)

>  <Rbt.Parameter_File>
/export/apps/rDock/src/rDock_2013.1_src/data/scripts/dock_solv.prm

>  <Rbt.Receptor>
prm/pocket_docking_6.prm

>  <SCORE>
-13.4314

>  <SCORE.INTER>
-13.4314

>  <SCORE.INTER.CONST>
1

>  <SCORE.INTER.POLAR>
0

>  <SCORE.INTER.ROT>
0

>  <SCORE.INTER.SOLV>
4.00517

>  <SCORE.INTER.VDW>
-13.8893

>  <SCORE.INTER.norm>
-1.34314

>  <SCORE.INTRA>
0

>  <SCORE.INTRA.DIHEDRAL>
0

>  <SCORE.INTRA.DIHEDRAL.0>
0

>  <SCORE.INTRA.POLAR>
0

>  <SCORE.INTRA.POLAR.0>
0

>  <SCORE.INTRA.REPUL>
0

>  <SCORE.INTRA.REPUL.0>
0

>  <SCORE.INTRA.SOLV>
0

>  <SCORE.INTRA.SOLV.lig_0>
-23.9151

>  <SCORE.INTRA.VDW>
0

>  <SCORE.INTRA.VDW.0>
0

>  <SCORE.INTRA.norm>
0

>  <SCORE.RESTR>
0

>  <SCORE.RESTR.CAVITY>
0

>  <SCORE.RESTR.norm>
0

>  <SCORE.SYSTEM>
0

>  <SCORE.SYSTEM.CONST>
0

>  <SCORE.SYSTEM.DIHEDRAL>
0

>  <SCORE.SYSTEM.SOLV>
0

>  <SCORE.SYSTEM.norm>
0

>  <SCORE.heavy>
10

>  <SCORE.norm>
-1.34314

>  <RMSD>
1.007

$$$$
ligand
 OpenBabel11021811503D
libRbt.so/2013.1/901 2013/11/27
 10 11  0  0  0  0  0  0  0  0999 V2000
    3.7553  -19.4958   26.1420 N   0  0  0  0  0  0  0  0  0  0  0  0
    3.0327  -19.0730   27.1813 C   0  0  0  0  0  0  0  0  0  0  0  0
    1.7466  -19.3110   27.4671 N   0  0  0  0  0  0  0  0  0  0  0  0
    1.1851  -20.0753   26.5109 C   0  0  0  0  0  0  0  0  0  0  0  0
    1.7992  -20.5853   25.3829 C   0  0  0  0  0  0  0  0  0  0  0  0
    3.1607  -20.2709   25.2013 C   0  0  0  0  0  0  0  0  0  0  0  0
    3.8746  -20.6930   24.1453 N   0  0  0  0  0  0  0  0  0  0  0  0
    0.9126  -21.3339   24.6306 N   0  0  0  0  0  0  0  0  0  0  0  0
   -0.2041  -21.2729   25.3065 C   0  0  0  0  0  0  0  0  0  0  0  0
   -0.1133  -20.5217   26.4481 N   0  0  0  0  0  0  0  0  0  0  0  0
  1  2  2  0  0  0  0
  1  6  1  0  0  0  0
  2  3  1  0  0  0  0
  3  4  2  0  0  0  0
  4  5  1  0  0  0  0
  4 10  1  0  0  0  0
  5  6  2  0  0  0  0
  5  8  1  0  0  0  0
  6  7  1  0  0  0  0
  8  9  1  0  0  0  0
  9 10  2  0  0  0  0
M  END
>  <CHROM.1>
1.92416941,-20.26387257,25.83583078,0.15183004,0.26271116,1.01462176

>  <Name>
ligand

>  <RI>
0

>  <Rbt.Current_Directory>
/home/itssahil/PROJECTS/Mol_Feturizer/New_Systems/rnas/4LW0

>  <Rbt.Executable>
rbdock ($Id: //depot/dev/client3/rdock/2013.1/src/exe/rbdock.cxx#4 $)

>  <Rbt.Library>
libRbt.so (2013.1, Build901 2013/11/27)

>  <Rbt.Parameter_File>
/export/apps/rDock/src/rDock_2013.1_src/data/scripts/dock_solv.prm

>  <Rbt.Receptor>
prm/pocket_docking_7.prm

>  <SCORE>
-13.4234

>  <SCORE.INTER>
-13.4234

>  <SCORE.INTER.CONST>
1

>  <SCORE.INTER.POLAR>
0

>  <SCORE.INTER.ROT>
0

>  <SCORE.INTER.SOLV>
4.01989

>  <SCORE.INTER.VDW>
-13.8889

>  <SCORE.INTER.norm>
-1.34234

>  <SCORE.INTRA>
0

>  <SCORE.INTRA.DIHEDRAL>
0

>  <SCORE.INTRA.DIHEDRAL.0>
0

>  <SCORE.INTRA.POLAR>
0

>  <SCORE.INTRA.POLAR.0>
0

>  <SCORE.INTRA.REPUL>
0

>  <SCORE.INTRA.REPUL.0>
0

>  <SCORE.INTRA.SOLV>
0

>  <SCORE.INTRA.SOLV.lig_0>
-23.9151

>  <SCORE.INTRA.VDW>
0

>  <SCORE.INTRA.VDW.0>
0

>  <SCORE.INTRA.norm>
0

>  <SCORE.RESTR>
0

>  <SCORE.RESTR.CAVITY>
0

>  <SCORE.RESTR.norm>
0

>  <SCORE.SYSTEM>
0

>  <SCORE.SYSTEM.CONST>
0

>  <SCORE.SYSTEM.DIHEDRAL>
0

>  <SCORE.SYSTEM.SOLV>
0

>  <SCORE.SYSTEM.norm>
0

>  <SCORE.heavy>
10

>  <SCORE.norm>
-1.34234

>  <RMSD>
1.007

$$$$
ligand
 OpenBabel11021811503D
libRbt.so/2013.1/901 2013/11/27
 10 11  0  0  0  0  0  0  0  0999 V2000
    3.7545  -19.4694   26.1265 N   0  0  0  0  0  0  0  0  0  0  0  0
    3.0339  -19.0599   27.1725 C   0  0  0  0  0  0  0  0  0  0  0  0
    1.7512  -19.3101   27.4629 N   0  0  0  0  0  0  0  0  0  0  0  0
    1.1908  -20.0715   26.5038 C   0  0  0  0  0  0  0  0  0  0  0  0
    1.8031  -20.5683   25.3690 C   0  0  0  0  0  0  0  0  0  0  0  0
    3.1611  -20.2420   25.1830 C   0  0  0  0  0  0  0  0  0  0  0  0
    3.8730  -20.6507   24.1203 N   0  0  0  0  0  0  0  0  0  0  0  0
    0.9186  -21.3182   24.6155 N   0  0  0  0  0  0  0  0  0  0  0  0
   -0.1952  -21.2709   25.2974 C   0  0  0  0  0  0  0  0  0  0  0  0
   -0.1045  -20.5275   26.4442 N   0  0  0  0  0  0  0  0  0  0  0  0
  1  2  2  0  0  0  0
  1  6  1  0  0  0  0
  2  3  1  0  0  0  0
  3  4  2  0  0  0  0
  4  5  1  0  0  0  0
  4 10  1  0  0  0  0
  5  6  2  0  0  0  0
  5  8  1  0  0  0  0
  6  7  1  0  0  0  0
  8  9  1  0  0  0  0
  9 10  2  0  0  0  0
M  END
>  <CHROM.1>
1.92785056,-20.24934269,25.82370963,0.15163029,0.27193723,1.02215134

>  <Name>
ligand

>  <RI>
0

>  <Rbt.Current_Directory>
/home/itssahil/PROJECTS/Mol_Feturizer/New_Systems/rnas/4LW0

>  <Rbt.Executable>
rbdock ($Id: //depot/dev/client3/rdock/2013.1/src/exe/rbdock.cxx#4 $)

>  <Rbt.Library>
libRbt.so (2013.1, Build901 2013/11/27)

>  <Rbt.Parameter_File>
/export/apps/rDock/src/rDock_2013.1_src/data/scripts/dock_solv.prm

>  <Rbt.Receptor>
prm/pocket_docking_8.prm

>  <SCORE>
-13.4333

>  <SCORE.INTER>
-13.4333

>  <SCORE.INTER.CONST>
1

>  <SCORE.INTER.POLAR>
0

>  <SCORE.INTER.ROT>
0

>  <SCORE.INTER.SOLV>
4.04764

>  <SCORE.INTER.VDW>
-13.9048

>  <SCORE.INTER.norm>
-1.34333

>  <SCORE.INTRA>
0

>  <SCORE.INTRA.DIHEDRAL>
0

>  <SCORE.INTRA.DIHEDRAL.0>
0

>  <SCORE.INTRA.POLAR>
0

>  <SCORE.INTRA.POLAR.0>
0

>  <SCORE.INTRA.REPUL>
0

>  <SCORE.INTRA.REPUL.0>
0

>  <SCORE.INTRA.SOLV>
0

>  <SCORE.INTRA.SOLV.lig_0>
-23.9151

>  <SCORE.INTRA.VDW>
0

>  <SCORE.INTRA.VDW.0>
0

>  <SCORE.INTRA.norm>
0

>  <SCORE.RESTR>
0

>  <SCORE.RESTR.CAVITY>
0

>  <SCORE.RESTR.norm>
0

>  <SCORE.SYSTEM>
0

>  <SCORE.SYSTEM.CONST>
0

>  <SCORE.SYSTEM.DIHEDRAL>
0

>  <SCORE.SYSTEM.SOLV>
0

>  <SCORE.SYSTEM.norm>
0

>  <SCORE.heavy>
10

>  <SCORE.norm>
-1.34333

>  <RMSD>
1.007

$$$$
ligand
 OpenBabel11021811503D
libRbt.so/2013.1/901 2013/11/27
 10 11  0  0  0  0  0  0  0  0999 V2000
    3.7615  -19.4714   26.1334 N   0  0  0  0  0  0  0  0  0  0  0  0
    3.0377  -19.0520   27.1732 C   0  0  0  0  0  0  0  0  0  0  0  0
    1.7537  -19.2983   27.4613 N   0  0  0  0  0  0  0  0  0  0  0  0
    1.1958  -20.0676   26.5071 C   0  0  0  0  0  0  0  0  0  0  0  0
    1.8115  -20.5750   25.3788 C   0  0  0  0  0  0  0  0  0  0  0  0
    3.1705  -20.2517   25.1946 C   0  0  0  0  0  0  0  0  0  0  0  0
    3.8856  -20.6705   24.1381 N   0  0  0  0  0  0  0  0  0  0  0  0
    0.9288  -21.3306   24.6289 N   0  0  0  0  0  0  0  0  0  0  0  0
   -0.1873  -21.2762   25.3065 C   0  0  0  0  0  0  0  0  0  0  0  0
   -0.0997  -20.5228   26.4470 N   0  0  0  0  0  0  0  0  0  0  0  0
  1  2  2  0  0  0  0
  1  6  1  0  0  0  0
  2  3  1  0  0  0  0
  3  4  2  0  0  0  0
  4  5  1  0  0  0  0
  4 10  1  0  0  0  0
  5  6  2  0  0  0  0
  5  8  1  0  0  0  0
  6  7  1  0  0  0  0
  8  9  1  0  0  0  0
  9 10  2  0  0  0  0
M  END
>  <CHROM.1>
1.93502504,-20.25215384,25.83112385,0.15413192,0.26925681,1.01266300

>  <Name>
ligand

>  <RI>
0

>  <Rbt.Current_Directory>
/home/itssahil/PROJECTS/Mol_Feturizer/New_Systems/rnas/4LW0

>  <Rbt.Executable>
rbdock ($Id: //depot/dev/client3/rdock/2013.1/src/exe/rbdock.cxx#4 $)

>  <Rbt.Library>
libRbt.so (2013.1, Build901 2013/11/27)

>  <Rbt.Parameter_File>
/export/apps/rDock/src/rDock_2013.1_src/data/scripts/dock_solv.prm

>  <Rbt.Receptor>
prm/pocket_docking_3.prm

>  <SCORE>
-13.4324

>  <SCORE.INTER>
-13.4324

>  <SCORE.INTER.CONST>
1

>  <SCORE.INTER.POLAR>
0

>  <SCORE.INTER.ROT>
0

>  <SCORE.INTER.SOLV>
3.98046

>  <SCORE.INTER.VDW>
-13.8818

>  <SCORE.INTER.norm>
-1.34324

>  <SCORE.INTRA>
0

>  <SCORE.INTRA.DIHEDRAL>
0

>  <SCORE.INTRA.DIHEDRAL.0>
0

>  <SCORE.INTRA.POLAR>
0

>  <SCORE.INTRA.POLAR.0>
0

>  <SCORE.INTRA.REPUL>
0

>  <SCORE.INTRA.REPUL.0>
0

>  <SCORE.INTRA.SOLV>
0

>  <SCORE.INTRA.SOLV.lig_0>
-23.9151

>  <SCORE.INTRA.VDW>
0

>  <SCORE.INTRA.VDW.0>
0

>  <SCORE.INTRA.norm>
0

>  <SCORE.RESTR>
0

>  <SCORE.RESTR.CAVITY>
0

>  <SCORE.RESTR.norm>
0

>  <SCORE.SYSTEM>
0

>  <SCORE.SYSTEM.CONST>
0

>  <SCORE.SYSTEM.DIHEDRAL>
0

>  <SCORE.SYSTEM.SOLV>
0

>  <SCORE.SYSTEM.norm>
0

>  <SCORE.heavy>
10

>  <SCORE.norm>
-1.34324

>  <RMSD>
1.008

$$$$
ligand
 OpenBabel11021811503D
libRbt.so/2013.1/901 2013/11/27
 10 11  0  0  0  0  0  0  0  0999 V2000
    3.7552  -19.4648   26.1291 N   0  0  0  0  0  0  0  0  0  0  0  0
    3.0358  -19.0621   27.1786 C   0  0  0  0  0  0  0  0  0  0  0  0
    1.7542  -19.3162   27.4702 N   0  0  0  0  0  0  0  0  0  0  0  0
    1.1933  -20.0739   26.5084 C   0  0  0  0  0  0  0  0  0  0  0  0
    1.8044  -20.5638   25.3699 C   0  0  0  0  0  0  0  0  0  0  0  0
    3.1614  -20.2339   25.1829 C   0  0  0  0  0  0  0  0  0  0  0  0
    3.8720  -20.6358   24.1168 N   0  0  0  0  0  0  0  0  0  0  0  0
    0.9199  -21.3116   24.6144 N   0  0  0  0  0  0  0  0  0  0  0  0
   -0.1927  -21.2699   25.2988 C   0  0  0  0  0  0  0  0  0  0  0  0
   -0.1011  -20.5321   26.4490 N   0  0  0  0  0  0  0  0  0  0  0  0
  1  2  2  0  0  0  0
  1  6  1  0  0  0  0
  2  3  1  0  0  0  0
  3  4  2  0  0  0  0
  4  5  1  0  0  0  0
  4 10  1  0  0  0  0
  5  6  2  0  0  0  0
  5  8  1  0  0  0  0
  6  7  1  0  0  0  0
  8  9  1  0  0  0  0
  9 10  2  0  0  0  0
M  END
>  <CHROM.1>
1.92943741,-20.24685589,25.82598835,0.15093883,0.27463381,1.02737887

>  <Name>
ligand

>  <RI>
0

>  <Rbt.Current_Directory>
/home/itssahil/PROJECTS/Mol_Feturizer/New_Systems/rnas/4LW0

>  <Rbt.Executable>
rbdock ($Id: //depot/dev/client3/rdock/2013.1/src/exe/rbdock.cxx#4 $)

>  <Rbt.Library>
libRbt.so (2013.1, Build901 2013/11/27)

>  <Rbt.Parameter_File>
/export/apps/rDock/src/rDock_2013.1_src/data/scripts/dock_solv.prm

>  <Rbt.Receptor>
prm/pocket_docking_4.prm

>  <SCORE>
-13.4259

>  <SCORE.INTER>
-13.4259

>  <SCORE.INTER.CONST>
1

>  <SCORE.INTER.POLAR>
0

>  <SCORE.INTER.ROT>
0

>  <SCORE.INTER.SOLV>
4.04707

>  <SCORE.INTER.VDW>
-13.8996

>  <SCORE.INTER.norm>
-1.34259

>  <SCORE.INTRA>
0

>  <SCORE.INTRA.DIHEDRAL>
0

>  <SCORE.INTRA.DIHEDRAL.0>
0

>  <SCORE.INTRA.POLAR>
0

>  <SCORE.INTRA.POLAR.0>
0

>  <SCORE.INTRA.REPUL>
0

>  <SCORE.INTRA.REPUL.0>
0

>  <SCORE.INTRA.SOLV>
0

>  <SCORE.INTRA.SOLV.lig_0>
-23.9151

>  <SCORE.INTRA.VDW>
0

>  <SCORE.INTRA.VDW.0>
0

>  <SCORE.INTRA.norm>
0

>  <SCORE.RESTR>
0

>  <SCORE.RESTR.CAVITY>
0

>  <SCORE.RESTR.norm>
0

>  <SCORE.SYSTEM>
0

>  <SCORE.SYSTEM.CONST>
0

>  <SCORE.SYSTEM.DIHEDRAL>
0

>  <SCORE.SYSTEM.SOLV>
0

>  <SCORE.SYSTEM.norm>
0

>  <SCORE.heavy>
10

>  <SCORE.norm>
-1.34259

>  <RMSD>
1.008

$$$$
ligand
 OpenBabel11021811503D
libRbt.so/2013.1/901 2013/11/27
 10 11  0  0  0  0  0  0  0  0999 V2000
    3.7591  -19.4808   26.1394 N   0  0  0  0  0  0  0  0  0  0  0  0
    3.0362  -19.0641   27.1809 C   0  0  0  0  0  0  0  0  0  0  0  0
    1.7516  -19.3088   27.4680 N   0  0  0  0  0  0  0  0  0  0  0  0
    1.1921  -20.0730   26.5106 C   0  0  0  0  0  0  0  0  0  0  0  0
    1.8068  -20.5772   25.3803 C   0  0  0  0  0  0  0  0  0  0  0  0
    3.1666  -20.2561   25.1975 C   0  0  0  0  0  0  0  0  0  0  0  0
    3.8808  -20.6722   24.1393 N   0  0  0  0  0  0  0  0  0  0  0  0
    0.9226  -21.3280   24.6273 N   0  0  0  0  0  0  0  0  0  0  0  0
   -0.1934  -21.2738   25.3052 C   0  0  0  0  0  0  0  0  0  0  0  0
   -0.1043  -20.5252   26.4486 N   0  0  0  0  0  0  0  0  0  0  0  0
  1  2  2  0  0  0  0
  1  6  1  0  0  0  0
  2  3  1  0  0  0  0
  3  4  2  0  0  0  0
  4  5  1  0  0  0  0
  4 10  1  0  0  0  0
  5  6  2  0  0  0  0
  5  8  1  0  0  0  0
  6  7  1  0  0  0  0
  8  9  1  0  0  0  0
  9 10  2  0  0  0  0
M  END
>  <CHROM.1>
1.93103108,-20.25646976,25.83393879,0.15299918,0.26740697,1.01697167

>  <Name>
ligand

>  <RI>
0

>  <Rbt.Current_Directory>
/home/itssahil/PROJECTS/Mol_Feturizer/New_Systems/rnas/4LW0

>  <Rbt.Executable>
rbdock ($Id: //depot/dev/client3/rdock/2013.1/src/exe/rbdock.cxx#4 $)

>  <Rbt.Library>
libRbt.so (2013.1, Build901 2013/11/27)

>  <Rbt.Parameter_File>
/export/apps/rDock/src/rDock_2013.1_src/data/scripts/dock_solv.prm

>  <Rbt.Receptor>
prm/pocket_docking_4.prm

>  <SCORE>
-13.4245

>  <SCORE.INTER>
-13.4245

>  <SCORE.INTER.CONST>
1

>  <SCORE.INTER.POLAR>
0

>  <SCORE.INTER.ROT>
0

>  <SCORE.INTER.SOLV>
3.99558

>  <SCORE.INTER.VDW>
-13.8815

>  <SCORE.INTER.norm>
-1.34245

>  <SCORE.INTRA>
0

>  <SCORE.INTRA.DIHEDRAL>
0

>  <SCORE.INTRA.DIHEDRAL.0>
0

>  <SCORE.INTRA.POLAR>
0

>  <SCORE.INTRA.POLAR.0>
0

>  <SCORE.INTRA.REPUL>
0

>  <SCORE.INTRA.REPUL.0>
0

>  <SCORE.INTRA.SOLV>
0

>  <SCORE.INTRA.SOLV.lig_0>
-23.9151

>  <SCORE.INTRA.VDW>
0

>  <SCORE.INTRA.VDW.0>
0

>  <SCORE.INTRA.norm>
0

>  <SCORE.RESTR>
0

>  <SCORE.RESTR.CAVITY>
0

>  <SCORE.RESTR.norm>
0

>  <SCORE.SYSTEM>
0

>  <SCORE.SYSTEM.CONST>
0

>  <SCORE.SYSTEM.DIHEDRAL>
0

>  <SCORE.SYSTEM.SOLV>
0

>  <SCORE.SYSTEM.norm>
0

>  <SCORE.heavy>
10

>  <SCORE.norm>
-1.34245

>  <RMSD>
1.008

$$$$
ligand
 OpenBabel11021811503D
libRbt.so/2013.1/901 2013/11/27
 10 11  0  0  0  0  0  0  0  0999 V2000
    3.7603  -19.4740   26.1336 N   0  0  0  0  0  0  0  0  0  0  0  0
    3.0369  -19.0528   27.1730 C   0  0  0  0  0  0  0  0  0  0  0  0
    1.7528  -19.2979   27.4617 N   0  0  0  0  0  0  0  0  0  0  0  0
    1.1943  -20.0681   26.5085 C   0  0  0  0  0  0  0  0  0  0  0  0
    1.8096  -20.5773   25.3808 C   0  0  0  0  0  0  0  0  0  0  0  0
    3.1688  -20.2551   25.1960 C   0  0  0  0  0  0  0  0  0  0  0  0
    3.8834  -20.6757   24.1399 N   0  0  0  0  0  0  0  0  0  0  0  0
    0.9263  -21.3334   24.6320 N   0  0  0  0  0  0  0  0  0  0  0  0
   -0.1896  -21.2774   25.3097 C   0  0  0  0  0  0  0  0  0  0  0  0
   -0.1014  -20.5226   26.4492 N   0  0  0  0  0  0  0  0  0  0  0  0
  1  2  2  0  0  0  0
  1  6  1  0  0  0  0
  2  3  1  0  0  0  0
  3  4  2  0  0  0  0
  4  5  1  0  0  0  0
  4 10  1  0  0  0  0
  5  6  2  0  0  0  0
  5  8  1  0  0  0  0
  6  7  1  0  0  0  0
  8  9  1  0  0  0  0
  9 10  2  0  0  0  0
M  END
>  <CHROM.1>
1.93336994,-20.25398108,25.83266202,0.15365974,0.26880343,1.01149270

>  <Name>
ligand

>  <RI>
0

>  <Rbt.Current_Directory>
/home/itssahil/PROJECTS/Mol_Feturizer/New_Systems/rnas/4LW0

>  <Rbt.Executable>
rbdock ($Id: //depot/dev/client3/rdock/2013.1/src/exe/rbdock.cxx#4 $)

>  <Rbt.Library>
libRbt.so (2013.1, Build901 2013/11/27)

>  <Rbt.Parameter_File>
/export/apps/rDock/src/rDock_2013.1_src/data/scripts/dock_solv.prm

>  <Rbt.Receptor>
prm/pocket_docking_4.prm

>  <SCORE>
-13.4334

>  <SCORE.INTER>
-13.4334

>  <SCORE.INTER.CONST>
1

>  <SCORE.INTER.POLAR>
0

>  <SCORE.INTER.ROT>
0

>  <SCORE.INTER.SOLV>
3.98807

>  <SCORE.INTER.VDW>
-13.8849

>  <SCORE.INTER.norm>
-1.34334

>  <SCORE.INTRA>
0

>  <SCORE.INTRA.DIHEDRAL>
0

>  <SCORE.INTRA.DIHEDRAL.0>
0

>  <SCORE.INTRA.POLAR>
0

>  <SCORE.INTRA.POLAR.0>
0

>  <SCORE.INTRA.REPUL>
0

>  <SCORE.INTRA.REPUL.0>
0

>  <SCORE.INTRA.SOLV>
0

>  <SCORE.INTRA.SOLV.lig_0>
-23.9151

>  <SCORE.INTRA.VDW>
0

>  <SCORE.INTRA.VDW.0>
0

>  <SCORE.INTRA.norm>
0

>  <SCORE.RESTR>
0

>  <SCORE.RESTR.CAVITY>
0

>  <SCORE.RESTR.norm>
0

>  <SCORE.SYSTEM>
0

>  <SCORE.SYSTEM.CONST>
0

>  <SCORE.SYSTEM.DIHEDRAL>
0

>  <SCORE.SYSTEM.SOLV>
0

>  <SCORE.SYSTEM.norm>
0

>  <SCORE.heavy>
10

>  <SCORE.norm>
-1.34334

>  <RMSD>
1.008

$$$$
ligand
 OpenBabel11021811503D
libRbt.so/2013.1/901 2013/11/27
 10 11  0  0  0  0  0  0  0  0999 V2000
    3.7552  -19.4994   26.1467 N   0  0  0  0  0  0  0  0  0  0  0  0
    3.0333  -19.0766   27.1865 C   0  0  0  0  0  0  0  0  0  0  0  0
    1.7465  -19.3119   27.4714 N   0  0  0  0  0  0  0  0  0  0  0  0
    1.1834  -20.0730   26.5136 C   0  0  0  0  0  0  0  0  0  0  0  0
    1.7966  -20.5825   25.3849 C   0  0  0  0  0  0  0  0  0  0  0  0
    3.1589  -20.2712   25.2044 C   0  0  0  0  0  0  0  0  0  0  0  0
    3.8722  -20.6933   24.1479 N   0  0  0  0  0  0  0  0  0  0  0  0
    0.9085  -21.3275   24.6309 N   0  0  0  0  0  0  0  0  0  0  0  0
   -0.2084  -21.2649   25.3065 C   0  0  0  0  0  0  0  0  0  0  0  0
   -0.1161  -20.5160   26.4495 N   0  0  0  0  0  0  0  0  0  0  0  0
  1  2  2  0  0  0  0
  1  6  1  0  0  0  0
  2  3  1  0  0  0  0
  3  4  2  0  0  0  0
  4  5  1  0  0  0  0
  4 10  1  0  0  0  0
  5  6  2  0  0  0  0
  5  8  1  0  0  0  0
  6  7  1  0  0  0  0
  8  9  1  0  0  0  0
  9 10  2  0  0  0  0
M  END
>  <CHROM.1>
1.92223803,-20.26224913,25.83847740,0.15077353,0.26034759,1.01670810

>  <Name>
ligand

>  <RI>
0

>  <Rbt.Current_Directory>
/home/itssahil/PROJECTS/Mol_Feturizer/New_Systems/rnas/4LW0

>  <Rbt.Executable>
rbdock ($Id: //depot/dev/client3/rdock/2013.1/src/exe/rbdock.cxx#4 $)

>  <Rbt.Library>
libRbt.so (2013.1, Build901 2013/11/27)

>  <Rbt.Parameter_File>
/export/apps/rDock/src/rDock_2013.1_src/data/scripts/dock_solv.prm

>  <Rbt.Receptor>
prm/pocket_docking_5.prm

>  <SCORE>
-13.4186

>  <SCORE.INTER>
-13.4186

>  <SCORE.INTER.CONST>
1

>  <SCORE.INTER.POLAR>
0

>  <SCORE.INTER.ROT>
0

>  <SCORE.INTER.SOLV>
4.02593

>  <SCORE.INTER.VDW>
-13.8877

>  <SCORE.INTER.norm>
-1.34186

>  <SCORE.INTRA>
0

>  <SCORE.INTRA.DIHEDRAL>
0

>  <SCORE.INTRA.DIHEDRAL.0>
0

>  <SCORE.INTRA.POLAR>
0

>  <SCORE.INTRA.POLAR.0>
0

>  <SCORE.INTRA.REPUL>
0

>  <SCORE.INTRA.REPUL.0>
0

>  <SCORE.INTRA.SOLV>
0

>  <SCORE.INTRA.SOLV.lig_0>
-23.9151

>  <SCORE.INTRA.VDW>
0

>  <SCORE.INTRA.VDW.0>
0

>  <SCORE.INTRA.norm>
0

>  <SCORE.RESTR>
0

>  <SCORE.RESTR.CAVITY>
0

>  <SCORE.RESTR.norm>
0

>  <SCORE.SYSTEM>
0

>  <SCORE.SYSTEM.CONST>
0

>  <SCORE.SYSTEM.DIHEDRAL>
0

>  <SCORE.SYSTEM.SOLV>
0

>  <SCORE.SYSTEM.norm>
0

>  <SCORE.heavy>
10

>  <SCORE.norm>
-1.34186

>  <RMSD>
1.008

$$$$
ligand
 OpenBabel11021811503D
libRbt.so/2013.1/901 2013/11/27
 10 11  0  0  0  0  0  0  0  0999 V2000
    3.7561  -19.4626   26.1241 N   0  0  0  0  0  0  0  0  0  0  0  0
    3.0357  -19.0531   27.1702 C   0  0  0  0  0  0  0  0  0  0  0  0
    1.7534  -19.3042   27.4615 N   0  0  0  0  0  0  0  0  0  0  0  0
    1.1931  -20.0667   26.5032 C   0  0  0  0  0  0  0  0  0  0  0  0
    1.8052  -20.5637   25.3683 C   0  0  0  0  0  0  0  0  0  0  0  0
    3.1629  -20.2363   25.1814 C   0  0  0  0  0  0  0  0  0  0  0  0
    3.8745  -20.6451   24.1186 N   0  0  0  0  0  0  0  0  0  0  0  0
    0.9209  -21.3148   24.6158 N   0  0  0  0  0  0  0  0  0  0  0  0
   -0.1925  -21.2681   25.2983 C   0  0  0  0  0  0  0  0  0  0  0  0
   -0.1018  -20.5239   26.4446 N   0  0  0  0  0  0  0  0  0  0  0  0
  1  2  2  0  0  0  0
  1  6  1  0  0  0  0
  2  3  1  0  0  0  0
  3  4  2  0  0  0  0
  4  5  1  0  0  0  0
  4 10  1  0  0  0  0
  5  6  2  0  0  0  0
  5  8  1  0  0  0  0
  6  7  1  0  0  0  0
  8  9  1  0  0  0  0
  9 10  2  0  0  0  0
M  END
>  <CHROM.1>
1.92994472,-20.24432695,25.82278630,0.15161046,0.27297508,1.02153794

>  <Name>
ligand

>  <RI>
0

>  <Rbt.Current_Directory>
/home/itssahil/PROJECTS/Mol_Feturizer/New_Systems/rnas/4LW0

>  <Rbt.Executable>
rbdock ($Id: //depot/dev/client3/rdock/2013.1/src/exe/rbdock.cxx#4 $)

>  <Rbt.Library>
libRbt.so (2013.1, Build901 2013/11/27)

>  <Rbt.Parameter_File>
/export/apps/rDock/src/rDock_2013.1_src/data/scripts/dock_solv.prm

>  <Rbt.Receptor>
prm/pocket_docking_6.prm

>  <SCORE>
-13.4351

>  <SCORE.INTER>
-13.4351

>  <SCORE.INTER.CONST>
1

>  <SCORE.INTER.POLAR>
0

>  <SCORE.INTER.ROT>
0

>  <SCORE.INTER.SOLV>
4.04364

>  <SCORE.INTER.VDW>
-13.9046

>  <SCORE.INTER.norm>
-1.34351

>  <SCORE.INTRA>
0

>  <SCORE.INTRA.DIHEDRAL>
0

>  <SCORE.INTRA.DIHEDRAL.0>
0

>  <SCORE.INTRA.POLAR>
0

>  <SCORE.INTRA.POLAR.0>
0

>  <SCORE.INTRA.REPUL>
0

>  <SCORE.INTRA.REPUL.0>
0

>  <SCORE.INTRA.SOLV>
0

>  <SCORE.INTRA.SOLV.lig_0>
-23.9151

>  <SCORE.INTRA.VDW>
0

>  <SCORE.INTRA.VDW.0>
0

>  <SCORE.INTRA.norm>
0

>  <SCORE.RESTR>
0

>  <SCORE.RESTR.CAVITY>
0

>  <SCORE.RESTR.norm>
0

>  <SCORE.SYSTEM>
0

>  <SCORE.SYSTEM.CONST>
0

>  <SCORE.SYSTEM.DIHEDRAL>
0

>  <SCORE.SYSTEM.SOLV>
0

>  <SCORE.SYSTEM.norm>
0

>  <SCORE.heavy>
10

>  <SCORE.norm>
-1.34351

>  <RMSD>
1.008

$$$$
ligand
 OpenBabel11021811503D
libRbt.so/2013.1/901 2013/11/27
 10 11  0  0  0  0  0  0  0  0999 V2000
    3.7584  -19.4843   26.1374 N   0  0  0  0  0  0  0  0  0  0  0  0
    3.0348  -19.0630   27.1766 C   0  0  0  0  0  0  0  0  0  0  0  0
    1.7494  -19.3046   27.4627 N   0  0  0  0  0  0  0  0  0  0  0  0
    1.1899  -20.0709   26.5071 C   0  0  0  0  0  0  0  0  0  0  0  0
    1.8053  -20.5798   25.3792 C   0  0  0  0  0  0  0  0  0  0  0  0
    3.1658  -20.2616   25.1972 C   0  0  0  0  0  0  0  0  0  0  0  0
    3.8807  -20.6823   24.1414 N   0  0  0  0  0  0  0  0  0  0  0  0
    0.9207  -21.3314   24.6275 N   0  0  0  0  0  0  0  0  0  0  0  0
   -0.1961  -21.2732   25.3036 C   0  0  0  0  0  0  0  0  0  0  0  0
   -0.1072  -20.5211   26.4448 N   0  0  0  0  0  0  0  0  0  0  0  0
  1  2  2  0  0  0  0
  1  6  1  0  0  0  0
  2  3  1  0  0  0  0
  3  4  2  0  0  0  0
  4  5  1  0  0  0  0
  4 10  1  0  0  0  0
  5  6  2  0  0  0  0
  5  8  1  0  0  0  0
  6  7  1  0  0  0  0
  8  9  1  0  0  0  0
  9 10  2  0  0  0  0
M  END
>  <CHROM.1>
1.92938018,-20.25779451,25.83198658,0.15324570,0.26522914,1.01371602

>  <Name>
ligand

>  <RI>
0

>  <Rbt.Current_Directory>
/home/itssahil/PROJECTS/Mol_Feturizer/New_Systems/rnas/4LW0

>  <Rbt.Executable>
rbdock ($Id: //depot/dev/client3/rdock/2013.1/src/exe/rbdock.cxx#4 $)

>  <Rbt.Library>
libRbt.so (2013.1, Build901 2013/11/27)

>  <Rbt.Parameter_File>
/export/apps/rDock/src/rDock_2013.1_src/data/scripts/dock_solv.prm

>  <Rbt.Receptor>
prm/pocket_docking_7.prm

>  <SCORE>
-13.4284

>  <SCORE.INTER>
-13.4284

>  <SCORE.INTER.CONST>
1

>  <SCORE.INTER.POLAR>
0

>  <SCORE.INTER.ROT>
0

>  <SCORE.INTER.SOLV>
3.99954

>  <SCORE.INTER.VDW>
-13.8855

>  <SCORE.INTER.norm>
-1.34284

>  <SCORE.INTRA>
0

>  <SCORE.INTRA.DIHEDRAL>
0

>  <SCORE.INTRA.DIHEDRAL.0>
0

>  <SCORE.INTRA.POLAR>
0

>  <SCORE.INTRA.POLAR.0>
0

>  <SCORE.INTRA.REPUL>
0

>  <SCORE.INTRA.REPUL.0>
0

>  <SCORE.INTRA.SOLV>
0

>  <SCORE.INTRA.SOLV.lig_0>
-23.9151

>  <SCORE.INTRA.VDW>
0

>  <SCORE.INTRA.VDW.0>
0

>  <SCORE.INTRA.norm>
0

>  <SCORE.RESTR>
0

>  <SCORE.RESTR.CAVITY>
0

>  <SCORE.RESTR.norm>
0

>  <SCORE.SYSTEM>
0

>  <SCORE.SYSTEM.CONST>
0

>  <SCORE.SYSTEM.DIHEDRAL>
0

>  <SCORE.SYSTEM.SOLV>
0

>  <SCORE.SYSTEM.norm>
0

>  <SCORE.heavy>
10

>  <SCORE.norm>
-1.34284

>  <RMSD>
1.008

$$$$
ligand
 OpenBabel11021811503D
libRbt.so/2013.1/901 2013/11/27
 10 11  0  0  0  0  0  0  0  0999 V2000
    3.7538  -19.4629   26.1275 N   0  0  0  0  0  0  0  0  0  0  0  0
    3.0350  -19.0557   27.1756 C   0  0  0  0  0  0  0  0  0  0  0  0
    1.7530  -19.3072   27.4680 N   0  0  0  0  0  0  0  0  0  0  0  0
    1.1911  -20.0672   26.5087 C   0  0  0  0  0  0  0  0  0  0  0  0
    1.8016  -20.5616   25.3718 C   0  0  0  0  0  0  0  0  0  0  0  0
    3.1591  -20.2341   25.1837 C   0  0  0  0  0  0  0  0  0  0  0  0
    3.8691  -20.6405   24.1190 N   0  0  0  0  0  0  0  0  0  0  0  0
    0.9161  -21.3107   24.6186 N   0  0  0  0  0  0  0  0  0  0  0  0
   -0.1964  -21.2653   25.3029 C   0  0  0  0  0  0  0  0  0  0  0  0
   -0.1039  -20.5239   26.4507 N   0  0  0  0  0  0  0  0  0  0  0  0
  1  2  2  0  0  0  0
  1  6  1  0  0  0  0
  2  3  1  0  0  0  0
  3  4  2  0  0  0  0
  4  5  1  0  0  0  0
  4 10  1  0  0  0  0
  5  6  2  0  0  0  0
  5  8  1  0  0  0  0
  6  7  1  0  0  0  0
  8  9  1  0  0  0  0
  9 10  2  0  0  0  0
M  END
>  <CHROM.1>
1.92702761,-20.24338234,25.82682942,0.15023600,0.27346621,1.02432796

>  <Name>
ligand

>  <RI>
0

>  <Rbt.Current_Directory>
/home/itssahil/PROJECTS/Mol_Feturizer/New_Systems/rnas/4LW0

>  <Rbt.Executable>
rbdock ($Id: //depot/dev/client3/rdock/2013.1/src/exe/rbdock.cxx#4 $)

>  <Rbt.Library>
libRbt.so (2013.1, Build901 2013/11/27)

>  <Rbt.Parameter_File>
/export/apps/rDock/src/rDock_2013.1_src/data/scripts/dock_solv.prm

>  <Rbt.Receptor>
prm/pocket_docking_7.prm

>  <SCORE>
-13.4286

>  <SCORE.INTER>
-13.4286

>  <SCORE.INTER.CONST>
1

>  <SCORE.INTER.POLAR>
0

>  <SCORE.INTER.ROT>
0

>  <SCORE.INTER.SOLV>
4.06058

>  <SCORE.INTER.VDW>
-13.9059

>  <SCORE.INTER.norm>
-1.34286

>  <SCORE.INTRA>
0

>  <SCORE.INTRA.DIHEDRAL>
0

>  <SCORE.INTRA.DIHEDRAL.0>
0

>  <SCORE.INTRA.POLAR>
0

>  <SCORE.INTRA.POLAR.0>
0

>  <SCORE.INTRA.REPUL>
0

>  <SCORE.INTRA.REPUL.0>
0

>  <SCORE.INTRA.SOLV>
0

>  <SCORE.INTRA.SOLV.lig_0>
-23.9151

>  <SCORE.INTRA.VDW>
0

>  <SCORE.INTRA.VDW.0>
0

>  <SCORE.INTRA.norm>
0

>  <SCORE.RESTR>
0

>  <SCORE.RESTR.CAVITY>
0

>  <SCORE.RESTR.norm>
0

>  <SCORE.SYSTEM>
0

>  <SCORE.SYSTEM.CONST>
0

>  <SCORE.SYSTEM.DIHEDRAL>
0

>  <SCORE.SYSTEM.SOLV>
0

>  <SCORE.SYSTEM.norm>
0

>  <SCORE.heavy>
10

>  <SCORE.norm>
-1.34286

>  <RMSD>
1.008

$$$$
ligand
 OpenBabel11021811503D
libRbt.so/2013.1/901 2013/11/27
 10 11  0  0  0  0  0  0  0  0999 V2000
    3.7486  -19.4896   26.1305 N   0  0  0  0  0  0  0  0  0  0  0  0
    3.0193  -19.0671   27.1652 C   0  0  0  0  0  0  0  0  0  0  0  0
    1.7354  -19.3176   27.4505 N   0  0  0  0  0  0  0  0  0  0  0  0
    1.1845  -20.0956   26.4992 C   0  0  0  0  0  0  0  0  0  0  0  0
    1.8065  -20.6072   25.3763 C   0  0  0  0  0  0  0  0  0  0  0  0
    3.1647  -20.2786   25.1947 C   0  0  0  0  0  0  0  0  0  0  0  0
    3.8854  -20.7007   24.1434 N   0  0  0  0  0  0  0  0  0  0  0  0
    0.9300  -21.3717   24.6281 N   0  0  0  0  0  0  0  0  0  0  0  0
   -0.1887  -21.3183   25.3016 C   0  0  0  0  0  0  0  0  0  0  0  0
   -0.1086  -20.5573   26.4375 N   0  0  0  0  0  0  0  0  0  0  0  0
  1  2  2  0  0  0  0
  1  6  1  0  0  0  0
  2  3  1  0  0  0  0
  3  4  2  0  0  0  0
  4  5  1  0  0  0  0
  4 10  1  0  0  0  0
  5  6  2  0  0  0  0
  5  8  1  0  0  0  0
  6  7  1  0  0  0  0
  8  9  1  0  0  0  0
  9 10  2  0  0  0  0
M  END
>  <CHROM.1>
1.92695688,-20.28092422,25.82697017,0.15977753,0.27140749,1.00482717

>  <Name>
ligand

>  <RI>
0

>  <Rbt.Current_Directory>
/home/itssahil/PROJECTS/Mol_Feturizer/New_Systems/rnas/4LW0

>  <Rbt.Executable>
rbdock ($Id: //depot/dev/client3/rdock/2013.1/src/exe/rbdock.cxx#4 $)

>  <Rbt.Library>
libRbt.so (2013.1, Build901 2013/11/27)

>  <Rbt.Parameter_File>
/export/apps/rDock/src/rDock_2013.1_src/data/scripts/dock_solv.prm

>  <Rbt.Receptor>
prm/pocket_docking_8.prm

>  <SCORE>
-13.3784

>  <SCORE.INTER>
-13.3784

>  <SCORE.INTER.CONST>
1

>  <SCORE.INTER.POLAR>
0

>  <SCORE.INTER.ROT>
0

>  <SCORE.INTER.SOLV>
3.97863

>  <SCORE.INTER.VDW>
-13.8451

>  <SCORE.INTER.norm>
-1.33784

>  <SCORE.INTRA>
0

>  <SCORE.INTRA.DIHEDRAL>
0

>  <SCORE.INTRA.DIHEDRAL.0>
0

>  <SCORE.INTRA.POLAR>
0

>  <SCORE.INTRA.POLAR.0>
0

>  <SCORE.INTRA.REPUL>
0

>  <SCORE.INTRA.REPUL.0>
0

>  <SCORE.INTRA.SOLV>
0

>  <SCORE.INTRA.SOLV.lig_0>
-23.9151

>  <SCORE.INTRA.VDW>
0

>  <SCORE.INTRA.VDW.0>
0

>  <SCORE.INTRA.norm>
0

>  <SCORE.RESTR>
0

>  <SCORE.RESTR.CAVITY>
0

>  <SCORE.RESTR.norm>
0

>  <SCORE.SYSTEM>
0

>  <SCORE.SYSTEM.CONST>
0

>  <SCORE.SYSTEM.DIHEDRAL>
0

>  <SCORE.SYSTEM.SOLV>
0

>  <SCORE.SYSTEM.norm>
0

>  <SCORE.heavy>
10

>  <SCORE.norm>
-1.33784

>  <RMSD>
1.008

$$$$
ligand
 OpenBabel11021811503D
libRbt.so/2013.1/901 2013/11/27
 10 11  0  0  0  0  0  0  0  0999 V2000
    3.7492  -19.4972   26.1391 N   0  0  0  0  0  0  0  0  0  0  0  0
    3.0287  -19.0850   27.1841 C   0  0  0  0  0  0  0  0  0  0  0  0
    1.7430  -19.3254   27.4697 N   0  0  0  0  0  0  0  0  0  0  0  0
    1.1794  -20.0794   26.5066 C   0  0  0  0  0  0  0  0  0  0  0  0
    1.7912  -20.5778   25.3722 C   0  0  0  0  0  0  0  0  0  0  0  0
    3.1525  -20.2622   25.1914 C   0  0  0  0  0  0  0  0  0  0  0  0
    3.8642  -20.6736   24.1298 N   0  0  0  0  0  0  0  0  0  0  0  0
    0.9029  -21.3182   24.6137 N   0  0  0  0  0  0  0  0  0  0  0  0
   -0.2126  -21.2637   25.2924 C   0  0  0  0  0  0  0  0  0  0  0  0
   -0.1193  -20.5245   26.4416 N   0  0  0  0  0  0  0  0  0  0  0  0
  1  2  2  0  0  0  0
  1  6  1  0  0  0  0
  2  3  1  0  0  0  0
  3  4  2  0  0  0  0
  4  5  1  0  0  0  0
  4 10  1  0  0  0  0
  5  6  2  0  0  0  0
  5  8  1  0  0  0  0
  6  7  1  0  0  0  0
  8  9  1  0  0  0  0
  9 10  2  0  0  0  0
M  END
>  <CHROM.1>
1.91713981,-20.26124815,25.82828801,0.14996586,0.26327990,1.02555794

>  <Name>
ligand

>  <RI>
0

>  <Rbt.Current_Directory>
/home/itssahil/PROJECTS/Mol_Feturizer/New_Systems/rnas/4LW0

>  <Rbt.Executable>
rbdock ($Id: //depot/dev/client3/rdock/2013.1/src/exe/rbdock.cxx#4 $)

>  <Rbt.Library>
libRbt.so (2013.1, Build901 2013/11/27)

>  <Rbt.Parameter_File>
/export/apps/rDock/src/rDock_2013.1_src/data/scripts/dock_solv.prm

>  <Rbt.Receptor>
prm/pocket_docking_8.prm

>  <SCORE>
-13.4151

>  <SCORE.INTER>
-13.4151

>  <SCORE.INTER.CONST>
1

>  <SCORE.INTER.POLAR>
0

>  <SCORE.INTER.ROT>
0

>  <SCORE.INTER.SOLV>
4.07562

>  <SCORE.INTER.VDW>
-13.902

>  <SCORE.INTER.norm>
-1.34151

>  <SCORE.INTRA>
0

>  <SCORE.INTRA.DIHEDRAL>
0

>  <SCORE.INTRA.DIHEDRAL.0>
0

>  <SCORE.INTRA.POLAR>
0

>  <SCORE.INTRA.POLAR.0>
0

>  <SCORE.INTRA.REPUL>
0

>  <SCORE.INTRA.REPUL.0>
0

>  <SCORE.INTRA.SOLV>
0

>  <SCORE.INTRA.SOLV.lig_0>
-23.9151

>  <SCORE.INTRA.VDW>
0

>  <SCORE.INTRA.VDW.0>
0

>  <SCORE.INTRA.norm>
0

>  <SCORE.RESTR>
0

>  <SCORE.RESTR.CAVITY>
0

>  <SCORE.RESTR.norm>
0

>  <SCORE.SYSTEM>
0

>  <SCORE.SYSTEM.CONST>
0

>  <SCORE.SYSTEM.DIHEDRAL>
0

>  <SCORE.SYSTEM.SOLV>
0

>  <SCORE.SYSTEM.norm>
0

>  <SCORE.heavy>
10

>  <SCORE.norm>
-1.34151

>  <RMSD>
1.008

$$$$
ligand
 OpenBabel11021811503D
libRbt.so/2013.1/901 2013/11/27
 10 11  0  0  0  0  0  0  0  0999 V2000
    3.7596  -19.4776   26.1363 N   0  0  0  0  0  0  0  0  0  0  0  0
    3.0366  -19.0571   27.1762 C   0  0  0  0  0  0  0  0  0  0  0  0
    1.7520  -19.3007   27.4640 N   0  0  0  0  0  0  0  0  0  0  0  0
    1.1926  -20.0684   26.5094 C   0  0  0  0  0  0  0  0  0  0  0  0
    1.8074  -20.5767   25.3810 C   0  0  0  0  0  0  0  0  0  0  0  0
    3.1671  -20.2563   25.1972 C   0  0  0  0  0  0  0  0  0  0  0  0
    3.8814  -20.6762   24.1406 N   0  0  0  0  0  0  0  0  0  0  0  0
    0.9232  -21.3302   24.6307 N   0  0  0  0  0  0  0  0  0  0  0  0
   -0.1929  -21.2736   25.3083 C   0  0  0  0  0  0  0  0  0  0  0  0
   -0.1039  -20.5208   26.4490 N   0  0  0  0  0  0  0  0  0  0  0  0
  1  2  2  0  0  0  0
  1  6  1  0  0  0  0
  2  3  1  0  0  0  0
  3  4  2  0  0  0  0
  4  5  1  0  0  0  0
  4 10  1  0  0  0  0
  5  6  2  0  0  0  0
  5  8  1  0  0  0  0
  6  7  1  0  0  0  0
  8  9  1  0  0  0  0
  9 10  2  0  0  0  0
M  END
>  <CHROM.1>
1.93152035,-20.25433104,25.83349839,0.15305603,0.26736047,1.01332794

>  <Name>
ligand

>  <RI>
0

>  <Rbt.Current_Directory>
/home/itssahil/PROJECTS/Mol_Feturizer/New_Systems/rnas/4LW0

>  <Rbt.Executable>
rbdock ($Id: //depot/dev/client3/rdock/2013.1/src/exe/rbdock.cxx#4 $)

>  <Rbt.Library>
libRbt.so (2013.1, Build901 2013/11/27)

>  <Rbt.Parameter_File>
/export/apps/rDock/src/rDock_2013.1_src/data/scripts/dock_solv.prm

>  <Rbt.Receptor>
prm/pocket_docking_8.prm

>  <SCORE>
-13.4303

>  <SCORE.INTER>
-13.4303

>  <SCORE.INTER.CONST>
1

>  <SCORE.INTER.POLAR>
0

>  <SCORE.INTER.ROT>
0

>  <SCORE.INTER.SOLV>
3.99525

>  <SCORE.INTER.VDW>
-13.8853

>  <SCORE.INTER.norm>
-1.34303

>  <SCORE.INTRA>
0

>  <SCORE.INTRA.DIHEDRAL>
0

>  <SCORE.INTRA.DIHEDRAL.0>
0

>  <SCORE.INTRA.POLAR>
0

>  <SCORE.INTRA.POLAR.0>
0

>  <SCORE.INTRA.REPUL>
0

>  <SCORE.INTRA.REPUL.0>
0

>  <SCORE.INTRA.SOLV>
0

>  <SCORE.INTRA.SOLV.lig_0>
-23.9151

>  <SCORE.INTRA.VDW>
0

>  <SCORE.INTRA.VDW.0>
0

>  <SCORE.INTRA.norm>
0

>  <SCORE.RESTR>
0

>  <SCORE.RESTR.CAVITY>
0

>  <SCORE.RESTR.norm>
0

>  <SCORE.SYSTEM>
0

>  <SCORE.SYSTEM.CONST>
0

>  <SCORE.SYSTEM.DIHEDRAL>
0

>  <SCORE.SYSTEM.SOLV>
0

>  <SCORE.SYSTEM.norm>
0

>  <SCORE.heavy>
10

>  <SCORE.norm>
-1.34303

>  <RMSD>
1.008

$$$$
ligand
 OpenBabel11021811503D
libRbt.so/2013.1/901 2013/11/27
 10 11  0  0  0  0  0  0  0  0999 V2000
    3.7598  -19.4739   26.1332 N   0  0  0  0  0  0  0  0  0  0  0  0
    3.0329  -19.0661   27.1755 C   0  0  0  0  0  0  0  0  0  0  0  0
    1.7505  -19.3228   27.4617 N   0  0  0  0  0  0  0  0  0  0  0  0
    1.1980  -20.0897   26.5024 C   0  0  0  0  0  0  0  0  0  0  0  0
    1.8174  -20.5857   25.3710 C   0  0  0  0  0  0  0  0  0  0  0  0
    3.1743  -20.2521   25.1893 C   0  0  0  0  0  0  0  0  0  0  0  0
    3.8924  -20.6594   24.1303 N   0  0  0  0  0  0  0  0  0  0  0  0
    0.9400  -21.3424   24.6161 N   0  0  0  0  0  0  0  0  0  0  0  0
   -0.1766  -21.2997   25.2937 C   0  0  0  0  0  0  0  0  0  0  0  0
   -0.0944  -20.5531   26.4390 N   0  0  0  0  0  0  0  0  0  0  0  0
  1  2  2  0  0  0  0
  1  6  1  0  0  0  0
  2  3  1  0  0  0  0
  3  4  2  0  0  0  0
  4  5  1  0  0  0  0
  4 10  1  0  0  0  0
  5  6  2  0  0  0  0
  5  8  1  0  0  0  0
  6  7  1  0  0  0  0
  8  9  1  0  0  0  0
  9 10  2  0  0  0  0
M  END
>  <CHROM.1>
1.93865514,-20.26494065,25.82546612,0.15800951,0.27479416,1.01803528

>  <Name>
ligand

>  <RI>
0

>  <Rbt.Current_Directory>
/home/itssahil/PROJECTS/Mol_Feturizer/New_Systems/rnas/4LW0

>  <Rbt.Executable>
rbdock ($Id: //depot/dev/client3/rdock/2013.1/src/exe/rbdock.cxx#4 $)

>  <Rbt.Library>
libRbt.so (2013.1, Build901 2013/11/27)

>  <Rbt.Parameter_File>
/export/apps/rDock/src/rDock_2013.1_src/data/scripts/dock_solv.prm

>  <Rbt.Receptor>
prm/pocket_docking_5.prm

>  <SCORE>
-13.3805

>  <SCORE.INTER>
-13.3805

>  <SCORE.INTER.CONST>
1

>  <SCORE.INTER.POLAR>
0

>  <SCORE.INTER.ROT>
0

>  <SCORE.INTER.SOLV>
3.952

>  <SCORE.INTER.VDW>
-13.8377

>  <SCORE.INTER.norm>
-1.33805

>  <SCORE.INTRA>
0

>  <SCORE.INTRA.DIHEDRAL>
0

>  <SCORE.INTRA.DIHEDRAL.0>
0

>  <SCORE.INTRA.POLAR>
0

>  <SCORE.INTRA.POLAR.0>
0

>  <SCORE.INTRA.REPUL>
0

>  <SCORE.INTRA.REPUL.0>
0

>  <SCORE.INTRA.SOLV>
0

>  <SCORE.INTRA.SOLV.lig_0>
-23.9151

>  <SCORE.INTRA.VDW>
0

>  <SCORE.INTRA.VDW.0>
0

>  <SCORE.INTRA.norm>
0

>  <SCORE.RESTR>
0

>  <SCORE.RESTR.CAVITY>
0

>  <SCORE.RESTR.norm>
0

>  <SCORE.SYSTEM>
0

>  <SCORE.SYSTEM.CONST>
0

>  <SCORE.SYSTEM.DIHEDRAL>
0

>  <SCORE.SYSTEM.SOLV>
0

>  <SCORE.SYSTEM.norm>
0

>  <SCORE.heavy>
10

>  <SCORE.norm>
-1.33805

>  <RMSD>
1.009

$$$$
ligand
 OpenBabel11021811503D
libRbt.so/2013.1/901 2013/11/27
 10 11  0  0  0  0  0  0  0  0999 V2000
    3.7567  -19.4625   26.1246 N   0  0  0  0  0  0  0  0  0  0  0  0
    3.0352  -19.0550   27.1708 C   0  0  0  0  0  0  0  0  0  0  0  0
    1.7526  -19.3067   27.4602 N   0  0  0  0  0  0  0  0  0  0  0  0
    1.1933  -20.0674   26.5000 C   0  0  0  0  0  0  0  0  0  0  0  0
    1.8066  -20.5622   25.3648 C   0  0  0  0  0  0  0  0  0  0  0  0
    3.1645  -20.2344   25.1798 C   0  0  0  0  0  0  0  0  0  0  0  0
    3.8772  -20.6412   24.1170 N   0  0  0  0  0  0  0  0  0  0  0  0
    0.9232  -21.3120   24.6099 N   0  0  0  0  0  0  0  0  0  0  0  0
   -0.1910  -21.2666   25.2914 C   0  0  0  0  0  0  0  0  0  0  0  0
   -0.1015  -20.5246   26.4391 N   0  0  0  0  0  0  0  0  0  0  0  0
  1  2  2  0  0  0  0
  1  6  1  0  0  0  0
  2  3  1  0  0  0  0
  3  4  2  0  0  0  0
  4  5  1  0  0  0  0
  4 10  1  0  0  0  0
  5  6  2  0  0  0  0
  5  8  1  0  0  0  0
  6  7  1  0  0  0  0
  8  9  1  0  0  0  0
  9 10  2  0  0  0  0
M  END
>  <CHROM.1>
1.93087242,-20.24373264,25.81996434,0.15254675,0.27248656,1.02316831

>  <Name>
ligand

>  <RI>
0

>  <Rbt.Current_Directory>
/home/itssahil/PROJECTS/Mol_Feturizer/New_Systems/rnas/4LW0

>  <Rbt.Executable>
rbdock ($Id: //depot/dev/client3/rdock/2013.1/src/exe/rbdock.cxx#4 $)

>  <Rbt.Library>
libRbt.so (2013.1, Build901 2013/11/27)

>  <Rbt.Parameter_File>
/export/apps/rDock/src/rDock_2013.1_src/data/scripts/dock_solv.prm

>  <Rbt.Receptor>
prm/pocket_docking_7.prm

>  <SCORE>
-13.4319

>  <SCORE.INTER>
-13.4319

>  <SCORE.INTER.CONST>
1

>  <SCORE.INTER.POLAR>
0

>  <SCORE.INTER.ROT>
0

>  <SCORE.INTER.SOLV>
4.03437

>  <SCORE.INTER.VDW>
-13.8994

>  <SCORE.INTER.norm>
-1.34319

>  <SCORE.INTRA>
0

>  <SCORE.INTRA.DIHEDRAL>
0

>  <SCORE.INTRA.DIHEDRAL.0>
0

>  <SCORE.INTRA.POLAR>
0

>  <SCORE.INTRA.POLAR.0>
0

>  <SCORE.INTRA.REPUL>
0

>  <SCORE.INTRA.REPUL.0>
0

>  <SCORE.INTRA.SOLV>
0

>  <SCORE.INTRA.SOLV.lig_0>
-23.9151

>  <SCORE.INTRA.VDW>
0

>  <SCORE.INTRA.VDW.0>
0

>  <SCORE.INTRA.norm>
0

>  <SCORE.RESTR>
0

>  <SCORE.RESTR.CAVITY>
0

>  <SCORE.RESTR.norm>
0

>  <SCORE.SYSTEM>
0

>  <SCORE.SYSTEM.CONST>
0

>  <SCORE.SYSTEM.DIHEDRAL>
0

>  <SCORE.SYSTEM.SOLV>
0

>  <SCORE.SYSTEM.norm>
0

>  <SCORE.heavy>
10

>  <SCORE.norm>
-1.34319

>  <RMSD>
1.009

$$$$
ligand
 OpenBabel11021811503D
libRbt.so/2013.1/901 2013/11/27
 10 11  0  0  0  0  0  0  0  0999 V2000
    3.7614  -19.4724   26.1395 N   0  0  0  0  0  0  0  0  0  0  0  0
    3.0384  -19.0615   27.1833 C   0  0  0  0  0  0  0  0  0  0  0  0
    1.7550  -19.3111   27.4711 N   0  0  0  0  0  0  0  0  0  0  0  0
    1.1967  -20.0737   26.5118 C   0  0  0  0  0  0  0  0  0  0  0  0
    1.8115  -20.5721   25.3790 C   0  0  0  0  0  0  0  0  0  0  0  0
    3.1700  -20.2462   25.1956 C   0  0  0  0  0  0  0  0  0  0  0  0
    3.8842  -20.6564   24.1351 N   0  0  0  0  0  0  0  0  0  0  0  0
    0.9287  -21.3229   24.6245 N   0  0  0  0  0  0  0  0  0  0  0  0
   -0.1867  -21.2746   25.3038 C   0  0  0  0  0  0  0  0  0  0  0  0
   -0.0984  -20.5297   26.4498 N   0  0  0  0  0  0  0  0  0  0  0  0
  1  2  2  0  0  0  0
  1  6  1  0  0  0  0
  2  3  1  0  0  0  0
  3  4  2  0  0  0  0
  4  5  1  0  0  0  0
  4 10  1  0  0  0  0
  5  6  2  0  0  0  0
  5  8  1  0  0  0  0
  6  7  1  0  0  0  0
  8  9  1  0  0  0  0
  9 10  2  0  0  0  0
M  END
>  <CHROM.1>
1.93529765,-20.25255517,25.83356453,0.15357982,0.27065434,1.02029111

>  <Name>
ligand

>  <RI>
0

>  <Rbt.Current_Directory>
/home/itssahil/PROJECTS/Mol_Feturizer/New_Systems/rnas/4LW0

>  <Rbt.Executable>
rbdock ($Id: //depot/dev/client3/rdock/2013.1/src/exe/rbdock.cxx#4 $)

>  <Rbt.Library>
libRbt.so (2013.1, Build901 2013/11/27)

>  <Rbt.Parameter_File>
/export/apps/rDock/src/rDock_2013.1_src/data/scripts/dock_solv.prm

>  <Rbt.Receptor>
prm/pocket_docking_4.prm

>  <SCORE>
-13.4211

>  <SCORE.INTER>
-13.4211

>  <SCORE.INTER.CONST>
1

>  <SCORE.INTER.POLAR>
0

>  <SCORE.INTER.ROT>
0

>  <SCORE.INTER.SOLV>
3.98001

>  <SCORE.INTER.VDW>
-13.8741

>  <SCORE.INTER.norm>
-1.34211

>  <SCORE.INTRA>
0

>  <SCORE.INTRA.DIHEDRAL>
0

>  <SCORE.INTRA.DIHEDRAL.0>
0

>  <SCORE.INTRA.POLAR>
0

>  <SCORE.INTRA.POLAR.0>
0

>  <SCORE.INTRA.REPUL>
0

>  <SCORE.INTRA.REPUL.0>
0

>  <SCORE.INTRA.SOLV>
0

>  <SCORE.INTRA.SOLV.lig_0>
-23.9151

>  <SCORE.INTRA.VDW>
0

>  <SCORE.INTRA.VDW.0>
0

>  <SCORE.INTRA.norm>
0

>  <SCORE.RESTR>
0

>  <SCORE.RESTR.CAVITY>
0

>  <SCORE.RESTR.norm>
0

>  <SCORE.SYSTEM>
0

>  <SCORE.SYSTEM.CONST>
0

>  <SCORE.SYSTEM.DIHEDRAL>
0

>  <SCORE.SYSTEM.SOLV>
0

>  <SCORE.SYSTEM.norm>
0

>  <SCORE.heavy>
10

>  <SCORE.norm>
-1.34211

>  <RMSD>
1.010

$$$$
ligand
 OpenBabel11021811503D
libRbt.so/2013.1/901 2013/11/27
 10 11  0  0  0  0  0  0  0  0999 V2000
    3.7582  -19.4790   26.1348 N   0  0  0  0  0  0  0  0  0  0  0  0
    3.0339  -19.0607   27.1747 C   0  0  0  0  0  0  0  0  0  0  0  0
    1.7486  -19.3038   27.4599 N   0  0  0  0  0  0  0  0  0  0  0  0
    1.1900  -20.0683   26.5022 C   0  0  0  0  0  0  0  0  0  0  0  0
    1.8061  -20.5740   25.3733 C   0  0  0  0  0  0  0  0  0  0  0  0
    3.1664  -20.2544   25.1926 C   0  0  0  0  0  0  0  0  0  0  0  0
    3.8820  -20.6721   24.1359 N   0  0  0  0  0  0  0  0  0  0  0  0
    0.9224  -21.3245   24.6195 N   0  0  0  0  0  0  0  0  0  0  0  0
   -0.1947  -21.2687   25.2954 C   0  0  0  0  0  0  0  0  0  0  0  0
   -0.1068  -20.5193   26.4384 N   0  0  0  0  0  0  0  0  0  0  0  0
  1  2  2  0  0  0  0
  1  6  1  0  0  0  0
  2  3  1  0  0  0  0
  3  4  2  0  0  0  0
  4  5  1  0  0  0  0
  4 10  1  0  0  0  0
  5  6  2  0  0  0  0
  5  8  1  0  0  0  0
  6  7  1  0  0  0  0
  8  9  1  0  0  0  0
  9 10  2  0  0  0  0
M  END
>  <CHROM.1>
1.92984078,-20.25304265,25.82692741,0.15393273,0.26568242,1.01592714

>  <Name>
ligand

>  <RI>
0

>  <Rbt.Current_Directory>
/home/itssahil/PROJECTS/Mol_Feturizer/New_Systems/rnas/4LW0

>  <Rbt.Executable>
rbdock ($Id: //depot/dev/client3/rdock/2013.1/src/exe/rbdock.cxx#4 $)

>  <Rbt.Library>
libRbt.so (2013.1, Build901 2013/11/27)

>  <Rbt.Parameter_File>
/export/apps/rDock/src/rDock_2013.1_src/data/scripts/dock_solv.prm

>  <Rbt.Receptor>
prm/pocket_docking_7.prm

>  <SCORE>
-13.4218

>  <SCORE.INTER>
-13.4218

>  <SCORE.INTER.CONST>
1

>  <SCORE.INTER.POLAR>
0

>  <SCORE.INTER.ROT>
0

>  <SCORE.INTER.SOLV>
4.00083

>  <SCORE.INTER.VDW>
-13.8815

>  <SCORE.INTER.norm>
-1.34218

>  <SCORE.INTRA>
0

>  <SCORE.INTRA.DIHEDRAL>
0

>  <SCORE.INTRA.DIHEDRAL.0>
0

>  <SCORE.INTRA.POLAR>
0

>  <SCORE.INTRA.POLAR.0>
0

>  <SCORE.INTRA.REPUL>
0

>  <SCORE.INTRA.REPUL.0>
0

>  <SCORE.INTRA.SOLV>
0

>  <SCORE.INTRA.SOLV.lig_0>
-23.9151

>  <SCORE.INTRA.VDW>
0

>  <SCORE.INTRA.VDW.0>
0

>  <SCORE.INTRA.norm>
0

>  <SCORE.RESTR>
0

>  <SCORE.RESTR.CAVITY>
0

>  <SCORE.RESTR.norm>
0

>  <SCORE.SYSTEM>
0

>  <SCORE.SYSTEM.CONST>
0

>  <SCORE.SYSTEM.DIHEDRAL>
0

>  <SCORE.SYSTEM.SOLV>
0

>  <SCORE.SYSTEM.norm>
0

>  <SCORE.heavy>
10

>  <SCORE.norm>
-1.34218

>  <RMSD>
1.010

$$$$
ligand
 OpenBabel11021811503D
libRbt.so/2013.1/901 2013/11/27
 10 11  0  0  0  0  0  0  0  0999 V2000
    3.7537  -19.4968   26.1394 N   0  0  0  0  0  0  0  0  0  0  0  0
    3.0282  -19.0728   27.1761 C   0  0  0  0  0  0  0  0  0  0  0  0
    1.7407  -19.3085   27.4573 N   0  0  0  0  0  0  0  0  0  0  0  0
    1.1811  -20.0715   26.4990 C   0  0  0  0  0  0  0  0  0  0  0  0
    1.7983  -20.5825   25.3731 C   0  0  0  0  0  0  0  0  0  0  0  0
    3.1610  -20.2706   25.1964 C   0  0  0  0  0  0  0  0  0  0  0  0
    3.8778  -20.6939   24.1429 N   0  0  0  0  0  0  0  0  0  0  0  0
    0.9130  -21.3294   24.6175 N   0  0  0  0  0  0  0  0  0  0  0  0
   -0.2060  -21.2664   25.2895 C   0  0  0  0  0  0  0  0  0  0  0  0
   -0.1179  -20.5155   26.4315 N   0  0  0  0  0  0  0  0  0  0  0  0
  1  2  2  0  0  0  0
  1  6  1  0  0  0  0
  2  3  1  0  0  0  0
  3  4  2  0  0  0  0
  4  5  1  0  0  0  0
  4 10  1  0  0  0  0
  5  6  2  0  0  0  0
  5  8  1  0  0  0  0
  6  7  1  0  0  0  0
  8  9  1  0  0  0  0
  9 10  2  0  0  0  0
M  END
>  <CHROM.1>
1.92223546,-20.26140544,25.82654447,0.15393385,0.25924443,1.01425356

>  <Name>
ligand

>  <RI>
0

>  <Rbt.Current_Directory>
/home/itssahil/PROJECTS/Mol_Feturizer/New_Systems/rnas/4LW0

>  <Rbt.Executable>
rbdock ($Id: //depot/dev/client3/rdock/2013.1/src/exe/rbdock.cxx#4 $)

>  <Rbt.Library>
libRbt.so (2013.1, Build901 2013/11/27)

>  <Rbt.Parameter_File>
/export/apps/rDock/src/rDock_2013.1_src/data/scripts/dock_solv.prm

>  <Rbt.Receptor>
prm/pocket_docking_7.prm

>  <SCORE>
-13.4155

>  <SCORE.INTER>
-13.4155

>  <SCORE.INTER.CONST>
1

>  <SCORE.INTER.POLAR>
0

>  <SCORE.INTER.ROT>
0

>  <SCORE.INTER.SOLV>
4.0173

>  <SCORE.INTER.VDW>
-13.8828

>  <SCORE.INTER.norm>
-1.34155

>  <SCORE.INTRA>
0

>  <SCORE.INTRA.DIHEDRAL>
0

>  <SCORE.INTRA.DIHEDRAL.0>
0

>  <SCORE.INTRA.POLAR>
0

>  <SCORE.INTRA.POLAR.0>
0

>  <SCORE.INTRA.REPUL>
0

>  <SCORE.INTRA.REPUL.0>
0

>  <SCORE.INTRA.SOLV>
0

>  <SCORE.INTRA.SOLV.lig_0>
-23.9151

>  <SCORE.INTRA.VDW>
0

>  <SCORE.INTRA.VDW.0>
0

>  <SCORE.INTRA.norm>
0

>  <SCORE.RESTR>
0

>  <SCORE.RESTR.CAVITY>
0

>  <SCORE.RESTR.norm>
0

>  <SCORE.SYSTEM>
0

>  <SCORE.SYSTEM.CONST>
0

>  <SCORE.SYSTEM.DIHEDRAL>
0

>  <SCORE.SYSTEM.SOLV>
0

>  <SCORE.SYSTEM.norm>
0

>  <SCORE.heavy>
10

>  <SCORE.norm>
-1.34155

>  <RMSD>
1.010

$$$$
ligand
 OpenBabel11021811503D
libRbt.so/2013.1/901 2013/11/27
 10 11  0  0  0  0  0  0  0  0999 V2000
    3.7587  -19.4874   26.1414 N   0  0  0  0  0  0  0  0  0  0  0  0
    3.0339  -19.0703   27.1814 C   0  0  0  0  0  0  0  0  0  0  0  0
    1.7477  -19.3113   27.4640 N   0  0  0  0  0  0  0  0  0  0  0  0
    1.1886  -20.0719   26.5034 C   0  0  0  0  0  0  0  0  0  0  0  0
    1.8052  -20.5759   25.3740 C   0  0  0  0  0  0  0  0  0  0  0  0
    3.1666  -20.2589   25.1961 C   0  0  0  0  0  0  0  0  0  0  0  0
    3.8827  -20.6752   24.1393 N   0  0  0  0  0  0  0  0  0  0  0  0
    0.9208  -21.3222   24.6168 N   0  0  0  0  0  0  0  0  0  0  0  0
   -0.1971  -21.2657   25.2913 C   0  0  0  0  0  0  0  0  0  0  0  0
   -0.1091  -20.5196   26.4365 N   0  0  0  0  0  0  0  0  0  0  0  0
  1  2  2  0  0  0  0
  1  6  1  0  0  0  0
  2  3  1  0  0  0  0
  3  4  2  0  0  0  0
  4  5  1  0  0  0  0
  4 10  1  0  0  0  0
  5  6  2  0  0  0  0
  5  8  1  0  0  0  0
  6  7  1  0  0  0  0
  8  9  1  0  0  0  0
  9 10  2  0  0  0  0
M  END
>  <CHROM.1>
1.92903894,-20.25640026,25.82869587,0.15394332,0.26295176,1.01870414

>  <Name>
ligand

>  <RI>
0

>  <Rbt.Current_Directory>
/home/itssahil/PROJECTS/Mol_Feturizer/New_Systems/rnas/4LW0

>  <Rbt.Executable>
rbdock ($Id: //depot/dev/client3/rdock/2013.1/src/exe/rbdock.cxx#4 $)

>  <Rbt.Library>
libRbt.so (2013.1, Build901 2013/11/27)

>  <Rbt.Parameter_File>
/export/apps/rDock/src/rDock_2013.1_src/data/scripts/dock_solv.prm

>  <Rbt.Receptor>
prm/pocket_docking_6.prm

>  <SCORE>
-13.4182

>  <SCORE.INTER>
-13.4182

>  <SCORE.INTER.CONST>
1

>  <SCORE.INTER.POLAR>
0

>  <SCORE.INTER.ROT>
0

>  <SCORE.INTER.SOLV>
3.993

>  <SCORE.INTER.VDW>
-13.8765

>  <SCORE.INTER.norm>
-1.34182

>  <SCORE.INTRA>
0

>  <SCORE.INTRA.DIHEDRAL>
0

>  <SCORE.INTRA.DIHEDRAL.0>
0

>  <SCORE.INTRA.POLAR>
0

>  <SCORE.INTRA.POLAR.0>
0

>  <SCORE.INTRA.REPUL>
0

>  <SCORE.INTRA.REPUL.0>
0

>  <SCORE.INTRA.SOLV>
0

>  <SCORE.INTRA.SOLV.lig_0>
-23.9151

>  <SCORE.INTRA.VDW>
0

>  <SCORE.INTRA.VDW.0>
0

>  <SCORE.INTRA.norm>
0

>  <SCORE.RESTR>
0

>  <SCORE.RESTR.CAVITY>
0

>  <SCORE.RESTR.norm>
0

>  <SCORE.SYSTEM>
0

>  <SCORE.SYSTEM.CONST>
0

>  <SCORE.SYSTEM.DIHEDRAL>
0

>  <SCORE.SYSTEM.SOLV>
0

>  <SCORE.SYSTEM.norm>
0

>  <SCORE.heavy>
10

>  <SCORE.norm>
-1.34182

>  <RMSD>
1.011

$$$$
ligand
 OpenBabel11021811503D
libRbt.so/2013.1/901 2013/11/27
 10 11  0  0  0  0  0  0  0  0999 V2000
    3.7608  -19.4482   26.1286 N   0  0  0  0  0  0  0  0  0  0  0  0
    3.0332  -19.0403   27.1704 C   0  0  0  0  0  0  0  0  0  0  0  0
    1.7529  -19.3039   27.4600 N   0  0  0  0  0  0  0  0  0  0  0  0
    1.2037  -20.0787   26.5051 C   0  0  0  0  0  0  0  0  0  0  0  0
    1.8243  -20.5759   25.3749 C   0  0  0  0  0  0  0  0  0  0  0  0
    3.1787  -20.2344   25.1893 C   0  0  0  0  0  0  0  0  0  0  0  0
    3.8976  -20.6418   24.1309 N   0  0  0  0  0  0  0  0  0  0  0  0
    0.9505  -21.3416   24.6249 N   0  0  0  0  0  0  0  0  0  0  0  0
   -0.1652  -21.3031   25.3044 C   0  0  0  0  0  0  0  0  0  0  0  0
   -0.0858  -20.5507   26.4461 N   0  0  0  0  0  0  0  0  0  0  0  0
  1  2  2  0  0  0  0
  1  6  1  0  0  0  0
  2  3  1  0  0  0  0
  3  4  2  0  0  0  0
  4  5  1  0  0  0  0
  4 10  1  0  0  0  0
  5  6  2  0  0  0  0
  5  8  1  0  0  0  0
  6  7  1  0  0  0  0
  8  9  1  0  0  0  0
  9 10  2  0  0  0  0
M  END
>  <CHROM.1>
1.94429434,-20.25226651,25.82768647,0.16000564,0.28118089,1.01295221

>  <Name>
ligand

>  <RI>
0

>  <Rbt.Current_Directory>
/home/itssahil/PROJECTS/Mol_Feturizer/New_Systems/rnas/4LW0

>  <Rbt.Executable>
rbdock ($Id: //depot/dev/client3/rdock/2013.1/src/exe/rbdock.cxx#4 $)

>  <Rbt.Library>
libRbt.so (2013.1, Build901 2013/11/27)

>  <Rbt.Parameter_File>
/export/apps/rDock/src/rDock_2013.1_src/data/scripts/dock_solv.prm

>  <Rbt.Receptor>
prm/pocket_docking_4.prm

>  <SCORE>
-13.3884

>  <SCORE.INTER>
-13.3884

>  <SCORE.INTER.CONST>
1

>  <SCORE.INTER.POLAR>
0

>  <SCORE.INTER.ROT>
0

>  <SCORE.INTER.SOLV>
3.92554

>  <SCORE.INTER.VDW>
-13.8341

>  <SCORE.INTER.norm>
-1.33884

>  <SCORE.INTRA>
0

>  <SCORE.INTRA.DIHEDRAL>
0

>  <SCORE.INTRA.DIHEDRAL.0>
0

>  <SCORE.INTRA.POLAR>
0

>  <SCORE.INTRA.POLAR.0>
0

>  <SCORE.INTRA.REPUL>
0

>  <SCORE.INTRA.REPUL.0>
0

>  <SCORE.INTRA.SOLV>
0

>  <SCORE.INTRA.SOLV.lig_0>
-23.9151

>  <SCORE.INTRA.VDW>
0

>  <SCORE.INTRA.VDW.0>
0

>  <SCORE.INTRA.norm>
0

>  <SCORE.RESTR>
0

>  <SCORE.RESTR.CAVITY>
0

>  <SCORE.RESTR.norm>
0

>  <SCORE.SYSTEM>
0

>  <SCORE.SYSTEM.CONST>
0

>  <SCORE.SYSTEM.DIHEDRAL>
0

>  <SCORE.SYSTEM.SOLV>
0

>  <SCORE.SYSTEM.norm>
0

>  <SCORE.heavy>
10

>  <SCORE.norm>
-1.33884

>  <RMSD>
1.013

$$$$
ligand
 OpenBabel11021811503D
libRbt.so/2013.1/901 2013/11/27
 10 11  0  0  0  0  0  0  0  0999 V2000
    3.7650  -19.5229   26.1702 N   0  0  0  0  0  0  0  0  0  0  0  0
    3.0344  -19.0827   27.1965 C   0  0  0  0  0  0  0  0  0  0  0  0
    1.7432  -19.3068   27.4703 N   0  0  0  0  0  0  0  0  0  0  0  0
    1.1860  -20.0769   26.5163 C   0  0  0  0  0  0  0  0  0  0  0  0
    1.8084  -20.6044   25.4009 C   0  0  0  0  0  0  0  0  0  0  0  0
    3.1744  -20.3033   25.2313 C   0  0  0  0  0  0  0  0  0  0  0  0
    3.8965  -20.7430   24.1881 N   0  0  0  0  0  0  0  0  0  0  0  0
    0.9240  -21.3539   24.6468 N   0  0  0  0  0  0  0  0  0  0  0  0
   -0.1997  -21.2761   25.3094 C   0  0  0  0  0  0  0  0  0  0  0  0
   -0.1154  -20.5131   26.4437 N   0  0  0  0  0  0  0  0  0  0  0  0
  1  2  2  0  0  0  0
  1  6  1  0  0  0  0
  2  3  1  0  0  0  0
  3  4  2  0  0  0  0
  4  5  1  0  0  0  0
  4 10  1  0  0  0  0
  5  6  2  0  0  0  0
  5  8  1  0  0  0  0
  6  7  1  0  0  0  0
  8  9  1  0  0  0  0
  9 10  2  0  0  0  0
M  END
>  <CHROM.1>
1.93095341,-20.27904331,25.85169798,0.15706731,0.24961873,1.00233910

>  <Name>
ligand

>  <RI>
0

>  <Rbt.Current_Directory>
/home/itssahil/PROJECTS/Mol_Feturizer/New_Systems/rnas/4LW0

>  <Rbt.Executable>
rbdock ($Id: //depot/dev/client3/rdock/2013.1/src/exe/rbdock.cxx#4 $)

>  <Rbt.Library>
libRbt.so (2013.1, Build901 2013/11/27)

>  <Rbt.Parameter_File>
/export/apps/rDock/src/rDock_2013.1_src/data/scripts/dock_solv.prm

>  <Rbt.Receptor>
prm/pocket_docking_3.prm

>  <SCORE>
-13.4162

>  <SCORE.INTER>
-13.4162

>  <SCORE.INTER.CONST>
1

>  <SCORE.INTER.POLAR>
0

>  <SCORE.INTER.ROT>
0

>  <SCORE.INTER.SOLV>
3.8862

>  <SCORE.INTER.VDW>
-13.8395

>  <SCORE.INTER.norm>
-1.34162

>  <SCORE.INTRA>
0

>  <SCORE.INTRA.DIHEDRAL>
0

>  <SCORE.INTRA.DIHEDRAL.0>
0

>  <SCORE.INTRA.POLAR>
0

>  <SCORE.INTRA.POLAR.0>
0

>  <SCORE.INTRA.REPUL>
0

>  <SCORE.INTRA.REPUL.0>
0

>  <SCORE.INTRA.SOLV>
0

>  <SCORE.INTRA.SOLV.lig_0>
-23.9151

>  <SCORE.INTRA.VDW>
0

>  <SCORE.INTRA.VDW.0>
0

>  <SCORE.INTRA.norm>
0

>  <SCORE.RESTR>
0

>  <SCORE.RESTR.CAVITY>
0

>  <SCORE.RESTR.norm>
0

>  <SCORE.SYSTEM>
0

>  <SCORE.SYSTEM.CONST>
0

>  <SCORE.SYSTEM.DIHEDRAL>
0

>  <SCORE.SYSTEM.SOLV>
0

>  <SCORE.SYSTEM.norm>
0

>  <SCORE.heavy>
10

>  <SCORE.norm>
-1.34162

>  <RMSD>
1.014

$$$$
ligand
 OpenBabel11021811503D
libRbt.so/2013.1/901 2013/11/27
 10 11  0  0  0  0  0  0  0  0999 V2000
    3.7681  -19.4488   26.1316 N   0  0  0  0  0  0  0  0  0  0  0  0
    3.0417  -19.0443   27.1755 C   0  0  0  0  0  0  0  0  0  0  0  0
    1.7592  -19.3014   27.4611 N   0  0  0  0  0  0  0  0  0  0  0  0
    1.2061  -20.0646   26.4992 C   0  0  0  0  0  0  0  0  0  0  0  0
    1.8250  -20.5569   25.3660 C   0  0  0  0  0  0  0  0  0  0  0  0
    3.1820  -20.2234   25.1852 C   0  0  0  0  0  0  0  0  0  0  0  0
    3.8997  -20.6272   24.1246 N   0  0  0  0  0  0  0  0  0  0  0  0
    0.9470  -21.3105   24.6086 N   0  0  0  0  0  0  0  0  0  0  0  0
   -0.1694  -21.2697   25.2866 C   0  0  0  0  0  0  0  0  0  0  0  0
   -0.0865  -20.5272   26.4345 N   0  0  0  0  0  0  0  0  0  0  0  0
  1  2  2  0  0  0  0
  1  6  1  0  0  0  0
  2  3  1  0  0  0  0
  3  4  2  0  0  0  0
  4  5  1  0  0  0  0
  4 10  1  0  0  0  0
  5  6  2  0  0  0  0
  5  8  1  0  0  0  0
  6  7  1  0  0  0  0
  8  9  1  0  0  0  0
  9 10  2  0  0  0  0
M  END
>  <CHROM.1>
1.94650752,-20.23781594,25.82152631,0.15755446,0.27451030,1.02168698

>  <Name>
ligand

>  <RI>
0

>  <Rbt.Current_Directory>
/home/itssahil/PROJECTS/Mol_Feturizer/New_Systems/rnas/4LW0

>  <Rbt.Executable>
rbdock ($Id: //depot/dev/client3/rdock/2013.1/src/exe/rbdock.cxx#4 $)

>  <Rbt.Library>
libRbt.so (2013.1, Build901 2013/11/27)

>  <Rbt.Parameter_File>
/export/apps/rDock/src/rDock_2013.1_src/data/scripts/dock_solv.prm

>  <Rbt.Receptor>
prm/pocket_docking_6.prm

>  <SCORE>
-13.4208

>  <SCORE.INTER>
-13.4208

>  <SCORE.INTER.CONST>
1

>  <SCORE.INTER.POLAR>
0

>  <SCORE.INTER.ROT>
0

>  <SCORE.INTER.SOLV>
3.92755

>  <SCORE.INTER.VDW>
-13.8564

>  <SCORE.INTER.norm>
-1.34208

>  <SCORE.INTRA>
0

>  <SCORE.INTRA.DIHEDRAL>
0

>  <SCORE.INTRA.DIHEDRAL.0>
0

>  <SCORE.INTRA.POLAR>
0

>  <SCORE.INTRA.POLAR.0>
0

>  <SCORE.INTRA.REPUL>
0

>  <SCORE.INTRA.REPUL.0>
0

>  <SCORE.INTRA.SOLV>
0

>  <SCORE.INTRA.SOLV.lig_0>
-23.9151

>  <SCORE.INTRA.VDW>
0

>  <SCORE.INTRA.VDW.0>
0

>  <SCORE.INTRA.norm>
0

>  <SCORE.RESTR>
0

>  <SCORE.RESTR.CAVITY>
0

>  <SCORE.RESTR.norm>
0

>  <SCORE.SYSTEM>
0

>  <SCORE.SYSTEM.CONST>
0

>  <SCORE.SYSTEM.DIHEDRAL>
0

>  <SCORE.SYSTEM.SOLV>
0

>  <SCORE.SYSTEM.norm>
0

>  <SCORE.heavy>
10

>  <SCORE.norm>
-1.34208

>  <RMSD>
1.015

$$$$
ligand
 OpenBabel11021811503D
libRbt.so/2013.1/901 2013/11/27
 10 11  0  0  0  0  0  0  0  0999 V2000
    3.7698  -19.5091   26.1661 N   0  0  0  0  0  0  0  0  0  0  0  0
    3.0378  -19.0740   27.1936 C   0  0  0  0  0  0  0  0  0  0  0  0
    1.7473  -19.3026   27.4666 N   0  0  0  0  0  0  0  0  0  0  0  0
    1.1924  -20.0715   26.5103 C   0  0  0  0  0  0  0  0  0  0  0  0
    1.8164  -20.5939   25.3934 C   0  0  0  0  0  0  0  0  0  0  0  0
    3.1815  -20.2885   25.2249 C   0  0  0  0  0  0  0  0  0  0  0  0
    3.9050  -20.7231   24.1805 N   0  0  0  0  0  0  0  0  0  0  0  0
    0.9343  -21.3438   24.6371 N   0  0  0  0  0  0  0  0  0  0  0  0
   -0.1897  -21.2712   25.2998 C   0  0  0  0  0  0  0  0  0  0  0  0
   -0.1077  -20.5112   26.4363 N   0  0  0  0  0  0  0  0  0  0  0  0
  1  2  2  0  0  0  0
  1  6  1  0  0  0  0
  2  3  1  0  0  0  0
  3  4  2  0  0  0  0
  4  5  1  0  0  0  0
  4 10  1  0  0  0  0
  5  6  2  0  0  0  0
  5  8  1  0  0  0  0
  6  7  1  0  0  0  0
  8  9  1  0  0  0  0
  9 10  2  0  0  0  0
M  END
>  <CHROM.1>
1.93799542,-20.26957755,25.84522367,0.15874723,0.25197453,1.00481606

>  <Name>
ligand

>  <RI>
0

>  <Rbt.Current_Directory>
/home/itssahil/PROJECTS/Mol_Feturizer/New_Systems/rnas/4LW0

>  <Rbt.Executable>
rbdock ($Id: //depot/dev/client3/rdock/2013.1/src/exe/rbdock.cxx#4 $)

>  <Rbt.Library>
libRbt.so (2013.1, Build901 2013/11/27)

>  <Rbt.Parameter_File>
/export/apps/rDock/src/rDock_2013.1_src/data/scripts/dock_solv.prm

>  <Rbt.Receptor>
prm/pocket_docking_4.prm

>  <SCORE>
-13.4182

>  <SCORE.INTER>
-13.4182

>  <SCORE.INTER.CONST>
1

>  <SCORE.INTER.POLAR>
0

>  <SCORE.INTER.ROT>
0

>  <SCORE.INTER.SOLV>
3.86006

>  <SCORE.INTER.VDW>
-13.8322

>  <SCORE.INTER.norm>
-1.34182

>  <SCORE.INTRA>
0

>  <SCORE.INTRA.DIHEDRAL>
0

>  <SCORE.INTRA.DIHEDRAL.0>
0

>  <SCORE.INTRA.POLAR>
0

>  <SCORE.INTRA.POLAR.0>
0

>  <SCORE.INTRA.REPUL>
0

>  <SCORE.INTRA.REPUL.0>
0

>  <SCORE.INTRA.SOLV>
0

>  <SCORE.INTRA.SOLV.lig_0>
-23.9151

>  <SCORE.INTRA.VDW>
0

>  <SCORE.INTRA.VDW.0>
0

>  <SCORE.INTRA.norm>
0

>  <SCORE.RESTR>
0

>  <SCORE.RESTR.CAVITY>
0

>  <SCORE.RESTR.norm>
0

>  <SCORE.SYSTEM>
0

>  <SCORE.SYSTEM.CONST>
0

>  <SCORE.SYSTEM.DIHEDRAL>
0

>  <SCORE.SYSTEM.SOLV>
0

>  <SCORE.SYSTEM.norm>
0

>  <SCORE.heavy>
10

>  <SCORE.norm>
-1.34182

>  <RMSD>
1.016

$$$$
ligand
 OpenBabel11021811503D
libRbt.so/2013.1/901 2013/11/27
 10 11  0  0  0  0  0  0  0  0999 V2000
    3.7701  -19.4860   26.1519 N   0  0  0  0  0  0  0  0  0  0  0  0
    3.0389  -19.0625   27.1849 C   0  0  0  0  0  0  0  0  0  0  0  0
    1.7507  -19.3011   27.4605 N   0  0  0  0  0  0  0  0  0  0  0  0
    1.1973  -20.0666   26.5007 C   0  0  0  0  0  0  0  0  0  0  0  0
    1.8208  -20.5774   25.3782 C   0  0  0  0  0  0  0  0  0  0  0  0
    3.1835  -20.2624   25.2072 C   0  0  0  0  0  0  0  0  0  0  0  0
    3.9062  -20.6852   24.1575 N   0  0  0  0  0  0  0  0  0  0  0  0
    0.9408  -21.3274   24.6195 N   0  0  0  0  0  0  0  0  0  0  0  0
   -0.1814  -21.2664   25.2864 C   0  0  0  0  0  0  0  0  0  0  0  0
   -0.1002  -20.5139   26.4279 N   0  0  0  0  0  0  0  0  0  0  0  0
  1  2  2  0  0  0  0
  1  6  1  0  0  0  0
  2  3  1  0  0  0  0
  3  4  2  0  0  0  0
  4  5  1  0  0  0  0
  4 10  1  0  0  0  0
  5  6  2  0  0  0  0
  5  8  1  0  0  0  0
  6  7  1  0  0  0  0
  8  9  1  0  0  0  0
  9 10  2  0  0  0  0
M  END
>  <CHROM.1>
1.94194164,-20.25549577,25.83180063,0.15924655,0.25897357,1.01166963

>  <Name>
ligand

>  <RI>
0

>  <Rbt.Current_Directory>
/home/itssahil/PROJECTS/Mol_Feturizer/New_Systems/rnas/4LW0

>  <Rbt.Executable>
rbdock ($Id: //depot/dev/client3/rdock/2013.1/src/exe/rbdock.cxx#4 $)

>  <Rbt.Library>
libRbt.so (2013.1, Build901 2013/11/27)

>  <Rbt.Parameter_File>
/export/apps/rDock/src/rDock_2013.1_src/data/scripts/dock_solv.prm

>  <Rbt.Receptor>
prm/pocket_docking_8.prm

>  <SCORE>
-13.4034

>  <SCORE.INTER>
-13.4034

>  <SCORE.INTER.CONST>
1

>  <SCORE.INTER.POLAR>
0

>  <SCORE.INTER.ROT>
0

>  <SCORE.INTER.SOLV>
3.87951

>  <SCORE.INTER.VDW>
-13.8288

>  <SCORE.INTER.norm>
-1.34034

>  <SCORE.INTRA>
0

>  <SCORE.INTRA.DIHEDRAL>
0

>  <SCORE.INTRA.DIHEDRAL.0>
0

>  <SCORE.INTRA.POLAR>
0

>  <SCORE.INTRA.POLAR.0>
0

>  <SCORE.INTRA.REPUL>
0

>  <SCORE.INTRA.REPUL.0>
0

>  <SCORE.INTRA.SOLV>
0

>  <SCORE.INTRA.SOLV.lig_0>
-23.9151

>  <SCORE.INTRA.VDW>
0

>  <SCORE.INTRA.VDW.0>
0

>  <SCORE.INTRA.norm>
0

>  <SCORE.RESTR>
0

>  <SCORE.RESTR.CAVITY>
0

>  <SCORE.RESTR.norm>
0

>  <SCORE.SYSTEM>
0

>  <SCORE.SYSTEM.CONST>
0

>  <SCORE.SYSTEM.DIHEDRAL>
0

>  <SCORE.SYSTEM.SOLV>
0

>  <SCORE.SYSTEM.norm>
0

>  <SCORE.heavy>
10

>  <SCORE.norm>
-1.34034

>  <RMSD>
1.017

$$$$
ligand
 OpenBabel11021811503D
libRbt.so/2013.1/901 2013/11/27
 10 11  0  0  0  0  0  0  0  0999 V2000
    3.7689  -19.4510   26.1404 N   0  0  0  0  0  0  0  0  0  0  0  0
    3.0422  -19.0571   27.1882 C   0  0  0  0  0  0  0  0  0  0  0  0
    1.7599  -19.3178   27.4713 N   0  0  0  0  0  0  0  0  0  0  0  0
    1.2073  -20.0719   26.5020 C   0  0  0  0  0  0  0  0  0  0  0  0
    1.8265  -20.5528   25.3640 C   0  0  0  0  0  0  0  0  0  0  0  0
    3.1833  -20.2167   25.1865 C   0  0  0  0  0  0  0  0  0  0  0  0
    3.9012  -20.6098   24.1220 N   0  0  0  0  0  0  0  0  0  0  0  0
    0.9490  -21.2996   24.5993 N   0  0  0  0  0  0  0  0  0  0  0  0
   -0.1675  -21.2661   25.2777 C   0  0  0  0  0  0  0  0  0  0  0  0
   -0.0850  -20.5347   26.4328 N   0  0  0  0  0  0  0  0  0  0  0  0
  1  2  2  0  0  0  0
  1  6  1  0  0  0  0
  2  3  1  0  0  0  0
  3  4  2  0  0  0  0
  4  5  1  0  0  0  0
  4 10  1  0  0  0  0
  5  6  2  0  0  0  0
  5  8  1  0  0  0  0
  6  7  1  0  0  0  0
  8  9  1  0  0  0  0
  9 10  2  0  0  0  0
M  END
>  <CHROM.1>
1.94779714,-20.23812668,25.82264394,0.15788695,0.27502338,1.03132271

>  <Name>
ligand

>  <RI>
0

>  <Rbt.Current_Directory>
/home/itssahil/PROJECTS/Mol_Feturizer/New_Systems/rnas/4LW0

>  <Rbt.Executable>
rbdock ($Id: //depot/dev/client3/rdock/2013.1/src/exe/rbdock.cxx#4 $)

>  <Rbt.Library>
libRbt.so (2013.1, Build901 2013/11/27)

>  <Rbt.Parameter_File>
/export/apps/rDock/src/rDock_2013.1_src/data/scripts/dock_solv.prm

>  <Rbt.Receptor>
prm/pocket_docking_7.prm

>  <SCORE>
-13.4059

>  <SCORE.INTER>
-13.4059

>  <SCORE.INTER.CONST>
1

>  <SCORE.INTER.POLAR>
0

>  <SCORE.INTER.ROT>
0

>  <SCORE.INTER.SOLV>
3.91263

>  <SCORE.INTER.VDW>
-13.8415

>  <SCORE.INTER.norm>
-1.34059

>  <SCORE.INTRA>
0

>  <SCORE.INTRA.DIHEDRAL>
0

>  <SCORE.INTRA.DIHEDRAL.0>
0

>  <SCORE.INTRA.POLAR>
0

>  <SCORE.INTRA.POLAR.0>
0

>  <SCORE.INTRA.REPUL>
0

>  <SCORE.INTRA.REPUL.0>
0

>  <SCORE.INTRA.SOLV>
0

>  <SCORE.INTRA.SOLV.lig_0>
-23.9151

>  <SCORE.INTRA.VDW>
0

>  <SCORE.INTRA.VDW.0>
0

>  <SCORE.INTRA.norm>
0

>  <SCORE.RESTR>
0

>  <SCORE.RESTR.CAVITY>
0

>  <SCORE.RESTR.norm>
0

>  <SCORE.SYSTEM>
0

>  <SCORE.SYSTEM.CONST>
0

>  <SCORE.SYSTEM.DIHEDRAL>
0

>  <SCORE.SYSTEM.SOLV>
0

>  <SCORE.SYSTEM.norm>
0

>  <SCORE.heavy>
10

>  <SCORE.norm>
-1.34059

>  <RMSD>
1.019

$$$$
ligand
 OpenBabel11021811503D
libRbt.so/2013.1/901 2013/11/27
 10 11  0  0  0  0  0  0  0  0999 V2000
    3.7746  -19.4939   26.1637 N   0  0  0  0  0  0  0  0  0  0  0  0
    3.0398  -19.0702   27.1940 C   0  0  0  0  0  0  0  0  0  0  0  0
    1.7497  -19.3058   27.4633 N   0  0  0  0  0  0  0  0  0  0  0  0
    1.1988  -20.0684   26.4997 C   0  0  0  0  0  0  0  0  0  0  0  0
    1.8261  -20.5790   25.3792 C   0  0  0  0  0  0  0  0  0  0  0  0
    3.1904  -20.2672   25.2151 C   0  0  0  0  0  0  0  0  0  0  0  0
    3.9168  -20.6902   24.1680 N   0  0  0  0  0  0  0  0  0  0  0  0
    0.9476  -21.3254   24.6153 N   0  0  0  0  0  0  0  0  0  0  0  0
   -0.1775  -21.2625   25.2771 C   0  0  0  0  0  0  0  0  0  0  0  0
   -0.0996  -20.5121   26.4202 N   0  0  0  0  0  0  0  0  0  0  0  0
  1  2  2  0  0  0  0
  1  6  1  0  0  0  0
  2  3  1  0  0  0  0
  3  4  2  0  0  0  0
  4  5  1  0  0  0  0
  4 10  1  0  0  0  0
  5  6  2  0  0  0  0
  5  8  1  0  0  0  0
  6  7  1  0  0  0  0
  8  9  1  0  0  0  0
  9 10  2  0  0  0  0
M  END
>  <CHROM.1>
1.94594824,-20.25807231,25.83392521,0.16185915,0.25429243,1.01264940

>  <Name>
ligand

>  <RI>
0

>  <Rbt.Current_Directory>
/home/itssahil/PROJECTS/Mol_Feturizer/New_Systems/rnas/4LW0

>  <Rbt.Executable>
rbdock ($Id: //depot/dev/client3/rdock/2013.1/src/exe/rbdock.cxx#4 $)

>  <Rbt.Library>
libRbt.so (2013.1, Build901 2013/11/27)

>  <Rbt.Parameter_File>
/export/apps/rDock/src/rDock_2013.1_src/data/scripts/dock_solv.prm

>  <Rbt.Receptor>
prm/pocket_docking_7.prm

>  <SCORE>
-13.4061

>  <SCORE.INTER>
-13.4061

>  <SCORE.INTER.CONST>
1

>  <SCORE.INTER.POLAR>
0

>  <SCORE.INTER.ROT>
0

>  <SCORE.INTER.SOLV>
3.82322

>  <SCORE.INTER.VDW>
-13.8118

>  <SCORE.INTER.norm>
-1.34061

>  <SCORE.INTRA>
0

>  <SCORE.INTRA.DIHEDRAL>
0

>  <SCORE.INTRA.DIHEDRAL.0>
0

>  <SCORE.INTRA.POLAR>
0

>  <SCORE.INTRA.POLAR.0>
0

>  <SCORE.INTRA.REPUL>
0

>  <SCORE.INTRA.REPUL.0>
0

>  <SCORE.INTRA.SOLV>
0

>  <SCORE.INTRA.SOLV.lig_0>
-23.9151

>  <SCORE.INTRA.VDW>
0

>  <SCORE.INTRA.VDW.0>
0

>  <SCORE.INTRA.norm>
0

>  <SCORE.RESTR>
0

>  <SCORE.RESTR.CAVITY>
0

>  <SCORE.RESTR.norm>
0

>  <SCORE.SYSTEM>
0

>  <SCORE.SYSTEM.CONST>
0

>  <SCORE.SYSTEM.DIHEDRAL>
0

>  <SCORE.SYSTEM.SOLV>
0

>  <SCORE.SYSTEM.norm>
0

>  <SCORE.heavy>
10

>  <SCORE.norm>
-1.34061

>  <RMSD>
1.022

$$$$
ligand
 OpenBabel11021811503D
libRbt.so/2013.1/901 2013/11/27
 10 11  0  0  0  0  0  0  0  0999 V2000
    3.7779  -19.4763   26.1604 N   0  0  0  0  0  0  0  0  0  0  0  0
    3.0430  -19.0590   27.1933 C   0  0  0  0  0  0  0  0  0  0  0  0
    1.7550  -19.3030   27.4653 N   0  0  0  0  0  0  0  0  0  0  0  0
    1.2065  -20.0671   26.5015 C   0  0  0  0  0  0  0  0  0  0  0  0
    1.8342  -20.5718   25.3786 C   0  0  0  0  0  0  0  0  0  0  0  0
    3.1961  -20.2514   25.2118 C   0  0  0  0  0  0  0  0  0  0  0  0
    3.9225  -20.6680   24.1621 N   0  0  0  0  0  0  0  0  0  0  0  0
    0.9584  -21.3222   24.6154 N   0  0  0  0  0  0  0  0  0  0  0  0
   -0.1654  -21.2674   25.2800 C   0  0  0  0  0  0  0  0  0  0  0  0
   -0.0894  -20.5186   26.4243 N   0  0  0  0  0  0  0  0  0  0  0  0
  1  2  2  0  0  0  0
  1  6  1  0  0  0  0
  2  3  1  0  0  0  0
  3  4  2  0  0  0  0
  4  5  1  0  0  0  0
  4 10  1  0  0  0  0
  5  6  2  0  0  0  0
  5  8  1  0  0  0  0
  6  7  1  0  0  0  0
  8  9  1  0  0  0  0
  9 10  2  0  0  0  0
M  END
>  <CHROM.1>
1.95317305,-20.25100776,25.83361638,0.16307519,0.26075897,1.01418941

>  <Name>
ligand

>  <RI>
0

>  <Rbt.Current_Directory>
/home/itssahil/PROJECTS/Mol_Feturizer/New_Systems/rnas/4LW0

>  <Rbt.Executable>
rbdock ($Id: //depot/dev/client3/rdock/2013.1/src/exe/rbdock.cxx#4 $)

>  <Rbt.Library>
libRbt.so (2013.1, Build901 2013/11/27)

>  <Rbt.Parameter_File>
/export/apps/rDock/src/rDock_2013.1_src/data/scripts/dock_solv.prm

>  <Rbt.Receptor>
prm/pocket_docking_5.prm

>  <SCORE>
-13.4075

>  <SCORE.INTER>
-13.4075

>  <SCORE.INTER.CONST>
1

>  <SCORE.INTER.POLAR>
0

>  <SCORE.INTER.ROT>
0

>  <SCORE.INTER.SOLV>
3.79817

>  <SCORE.INTER.VDW>
-13.8044

>  <SCORE.INTER.norm>
-1.34075

>  <SCORE.INTRA>
0

>  <SCORE.INTRA.DIHEDRAL>
0

>  <SCORE.INTRA.DIHEDRAL.0>
0

>  <SCORE.INTRA.POLAR>
0

>  <SCORE.INTRA.POLAR.0>
0

>  <SCORE.INTRA.REPUL>
0

>  <SCORE.INTRA.REPUL.0>
0

>  <SCORE.INTRA.SOLV>
0

>  <SCORE.INTRA.SOLV.lig_0>
-23.9151

>  <SCORE.INTRA.VDW>
0

>  <SCORE.INTRA.VDW.0>
0

>  <SCORE.INTRA.norm>
0

>  <SCORE.RESTR>
0

>  <SCORE.RESTR.CAVITY>
0

>  <SCORE.RESTR.norm>
0

>  <SCORE.SYSTEM>
0

>  <SCORE.SYSTEM.CONST>
0

>  <SCORE.SYSTEM.DIHEDRAL>
0

>  <SCORE.SYSTEM.SOLV>
0

>  <SCORE.SYSTEM.norm>
0

>  <SCORE.heavy>
10

>  <SCORE.norm>
-1.34075

>  <RMSD>
1.023

$$$$
ligand
 OpenBabel11021811503D
libRbt.so/2013.1/901 2013/11/27
 10 11  0  0  0  0  0  0  0  0999 V2000
    3.7918  -19.4864   26.1688 N   0  0  0  0  0  0  0  0  0  0  0  0
    3.0404  -19.0591   27.1856 C   0  0  0  0  0  0  0  0  0  0  0  0
    1.7541  -19.3184   27.4511 N   0  0  0  0  0  0  0  0  0  0  0  0
    1.2272  -20.1121   26.4992 C   0  0  0  0  0  0  0  0  0  0  0  0
    1.8736  -20.6304   25.3933 C   0  0  0  0  0  0  0  0  0  0  0  0
    3.2317  -20.2913   25.2320 C   0  0  0  0  0  0  0  0  0  0  0  0
    3.9747  -20.7184   24.1983 N   0  0  0  0  0  0  0  0  0  0  0  0
    1.0175  -21.4115   24.6386 N   0  0  0  0  0  0  0  0  0  0  0  0
   -0.1133  -21.3609   25.2916 C   0  0  0  0  0  0  0  0  0  0  0  0
   -0.0604  -20.5865   26.4200 N   0  0  0  0  0  0  0  0  0  0  0  0
  1  2  2  0  0  0  0
  1  6  1  0  0  0  0
  2  3  1  0  0  0  0
  3  4  2  0  0  0  0
  4  5  1  0  0  0  0
  4 10  1  0  0  0  0
  5  6  2  0  0  0  0
  5  8  1  0  0  0  0
  6  7  1  0  0  0  0
  8  9  1  0  0  0  0
  9 10  2  0  0  0  0
M  END
>  <CHROM.1>
1.98307876,-20.29802148,25.84229123,0.18036007,0.26955983,0.98802329

>  <Name>
ligand

>  <RI>
0

>  <Rbt.Current_Directory>
/home/itssahil/PROJECTS/Mol_Feturizer/New_Systems/rnas/4LW0

>  <Rbt.Executable>
rbdock ($Id: //depot/dev/client3/rdock/2013.1/src/exe/rbdock.cxx#4 $)

>  <Rbt.Library>
libRbt.so (2013.1, Build901 2013/11/27)

>  <Rbt.Parameter_File>
/export/apps/rDock/src/rDock_2013.1_src/data/scripts/dock_solv.prm

>  <Rbt.Receptor>
prm/pocket_docking_4.prm

>  <SCORE>
-13.3403

>  <SCORE.INTER>
-13.3403

>  <SCORE.INTER.CONST>
1

>  <SCORE.INTER.POLAR>
0

>  <SCORE.INTER.ROT>
0

>  <SCORE.INTER.SOLV>
3.5302

>  <SCORE.INTER.VDW>
-13.6702

>  <SCORE.INTER.norm>
-1.33403

>  <SCORE.INTRA>
0

>  <SCORE.INTRA.DIHEDRAL>
0

>  <SCORE.INTRA.DIHEDRAL.0>
0

>  <SCORE.INTRA.POLAR>
0

>  <SCORE.INTRA.POLAR.0>
0

>  <SCORE.INTRA.REPUL>
0

>  <SCORE.INTRA.REPUL.0>
0

>  <SCORE.INTRA.SOLV>
0

>  <SCORE.INTRA.SOLV.lig_0>
-23.9151

>  <SCORE.INTRA.VDW>
0

>  <SCORE.INTRA.VDW.0>
0

>  <SCORE.INTRA.norm>
0

>  <SCORE.RESTR>
0

>  <SCORE.RESTR.CAVITY>
0

>  <SCORE.RESTR.norm>
0

>  <SCORE.SYSTEM>
0

>  <SCORE.SYSTEM.CONST>
0

>  <SCORE.SYSTEM.DIHEDRAL>
0

>  <SCORE.SYSTEM.SOLV>
0

>  <SCORE.SYSTEM.norm>
0

>  <SCORE.heavy>
10

>  <SCORE.norm>
-1.33403

>  <RMSD>
1.025

$$$$
ligand
 OpenBabel11021811503D
libRbt.so/2013.1/901 2013/11/27
 10 11  0  0  0  0  0  0  0  0999 V2000
    3.6641  -20.5950   24.3637 N   0  0  0  0  0  0  0  0  0  0  0  0
    2.8158  -21.4184   23.7446 C   0  0  0  0  0  0  0  0  0  0  0  0
    1.5610  -21.7441   24.0788 N   0  0  0  0  0  0  0  0  0  0  0  0
    1.1994  -21.1206   25.2164 C   0  0  0  0  0  0  0  0  0  0  0  0
    1.9621  -20.2463   25.9672 C   0  0  0  0  0  0  0  0  0  0  0  0
    3.2648  -19.9768   25.5029 C   0  0  0  0  0  0  0  0  0  0  0  0
    4.1135  -19.1548   26.1409 N   0  0  0  0  0  0  0  0  0  0  0  0
    1.2588  -19.7941   27.0687 N   0  0  0  0  0  0  0  0  0  0  0  0
    0.0980  -20.3858   26.9662 C   0  0  0  0  0  0  0  0  0  0  0  0
   -0.0033  -21.2082   25.8757 N   0  0  0  0  0  0  0  0  0  0  0  0
  1  2  2  0  0  0  0
  1  6  1  0  0  0  0
  2  3  1  0  0  0  0
  3  4  2  0  0  0  0
  4  5  1  0  0  0  0
  4 10  1  0  0  0  0
  5  6  2  0  0  0  0
  5  8  1  0  0  0  0
  6  7  1  0  0  0  0
  8  9  1  0  0  0  0
  9 10  2  0  0  0  0
M  END
>  <CHROM.1>
2.00305782,-20.55940781,25.49351716,0.30452843,-0.35545033,-2.18123052

>  <Name>
ligand

>  <RI>
0

>  <Rbt.Current_Directory>
/home/itssahil/PROJECTS/Mol_Feturizer/New_Systems/rnas/4LW0

>  <Rbt.Executable>
rbdock ($Id: //depot/dev/client3/rdock/2013.1/src/exe/rbdock.cxx#4 $)

>  <Rbt.Library>
libRbt.so (2013.1, Build901 2013/11/27)

>  <Rbt.Parameter_File>
/export/apps/rDock/src/rDock_2013.1_src/data/scripts/dock_solv.prm

>  <Rbt.Receptor>
prm/pocket_docking_3.prm

>  <SCORE>
-12.6111

>  <SCORE.INTER>
-12.6111

>  <SCORE.INTER.CONST>
1

>  <SCORE.INTER.POLAR>
0

>  <SCORE.INTER.ROT>
0

>  <SCORE.INTER.SOLV>
4.1329

>  <SCORE.INTER.VDW>
-13.385

>  <SCORE.INTER.norm>
-1.26111

>  <SCORE.INTRA>
0

>  <SCORE.INTRA.DIHEDRAL>
0

>  <SCORE.INTRA.DIHEDRAL.0>
0

>  <SCORE.INTRA.POLAR>
0

>  <SCORE.INTRA.POLAR.0>
0

>  <SCORE.INTRA.REPUL>
0

>  <SCORE.INTRA.REPUL.0>
0

>  <SCORE.INTRA.SOLV>
0

>  <SCORE.INTRA.SOLV.lig_0>
-23.9151

>  <SCORE.INTRA.VDW>
0

>  <SCORE.INTRA.VDW.0>
0

>  <SCORE.INTRA.norm>
0

>  <SCORE.RESTR>
0

>  <SCORE.RESTR.CAVITY>
0

>  <SCORE.RESTR.norm>
0

>  <SCORE.SYSTEM>
0

>  <SCORE.SYSTEM.CONST>
0

>  <SCORE.SYSTEM.DIHEDRAL>
0

>  <SCORE.SYSTEM.SOLV>
0

>  <SCORE.SYSTEM.norm>
0

>  <SCORE.heavy>
10

>  <SCORE.norm>
-1.26111

>  <RMSD>
2.389

$$$$
ligand
 OpenBabel11021811503D
libRbt.so/2013.1/901 2013/11/27
 10 11  0  0  0  0  0  0  0  0999 V2000
    3.6654  -20.6199   24.3815 N   0  0  0  0  0  0  0  0  0  0  0  0
    2.8115  -21.4382   23.7631 C   0  0  0  0  0  0  0  0  0  0  0  0
    1.5535  -21.7527   24.0961 N   0  0  0  0  0  0  0  0  0  0  0  0
    1.1951  -21.1232   25.2314 C   0  0  0  0  0  0  0  0  0  0  0  0
    1.9635  -20.2531   25.9811 C   0  0  0  0  0  0  0  0  0  0  0  0
    3.2692  -19.9954   25.5183 C   0  0  0  0  0  0  0  0  0  0  0  0
    4.1235  -19.1785   26.1554 N   0  0  0  0  0  0  0  0  0  0  0  0
    1.2621  -19.7921   27.0801 N   0  0  0  0  0  0  0  0  0  0  0  0
    0.0968  -20.3746   26.9773 C   0  0  0  0  0  0  0  0  0  0  0  0
   -0.0094  -21.1993   25.8889 N   0  0  0  0  0  0  0  0  0  0  0  0
  1  2  2  0  0  0  0
  1  6  1  0  0  0  0
  2  3  1  0  0  0  0
  3  4  2  0  0  0  0
  4  5  1  0  0  0  0
  4 10  1  0  0  0  0
  5  6  2  0  0  0  0
  5  8  1  0  0  0  0
  6  7  1  0  0  0  0
  8  9  1  0  0  0  0
  9 10  2  0  0  0  0
M  END
>  <CHROM.1>
2.00276087,-20.56777338,25.50831656,0.30800922,-0.34785513,-2.18278605

>  <Name>
ligand

>  <RI>
0

>  <Rbt.Current_Directory>
/home/itssahil/PROJECTS/Mol_Feturizer/New_Systems/rnas/4LW0

>  <Rbt.Executable>
rbdock ($Id: //depot/dev/client3/rdock/2013.1/src/exe/rbdock.cxx#4 $)

>  <Rbt.Library>
libRbt.so (2013.1, Build901 2013/11/27)

>  <Rbt.Parameter_File>
/export/apps/rDock/src/rDock_2013.1_src/data/scripts/dock_solv.prm

>  <Rbt.Receptor>
prm/pocket_docking_8.prm

>  <SCORE>
-12.5938

>  <SCORE.INTER>
-12.5938

>  <SCORE.INTER.CONST>
1

>  <SCORE.INTER.POLAR>
0

>  <SCORE.INTER.ROT>
0

>  <SCORE.INTER.SOLV>
4.06114

>  <SCORE.INTER.VDW>
-13.3496

>  <SCORE.INTER.norm>
-1.25938

>  <SCORE.INTRA>
0

>  <SCORE.INTRA.DIHEDRAL>
0

>  <SCORE.INTRA.DIHEDRAL.0>
0

>  <SCORE.INTRA.POLAR>
0

>  <SCORE.INTRA.POLAR.0>
0

>  <SCORE.INTRA.REPUL>
0

>  <SCORE.INTRA.REPUL.0>
0

>  <SCORE.INTRA.SOLV>
0

>  <SCORE.INTRA.SOLV.lig_0>
-23.9151

>  <SCORE.INTRA.VDW>
0

>  <SCORE.INTRA.VDW.0>
0

>  <SCORE.INTRA.norm>
0

>  <SCORE.RESTR>
0

>  <SCORE.RESTR.CAVITY>
0

>  <SCORE.RESTR.norm>
0

>  <SCORE.SYSTEM>
0

>  <SCORE.SYSTEM.CONST>
0

>  <SCORE.SYSTEM.DIHEDRAL>
0

>  <SCORE.SYSTEM.SOLV>
0

>  <SCORE.SYSTEM.norm>
0

>  <SCORE.heavy>
10

>  <SCORE.norm>
-1.25938

>  <RMSD>
2.389

$$$$
ligand
 OpenBabel11021811503D
libRbt.so/2013.1/901 2013/11/27
 10 11  0  0  0  0  0  0  0  0999 V2000
    3.6625  -20.6140   24.3054 N   0  0  0  0  0  0  0  0  0  0  0  0
    2.7943  -21.4378   23.7150 C   0  0  0  0  0  0  0  0  0  0  0  0
    1.5419  -21.7433   24.0762 N   0  0  0  0  0  0  0  0  0  0  0  0
    1.2073  -21.0967   25.2092 C   0  0  0  0  0  0  0  0  0  0  0  0
    1.9927  -20.2190   25.9319 C   0  0  0  0  0  0  0  0  0  0  0  0
    3.2901  -19.9723   25.4407 C   0  0  0  0  0  0  0  0  0  0  0  0
    4.1590  -19.1497   26.0500 N   0  0  0  0  0  0  0  0  0  0  0  0
    1.3138  -19.7403   27.0376 N   0  0  0  0  0  0  0  0  0  0  0  0
    0.1449  -20.3201   26.9651 C   0  0  0  0  0  0  0  0  0  0  0  0
    0.0153  -21.1595   25.8906 N   0  0  0  0  0  0  0  0  0  0  0  0
  1  2  2  0  0  0  0
  1  6  1  0  0  0  0
  2  3  1  0  0  0  0
  3  4  2  0  0  0  0
  4  5  1  0  0  0  0
  4 10  1  0  0  0  0
  5  6  2  0  0  0  0
  5  8  1  0  0  0  0
  6  7  1  0  0  0  0
  8  9  1  0  0  0  0
  9 10  2  0  0  0  0
M  END
>  <CHROM.1>
2.02186732,-20.54037037,25.46291238,0.32666963,-0.35612846,-2.19030911

>  <Name>
ligand

>  <RI>
0

>  <Rbt.Current_Directory>
/home/itssahil/PROJECTS/Mol_Feturizer/New_Systems/rnas/4LW0

>  <Rbt.Executable>
rbdock ($Id: //depot/dev/client3/rdock/2013.1/src/exe/rbdock.cxx#4 $)

>  <Rbt.Library>
libRbt.so (2013.1, Build901 2013/11/27)

>  <Rbt.Parameter_File>
/export/apps/rDock/src/rDock_2013.1_src/data/scripts/dock_solv.prm

>  <Rbt.Receptor>
prm/pocket_docking_3.prm

>  <SCORE>
-12.5487

>  <SCORE.INTER>
-12.5487

>  <SCORE.INTER.CONST>
1

>  <SCORE.INTER.POLAR>
0

>  <SCORE.INTER.ROT>
0

>  <SCORE.INTER.SOLV>
3.83447

>  <SCORE.INTER.VDW>
-13.2439

>  <SCORE.INTER.norm>
-1.25487

>  <SCORE.INTRA>
0

>  <SCORE.INTRA.DIHEDRAL>
0

>  <SCORE.INTRA.DIHEDRAL.0>
0

>  <SCORE.INTRA.POLAR>
0

>  <SCORE.INTRA.POLAR.0>
0

>  <SCORE.INTRA.REPUL>
0

>  <SCORE.INTRA.REPUL.0>
0

>  <SCORE.INTRA.SOLV>
0

>  <SCORE.INTRA.SOLV.lig_0>
-23.9151

>  <SCORE.INTRA.VDW>
0

>  <SCORE.INTRA.VDW.0>
0

>  <SCORE.INTRA.norm>
0

>  <SCORE.RESTR>
0

>  <SCORE.RESTR.CAVITY>
0

>  <SCORE.RESTR.norm>
0

>  <SCORE.SYSTEM>
0

>  <SCORE.SYSTEM.CONST>
0

>  <SCORE.SYSTEM.DIHEDRAL>
0

>  <SCORE.SYSTEM.SOLV>
0

>  <SCORE.SYSTEM.norm>
0

>  <SCORE.heavy>
10

>  <SCORE.norm>
-1.25487

>  <RMSD>
2.390

$$$$
ligand
 OpenBabel11021811503D
libRbt.so/2013.1/901 2013/11/27
 10 11  0  0  0  0  0  0  0  0999 V2000
    3.6525  -20.6076   24.3490 N   0  0  0  0  0  0  0  0  0  0  0  0
    2.7955  -21.4260   23.7350 C   0  0  0  0  0  0  0  0  0  0  0  0
    1.5412  -21.7448   24.0774 N   0  0  0  0  0  0  0  0  0  0  0  0
    1.1907  -21.1200   25.2177 C   0  0  0  0  0  0  0  0  0  0  0  0
    1.9632  -20.2504   25.9639 C   0  0  0  0  0  0  0  0  0  0  0  0
    3.2643  -19.9879   25.4911 C   0  0  0  0  0  0  0  0  0  0  0  0
    4.1218  -19.1710   26.1239 N   0  0  0  0  0  0  0  0  0  0  0  0
    1.2698  -19.7949   27.0704 N   0  0  0  0  0  0  0  0  0  0  0  0
    0.1051  -20.3801   26.9753 C   0  0  0  0  0  0  0  0  0  0  0  0
   -0.0081  -21.2013   25.8850 N   0  0  0  0  0  0  0  0  0  0  0  0
  1  2  2  0  0  0  0
  1  6  1  0  0  0  0
  2  3  1  0  0  0  0
  3  4  2  0  0  0  0
  4  5  1  0  0  0  0
  4 10  1  0  0  0  0
  5  6  2  0  0  0  0
  5  8  1  0  0  0  0
  6  7  1  0  0  0  0
  8  9  1  0  0  0  0
  9 10  2  0  0  0  0
M  END
>  <CHROM.1>
1.99924936,-20.56346073,25.48980916,0.31376762,-0.35469409,-2.17745348

>  <Name>
ligand

>  <RI>
0

>  <Rbt.Current_Directory>
/home/itssahil/PROJECTS/Mol_Feturizer/New_Systems/rnas/4LW0

>  <Rbt.Executable>
rbdock ($Id: //depot/dev/client3/rdock/2013.1/src/exe/rbdock.cxx#4 $)

>  <Rbt.Library>
libRbt.so (2013.1, Build901 2013/11/27)

>  <Rbt.Parameter_File>
/export/apps/rDock/src/rDock_2013.1_src/data/scripts/dock_solv.prm

>  <Rbt.Receptor>
prm/pocket_docking_3.prm

>  <SCORE>
-12.6428

>  <SCORE.INTER>
-12.6428

>  <SCORE.INTER.CONST>
1

>  <SCORE.INTER.POLAR>
0

>  <SCORE.INTER.ROT>
0

>  <SCORE.INTER.SOLV>
4.01203

>  <SCORE.INTER.VDW>
-13.3658

>  <SCORE.INTER.norm>
-1.26428

>  <SCORE.INTRA>
0

>  <SCORE.INTRA.DIHEDRAL>
0

>  <SCORE.INTRA.DIHEDRAL.0>
0

>  <SCORE.INTRA.POLAR>
0

>  <SCORE.INTRA.POLAR.0>
0

>  <SCORE.INTRA.REPUL>
0

>  <SCORE.INTRA.REPUL.0>
0

>  <SCORE.INTRA.SOLV>
0

>  <SCORE.INTRA.SOLV.lig_0>
-23.9151

>  <SCORE.INTRA.VDW>
0

>  <SCORE.INTRA.VDW.0>
0

>  <SCORE.INTRA.norm>
0

>  <SCORE.RESTR>
0

>  <SCORE.RESTR.CAVITY>
0

>  <SCORE.RESTR.norm>
0

>  <SCORE.SYSTEM>
0

>  <SCORE.SYSTEM.CONST>
0

>  <SCORE.SYSTEM.DIHEDRAL>
0

>  <SCORE.SYSTEM.SOLV>
0

>  <SCORE.SYSTEM.norm>
0

>  <SCORE.heavy>
10

>  <SCORE.norm>
-1.26428

>  <RMSD>
2.390

$$$$
ligand
 OpenBabel11021811503D
libRbt.so/2013.1/901 2013/11/27
 10 11  0  0  0  0  0  0  0  0999 V2000
    3.6752  -20.6193   24.4200 N   0  0  0  0  0  0  0  0  0  0  0  0
    2.8235  -21.4247   23.7822 C   0  0  0  0  0  0  0  0  0  0  0  0
    1.5603  -21.7364   24.0977 N   0  0  0  0  0  0  0  0  0  0  0  0
    1.1932  -21.1193   25.2370 C   0  0  0  0  0  0  0  0  0  0  0  0
    1.9584  -20.2633   26.0060 C   0  0  0  0  0  0  0  0  0  0  0  0
    3.2704  -20.0071   25.5604 C   0  0  0  0  0  0  0  0  0  0  0  0
    4.1222  -19.2033   26.2171 N   0  0  0  0  0  0  0  0  0  0  0  0
    1.2477  -19.8124   27.1033 N   0  0  0  0  0  0  0  0  0  0  0  0
    0.0804  -20.3869   26.9806 C   0  0  0  0  0  0  0  0  0  0  0  0
   -0.0187  -21.1970   25.8807 N   0  0  0  0  0  0  0  0  0  0  0  0
  1  2  2  0  0  0  0
  1  6  1  0  0  0  0
  2  3  1  0  0  0  0
  3  4  2  0  0  0  0
  4  5  1  0  0  0  0
  4 10  1  0  0  0  0
  5  6  2  0  0  0  0
  5  8  1  0  0  0  0
  6  7  1  0  0  0  0
  8  9  1  0  0  0  0
  9 10  2  0  0  0  0
M  END
>  <CHROM.1>
2.00093601,-20.57212529,25.52966067,0.30208409,-0.33715790,-2.17198608

>  <Name>
ligand

>  <RI>
0

>  <Rbt.Current_Directory>
/home/itssahil/PROJECTS/Mol_Feturizer/New_Systems/rnas/4LW0

>  <Rbt.Executable>
rbdock ($Id: //depot/dev/client3/rdock/2013.1/src/exe/rbdock.cxx#4 $)

>  <Rbt.Library>
libRbt.so (2013.1, Build901 2013/11/27)

>  <Rbt.Parameter_File>
/export/apps/rDock/src/rDock_2013.1_src/data/scripts/dock_solv.prm

>  <Rbt.Receptor>
prm/pocket_docking_3.prm

>  <SCORE>
-12.5737

>  <SCORE.INTER>
-12.5737

>  <SCORE.INTER.CONST>
1

>  <SCORE.INTER.POLAR>
0

>  <SCORE.INTER.ROT>
0

>  <SCORE.INTER.SOLV>
4.14321

>  <SCORE.INTER.VDW>
-13.3636

>  <SCORE.INTER.norm>
-1.25737

>  <SCORE.INTRA>
0

>  <SCORE.INTRA.DIHEDRAL>
0

>  <SCORE.INTRA.DIHEDRAL.0>
0

>  <SCORE.INTRA.POLAR>
0

>  <SCORE.INTRA.POLAR.0>
0

>  <SCORE.INTRA.REPUL>
0

>  <SCORE.INTRA.REPUL.0>
0

>  <SCORE.INTRA.SOLV>
0

>  <SCORE.INTRA.SOLV.lig_0>
-23.9151

>  <SCORE.INTRA.VDW>
0

>  <SCORE.INTRA.VDW.0>
0

>  <SCORE.INTRA.norm>
0

>  <SCORE.RESTR>
0

>  <SCORE.RESTR.CAVITY>
0

>  <SCORE.RESTR.norm>
0

>  <SCORE.SYSTEM>
0

>  <SCORE.SYSTEM.CONST>
0

>  <SCORE.SYSTEM.DIHEDRAL>
0

>  <SCORE.SYSTEM.SOLV>
0

>  <SCORE.SYSTEM.norm>
0

>  <SCORE.heavy>
10

>  <SCORE.norm>
-1.25737

>  <RMSD>
2.390

$$$$
ligand
 OpenBabel11021811503D
libRbt.so/2013.1/901 2013/11/27
 10 11  0  0  0  0  0  0  0  0999 V2000
    3.6442  -20.6051   24.3495 N   0  0  0  0  0  0  0  0  0  0  0  0
    2.7866  -21.4271   23.7413 C   0  0  0  0  0  0  0  0  0  0  0  0
    1.5337  -21.7464   24.0886 N   0  0  0  0  0  0  0  0  0  0  0  0
    1.1856  -21.1174   25.2274 C   0  0  0  0  0  0  0  0  0  0  0  0
    1.9590  -20.2437   25.9679 C   0  0  0  0  0  0  0  0  0  0  0  0
    3.2584  -19.9813   25.4902 C   0  0  0  0  0  0  0  0  0  0  0  0
    4.1165  -19.1606   26.1171 N   0  0  0  0  0  0  0  0  0  0  0  0
    1.2682  -19.7848   27.0744 N   0  0  0  0  0  0  0  0  0  0  0  0
    0.1041  -20.3719   26.9851 C   0  0  0  0  0  0  0  0  0  0  0  0
   -0.0111  -21.1978   25.8985 N   0  0  0  0  0  0  0  0  0  0  0  0
  1  2  2  0  0  0  0
  1  6  1  0  0  0  0
  2  3  1  0  0  0  0
  3  4  2  0  0  0  0
  4  5  1  0  0  0  0
  4 10  1  0  0  0  0
  5  6  2  0  0  0  0
  5  8  1  0  0  0  0
  6  7  1  0  0  0  0
  8  9  1  0  0  0  0
  9 10  2  0  0  0  0
M  END
>  <CHROM.1>
1.99416639,-20.55864291,25.49490998,0.31543229,-0.35752583,-2.18092325

>  <Name>
ligand

>  <RI>
0

>  <Rbt.Current_Directory>
/home/itssahil/PROJECTS/Mol_Feturizer/New_Systems/rnas/4LW0

>  <Rbt.Executable>
rbdock ($Id: //depot/dev/client3/rdock/2013.1/src/exe/rbdock.cxx#4 $)

>  <Rbt.Library>
libRbt.so (2013.1, Build901 2013/11/27)

>  <Rbt.Parameter_File>
/export/apps/rDock/src/rDock_2013.1_src/data/scripts/dock_solv.prm

>  <Rbt.Receptor>
prm/pocket_docking_4.prm

>  <SCORE>
-12.6357

>  <SCORE.INTER>
-12.6357

>  <SCORE.INTER.CONST>
1

>  <SCORE.INTER.POLAR>
0

>  <SCORE.INTER.ROT>
0

>  <SCORE.INTER.SOLV>
4.04731

>  <SCORE.INTER.VDW>
-13.3729

>  <SCORE.INTER.norm>
-1.26357

>  <SCORE.INTRA>
0

>  <SCORE.INTRA.DIHEDRAL>
0

>  <SCORE.INTRA.DIHEDRAL.0>
0

>  <SCORE.INTRA.POLAR>
0

>  <SCORE.INTRA.POLAR.0>
0

>  <SCORE.INTRA.REPUL>
0

>  <SCORE.INTRA.REPUL.0>
0

>  <SCORE.INTRA.SOLV>
0

>  <SCORE.INTRA.SOLV.lig_0>
-23.9151

>  <SCORE.INTRA.VDW>
0

>  <SCORE.INTRA.VDW.0>
0

>  <SCORE.INTRA.norm>
0

>  <SCORE.RESTR>
0

>  <SCORE.RESTR.CAVITY>
0

>  <SCORE.RESTR.norm>
0

>  <SCORE.SYSTEM>
0

>  <SCORE.SYSTEM.CONST>
0

>  <SCORE.SYSTEM.DIHEDRAL>
0

>  <SCORE.SYSTEM.SOLV>
0

>  <SCORE.SYSTEM.norm>
0

>  <SCORE.heavy>
10

>  <SCORE.norm>
-1.26357

>  <RMSD>
2.390

$$$$
ligand
 OpenBabel11021811503D
libRbt.so/2013.1/901 2013/11/27
 10 11  0  0  0  0  0  0  0  0999 V2000
    3.6499  -20.6088   24.3610 N   0  0  0  0  0  0  0  0  0  0  0  0
    2.7948  -21.4271   23.7445 C   0  0  0  0  0  0  0  0  0  0  0  0
    1.5389  -21.7448   24.0822 N   0  0  0  0  0  0  0  0  0  0  0  0
    1.1843  -21.1185   25.2206 C   0  0  0  0  0  0  0  0  0  0  0  0
    1.9545  -20.2488   25.9690 C   0  0  0  0  0  0  0  0  0  0  0  0
    3.2577  -19.9877   25.5010 C   0  0  0  0  0  0  0  0  0  0  0  0
    4.1132  -19.1708   26.1363 N   0  0  0  0  0  0  0  0  0  0  0  0
    1.2570  -19.7917   27.0722 N   0  0  0  0  0  0  0  0  0  0  0  0
    0.0924  -20.3761   26.9731 C   0  0  0  0  0  0  0  0  0  0  0  0
   -0.0172  -21.1984   25.8832 N   0  0  0  0  0  0  0  0  0  0  0  0
  1  2  2  0  0  0  0
  1  6  1  0  0  0  0
  2  3  1  0  0  0  0
  3  4  2  0  0  0  0
  4  5  1  0  0  0  0
  4 10  1  0  0  0  0
  5  6  2  0  0  0  0
  5  8  1  0  0  0  0
  6  7  1  0  0  0  0
  8  9  1  0  0  0  0
  9 10  2  0  0  0  0
M  END
>  <CHROM.1>
1.99221146,-20.56233940,25.49527425,0.31074724,-0.35186238,-2.17948560

>  <Name>
ligand

>  <RI>
0

>  <Rbt.Current_Directory>
/home/itssahil/PROJECTS/Mol_Feturizer/New_Systems/rnas/4LW0

>  <Rbt.Executable>
rbdock ($Id: //depot/dev/client3/rdock/2013.1/src/exe/rbdock.cxx#4 $)

>  <Rbt.Library>
libRbt.so (2013.1, Build901 2013/11/27)

>  <Rbt.Parameter_File>
/export/apps/rDock/src/rDock_2013.1_src/data/scripts/dock_solv.prm

>  <Rbt.Receptor>
prm/pocket_docking_4.prm

>  <SCORE>
-12.6349

>  <SCORE.INTER>
-12.6349

>  <SCORE.INTER.CONST>
1

>  <SCORE.INTER.POLAR>
0

>  <SCORE.INTER.ROT>
0

>  <SCORE.INTER.SOLV>
4.07525

>  <SCORE.INTER.VDW>
-13.3817

>  <SCORE.INTER.norm>
-1.26349

>  <SCORE.INTRA>
0

>  <SCORE.INTRA.DIHEDRAL>
0

>  <SCORE.INTRA.DIHEDRAL.0>
0

>  <SCORE.INTRA.POLAR>
0

>  <SCORE.INTRA.POLAR.0>
0

>  <SCORE.INTRA.REPUL>
0

>  <SCORE.INTRA.REPUL.0>
0

>  <SCORE.INTRA.SOLV>
0

>  <SCORE.INTRA.SOLV.lig_0>
-23.9151

>  <SCORE.INTRA.VDW>
0

>  <SCORE.INTRA.VDW.0>
0

>  <SCORE.INTRA.norm>
0

>  <SCORE.RESTR>
0

>  <SCORE.RESTR.CAVITY>
0

>  <SCORE.RESTR.norm>
0

>  <SCORE.SYSTEM>
0

>  <SCORE.SYSTEM.CONST>
0

>  <SCORE.SYSTEM.DIHEDRAL>
0

>  <SCORE.SYSTEM.SOLV>
0

>  <SCORE.SYSTEM.norm>
0

>  <SCORE.heavy>
10

>  <SCORE.norm>
-1.26349

>  <RMSD>
2.390

$$$$
ligand
 OpenBabel11021811503D
libRbt.so/2013.1/901 2013/11/27
 10 11  0  0  0  0  0  0  0  0999 V2000
    3.6516  -20.6083   24.3613 N   0  0  0  0  0  0  0  0  0  0  0  0
    2.7928  -21.4214   23.7430 C   0  0  0  0  0  0  0  0  0  0  0  0
    1.5370  -21.7377   24.0827 N   0  0  0  0  0  0  0  0  0  0  0  0
    1.1872  -21.1165   25.2253 C   0  0  0  0  0  0  0  0  0  0  0  0
    1.9616  -20.2525   25.9759 C   0  0  0  0  0  0  0  0  0  0  0  0
    3.2641  -19.9921   25.5056 C   0  0  0  0  0  0  0  0  0  0  0  0
    4.1235  -19.1806   26.1427 N   0  0  0  0  0  0  0  0  0  0  0  0
    1.2684  -19.7994   27.0835 N   0  0  0  0  0  0  0  0  0  0  0  0
    0.1020  -20.3805   26.9846 C   0  0  0  0  0  0  0  0  0  0  0  0
   -0.0126  -21.1968   25.8909 N   0  0  0  0  0  0  0  0  0  0  0  0
  1  2  2  0  0  0  0
  1  6  1  0  0  0  0
  2  3  1  0  0  0  0
  3  4  2  0  0  0  0
  4  5  1  0  0  0  0
  4 10  1  0  0  0  0
  5  6  2  0  0  0  0
  5  8  1  0  0  0  0
  6  7  1  0  0  0  0
  8  9  1  0  0  0  0
  9 10  2  0  0  0  0
M  END
>  <CHROM.1>
1.99724876,-20.56367026,25.50053775,0.31471027,-0.35146803,-2.17296770

>  <Name>
ligand

>  <RI>
0

>  <Rbt.Current_Directory>
/home/itssahil/PROJECTS/Mol_Feturizer/New_Systems/rnas/4LW0

>  <Rbt.Executable>
rbdock ($Id: //depot/dev/client3/rdock/2013.1/src/exe/rbdock.cxx#4 $)

>  <Rbt.Library>
libRbt.so (2013.1, Build901 2013/11/27)

>  <Rbt.Parameter_File>
/export/apps/rDock/src/rDock_2013.1_src/data/scripts/dock_solv.prm

>  <Rbt.Receptor>
prm/pocket_docking_4.prm

>  <SCORE>
-12.6018

>  <SCORE.INTER>
-12.6018

>  <SCORE.INTER.CONST>
1

>  <SCORE.INTER.POLAR>
0

>  <SCORE.INTER.ROT>
0

>  <SCORE.INTER.SOLV>
4.0275

>  <SCORE.INTER.VDW>
-13.3437

>  <SCORE.INTER.norm>
-1.26018

>  <SCORE.INTRA>
0

>  <SCORE.INTRA.DIHEDRAL>
0

>  <SCORE.INTRA.DIHEDRAL.0>
0

>  <SCORE.INTRA.POLAR>
0

>  <SCORE.INTRA.POLAR.0>
0

>  <SCORE.INTRA.REPUL>
0

>  <SCORE.INTRA.REPUL.0>
0

>  <SCORE.INTRA.SOLV>
0

>  <SCORE.INTRA.SOLV.lig_0>
-23.9151

>  <SCORE.INTRA.VDW>
0

>  <SCORE.INTRA.VDW.0>
0

>  <SCORE.INTRA.norm>
0

>  <SCORE.RESTR>
0

>  <SCORE.RESTR.CAVITY>
0

>  <SCORE.RESTR.norm>
0

>  <SCORE.SYSTEM>
0

>  <SCORE.SYSTEM.CONST>
0

>  <SCORE.SYSTEM.DIHEDRAL>
0

>  <SCORE.SYSTEM.SOLV>
0

>  <SCORE.SYSTEM.norm>
0

>  <SCORE.heavy>
10

>  <SCORE.norm>
-1.26018

>  <RMSD>
2.390

$$$$
ligand
 OpenBabel11021811503D
libRbt.so/2013.1/901 2013/11/27
 10 11  0  0  0  0  0  0  0  0999 V2000
    3.6517  -20.5989   24.3403 N   0  0  0  0  0  0  0  0  0  0  0  0
    2.7958  -21.4173   23.7249 C   0  0  0  0  0  0  0  0  0  0  0  0
    1.5443  -21.7437   24.0706 N   0  0  0  0  0  0  0  0  0  0  0  0
    1.1958  -21.1273   25.2161 C   0  0  0  0  0  0  0  0  0  0  0  0
    1.9676  -20.2588   25.9643 C   0  0  0  0  0  0  0  0  0  0  0  0
    3.2655  -19.9878   25.4877 C   0  0  0  0  0  0  0  0  0  0  0  0
    4.1221  -19.1709   26.1218 N   0  0  0  0  0  0  0  0  0  0  0  0
    1.2768  -19.8130   27.0763 N   0  0  0  0  0  0  0  0  0  0  0  0
    0.1143  -20.4027   26.9825 C   0  0  0  0  0  0  0  0  0  0  0  0
    0.0001  -21.2179   25.8878 N   0  0  0  0  0  0  0  0  0  0  0  0
  1  2  2  0  0  0  0
  1  6  1  0  0  0  0
  2  3  1  0  0  0  0
  3  4  2  0  0  0  0
  4  5  1  0  0  0  0
  4 10  1  0  0  0  0
  5  6  2  0  0  0  0
  5  8  1  0  0  0  0
  6  7  1  0  0  0  0
  8  9  1  0  0  0  0
  9 10  2  0  0  0  0
M  END
>  <CHROM.1>
2.00302631,-20.56884622,25.48817632,0.31474475,-0.36065492,-2.17109234

>  <Name>
ligand

>  <RI>
0

>  <Rbt.Current_Directory>
/home/itssahil/PROJECTS/Mol_Feturizer/New_Systems/rnas/4LW0

>  <Rbt.Executable>
rbdock ($Id: //depot/dev/client3/rdock/2013.1/src/exe/rbdock.cxx#4 $)

>  <Rbt.Library>
libRbt.so (2013.1, Build901 2013/11/27)

>  <Rbt.Parameter_File>
/export/apps/rDock/src/rDock_2013.1_src/data/scripts/dock_solv.prm

>  <Rbt.Receptor>
prm/pocket_docking_5.prm

>  <SCORE>
-12.629

>  <SCORE.INTER>
-12.629

>  <SCORE.INTER.CONST>
1

>  <SCORE.INTER.POLAR>
0

>  <SCORE.INTER.ROT>
0

>  <SCORE.INTER.SOLV>
3.99977

>  <SCORE.INTER.VDW>
-13.3526

>  <SCORE.INTER.norm>
-1.2629

>  <SCORE.INTRA>
0

>  <SCORE.INTRA.DIHEDRAL>
0

>  <SCORE.INTRA.DIHEDRAL.0>
0

>  <SCORE.INTRA.POLAR>
0

>  <SCORE.INTRA.POLAR.0>
0

>  <SCORE.INTRA.REPUL>
0

>  <SCORE.INTRA.REPUL.0>
0

>  <SCORE.INTRA.SOLV>
0

>  <SCORE.INTRA.SOLV.lig_0>
-23.9151

>  <SCORE.INTRA.VDW>
0

>  <SCORE.INTRA.VDW.0>
0

>  <SCORE.INTRA.norm>
0

>  <SCORE.RESTR>
0

>  <SCORE.RESTR.CAVITY>
0

>  <SCORE.RESTR.norm>
0

>  <SCORE.SYSTEM>
0

>  <SCORE.SYSTEM.CONST>
0

>  <SCORE.SYSTEM.DIHEDRAL>
0

>  <SCORE.SYSTEM.SOLV>
0

>  <SCORE.SYSTEM.norm>
0

>  <SCORE.heavy>
10

>  <SCORE.norm>
-1.2629

>  <RMSD>
2.390

$$$$
ligand
 OpenBabel11021811503D
libRbt.so/2013.1/901 2013/11/27
 10 11  0  0  0  0  0  0  0  0999 V2000
    3.6474  -20.6094   24.3602 N   0  0  0  0  0  0  0  0  0  0  0  0
    2.7919  -21.4285   23.7452 C   0  0  0  0  0  0  0  0  0  0  0  0
    1.5360  -21.7453   24.0838 N   0  0  0  0  0  0  0  0  0  0  0  0
    1.1819  -21.1172   25.2212 C   0  0  0  0  0  0  0  0  0  0  0  0
    1.9525  -20.2465   25.9680 C   0  0  0  0  0  0  0  0  0  0  0  0
    3.2556  -19.9864   25.4993 C   0  0  0  0  0  0  0  0  0  0  0  0
    4.1116  -19.1687   26.1331 N   0  0  0  0  0  0  0  0  0  0  0  0
    1.2555  -19.7875   27.0707 N   0  0  0  0  0  0  0  0  0  0  0  0
    0.0907  -20.3717   26.9729 C   0  0  0  0  0  0  0  0  0  0  0  0
   -0.0194  -21.1957   25.8843 N   0  0  0  0  0  0  0  0  0  0  0  0
  1  2  2  0  0  0  0
  1  6  1  0  0  0  0
  2  3  1  0  0  0  0
  3  4  2  0  0  0  0
  4  5  1  0  0  0  0
  4 10  1  0  0  0  0
  5  6  2  0  0  0  0
  5  8  1  0  0  0  0
  6  7  1  0  0  0  0
  8  9  1  0  0  0  0
  9 10  2  0  0  0  0
M  END
>  <CHROM.1>
1.99004733,-20.56073766,25.49484069,0.31114559,-0.35181446,-2.18091321

>  <Name>
ligand

>  <RI>
0

>  <Rbt.Current_Directory>
/home/itssahil/PROJECTS/Mol_Feturizer/New_Systems/rnas/4LW0

>  <Rbt.Executable>
rbdock ($Id: //depot/dev/client3/rdock/2013.1/src/exe/rbdock.cxx#4 $)

>  <Rbt.Library>
libRbt.so (2013.1, Build901 2013/11/27)

>  <Rbt.Parameter_File>
/export/apps/rDock/src/rDock_2013.1_src/data/scripts/dock_solv.prm

>  <Rbt.Receptor>
prm/pocket_docking_5.prm

>  <SCORE>
-12.6348

>  <SCORE.INTER>
-12.6348

>  <SCORE.INTER.CONST>
1

>  <SCORE.INTER.POLAR>
0

>  <SCORE.INTER.ROT>
0

>  <SCORE.INTER.SOLV>
4.08048

>  <SCORE.INTER.VDW>
-13.3833

>  <SCORE.INTER.norm>
-1.26348

>  <SCORE.INTRA>
0

>  <SCORE.INTRA.DIHEDRAL>
0

>  <SCORE.INTRA.DIHEDRAL.0>
0

>  <SCORE.INTRA.POLAR>
0

>  <SCORE.INTRA.POLAR.0>
0

>  <SCORE.INTRA.REPUL>
0

>  <SCORE.INTRA.REPUL.0>
0

>  <SCORE.INTRA.SOLV>
0

>  <SCORE.INTRA.SOLV.lig_0>
-23.9151

>  <SCORE.INTRA.VDW>
0

>  <SCORE.INTRA.VDW.0>
0

>  <SCORE.INTRA.norm>
0

>  <SCORE.RESTR>
0

>  <SCORE.RESTR.CAVITY>
0

>  <SCORE.RESTR.norm>
0

>  <SCORE.SYSTEM>
0

>  <SCORE.SYSTEM.CONST>
0

>  <SCORE.SYSTEM.DIHEDRAL>
0

>  <SCORE.SYSTEM.SOLV>
0

>  <SCORE.SYSTEM.norm>
0

>  <SCORE.heavy>
10

>  <SCORE.norm>
-1.26348

>  <RMSD>
2.390

$$$$
ligand
 OpenBabel11021811503D
libRbt.so/2013.1/901 2013/11/27
 10 11  0  0  0  0  0  0  0  0999 V2000
    3.6525  -20.6011   24.3492 N   0  0  0  0  0  0  0  0  0  0  0  0
    2.7977  -21.4212   23.7345 C   0  0  0  0  0  0  0  0  0  0  0  0
    1.5437  -21.7428   24.0758 N   0  0  0  0  0  0  0  0  0  0  0  0
    1.1910  -21.1187   25.2159 C   0  0  0  0  0  0  0  0  0  0  0  0
    1.9610  -20.2475   25.9628 C   0  0  0  0  0  0  0  0  0  0  0  0
    3.2620  -19.9823   25.4910 C   0  0  0  0  0  0  0  0  0  0  0  0
    4.1172  -19.1636   26.1245 N   0  0  0  0  0  0  0  0  0  0  0  0
    1.2657  -19.7935   27.0686 N   0  0  0  0  0  0  0  0  0  0  0  0
    0.1024  -20.3811   26.9725 C   0  0  0  0  0  0  0  0  0  0  0  0
   -0.0082  -21.2026   25.8822 N   0  0  0  0  0  0  0  0  0  0  0  0
  1  2  2  0  0  0  0
  1  6  1  0  0  0  0
  2  3  1  0  0  0  0
  3  4  2  0  0  0  0
  4  5  1  0  0  0  0
  4 10  1  0  0  0  0
  5  6  2  0  0  0  0
  5  8  1  0  0  0  0
  6  7  1  0  0  0  0
  8  9  1  0  0  0  0
  9 10  2  0  0  0  0
M  END
>  <CHROM.1>
1.99814546,-20.56048147,25.48866020,0.31176150,-0.35595724,-2.17812064

>  <Name>
ligand

>  <RI>
0

>  <Rbt.Current_Directory>
/home/itssahil/PROJECTS/Mol_Feturizer/New_Systems/rnas/4LW0

>  <Rbt.Executable>
rbdock ($Id: //depot/dev/client3/rdock/2013.1/src/exe/rbdock.cxx#4 $)

>  <Rbt.Library>
libRbt.so (2013.1, Build901 2013/11/27)

>  <Rbt.Parameter_File>
/export/apps/rDock/src/rDock_2013.1_src/data/scripts/dock_solv.prm

>  <Rbt.Receptor>
prm/pocket_docking_5.prm

>  <SCORE>
-12.6454

>  <SCORE.INTER>
-12.6454

>  <SCORE.INTER.CONST>
1

>  <SCORE.INTER.POLAR>
0

>  <SCORE.INTER.ROT>
0

>  <SCORE.INTER.SOLV>
4.05311

>  <SCORE.INTER.VDW>
-13.3813

>  <SCORE.INTER.norm>
-1.26454

>  <SCORE.INTRA>
0

>  <SCORE.INTRA.DIHEDRAL>
0

>  <SCORE.INTRA.DIHEDRAL.0>
0

>  <SCORE.INTRA.POLAR>
0

>  <SCORE.INTRA.POLAR.0>
0

>  <SCORE.INTRA.REPUL>
0

>  <SCORE.INTRA.REPUL.0>
0

>  <SCORE.INTRA.SOLV>
0

>  <SCORE.INTRA.SOLV.lig_0>
-23.9151

>  <SCORE.INTRA.VDW>
0

>  <SCORE.INTRA.VDW.0>
0

>  <SCORE.INTRA.norm>
0

>  <SCORE.RESTR>
0

>  <SCORE.RESTR.CAVITY>
0

>  <SCORE.RESTR.norm>
0

>  <SCORE.SYSTEM>
0

>  <SCORE.SYSTEM.CONST>
0

>  <SCORE.SYSTEM.DIHEDRAL>
0

>  <SCORE.SYSTEM.SOLV>
0

>  <SCORE.SYSTEM.norm>
0

>  <SCORE.heavy>
10

>  <SCORE.norm>
-1.26454

>  <RMSD>
2.390

$$$$
ligand
 OpenBabel11021811503D
libRbt.so/2013.1/901 2013/11/27
 10 11  0  0  0  0  0  0  0  0999 V2000
    3.6482  -20.6086   24.3566 N   0  0  0  0  0  0  0  0  0  0  0  0
    2.7914  -21.4279   23.7437 C   0  0  0  0  0  0  0  0  0  0  0  0
    1.5364  -21.7451   24.0855 N   0  0  0  0  0  0  0  0  0  0  0  0
    1.1851  -21.1172   25.2239 C   0  0  0  0  0  0  0  0  0  0  0  0
    1.9574  -20.2463   25.9688 C   0  0  0  0  0  0  0  0  0  0  0  0
    3.2592  -19.9858   25.4968 C   0  0  0  0  0  0  0  0  0  0  0  0
    4.1165  -19.1679   26.1284 N   0  0  0  0  0  0  0  0  0  0  0  0
    1.2630  -19.7876   27.0733 N   0  0  0  0  0  0  0  0  0  0  0  0
    0.0981  -20.3722   26.9784 C   0  0  0  0  0  0  0  0  0  0  0  0
   -0.0145  -21.1961   25.8901 N   0  0  0  0  0  0  0  0  0  0  0  0
  1  2  2  0  0  0  0
  1  6  1  0  0  0  0
  2  3  1  0  0  0  0
  3  4  2  0  0  0  0
  4  5  1  0  0  0  0
  4 10  1  0  0  0  0
  5  6  2  0  0  0  0
  5  8  1  0  0  0  0
  6  7  1  0  0  0  0
  8  9  1  0  0  0  0
  9 10  2  0  0  0  0
M  END
>  <CHROM.1>
1.99373245,-20.56052309,25.49550508,0.31320626,-0.35352645,-2.18013208

>  <Name>
ligand

>  <RI>
0

>  <Rbt.Current_Directory>
/home/itssahil/PROJECTS/Mol_Feturizer/New_Systems/rnas/4LW0

>  <Rbt.Executable>
rbdock ($Id: //depot/dev/client3/rdock/2013.1/src/exe/rbdock.cxx#4 $)

>  <Rbt.Library>
libRbt.so (2013.1, Build901 2013/11/27)

>  <Rbt.Parameter_File>
/export/apps/rDock/src/rDock_2013.1_src/data/scripts/dock_solv.prm

>  <Rbt.Receptor>
prm/pocket_docking_5.prm

>  <SCORE>
-12.6378

>  <SCORE.INTER>
-12.6378

>  <SCORE.INTER.CONST>
1

>  <SCORE.INTER.POLAR>
0

>  <SCORE.INTER.ROT>
0

>  <SCORE.INTER.SOLV>
4.05371

>  <SCORE.INTER.VDW>
-13.3764

>  <SCORE.INTER.norm>
-1.26378

>  <SCORE.INTRA>
0

>  <SCORE.INTRA.DIHEDRAL>
0

>  <SCORE.INTRA.DIHEDRAL.0>
0

>  <SCORE.INTRA.POLAR>
0

>  <SCORE.INTRA.POLAR.0>
0

>  <SCORE.INTRA.REPUL>
0

>  <SCORE.INTRA.REPUL.0>
0

>  <SCORE.INTRA.SOLV>
0

>  <SCORE.INTRA.SOLV.lig_0>
-23.9151

>  <SCORE.INTRA.VDW>
0

>  <SCORE.INTRA.VDW.0>
0

>  <SCORE.INTRA.norm>
0

>  <SCORE.RESTR>
0

>  <SCORE.RESTR.CAVITY>
0

>  <SCORE.RESTR.norm>
0

>  <SCORE.SYSTEM>
0

>  <SCORE.SYSTEM.CONST>
0

>  <SCORE.SYSTEM.DIHEDRAL>
0

>  <SCORE.SYSTEM.SOLV>
0

>  <SCORE.SYSTEM.norm>
0

>  <SCORE.heavy>
10

>  <SCORE.norm>
-1.26378

>  <RMSD>
2.390

$$$$
ligand
 OpenBabel11021811503D
libRbt.so/2013.1/901 2013/11/27
 10 11  0  0  0  0  0  0  0  0999 V2000
    3.6510  -20.6166   24.3539 N   0  0  0  0  0  0  0  0  0  0  0  0
    2.7921  -21.4340   23.7414 C   0  0  0  0  0  0  0  0  0  0  0  0
    1.5368  -21.7488   24.0841 N   0  0  0  0  0  0  0  0  0  0  0  0
    1.1876  -21.1206   25.2230 C   0  0  0  0  0  0  0  0  0  0  0  0
    1.9622  -20.2515   25.9676 C   0  0  0  0  0  0  0  0  0  0  0  0
    3.2641  -19.9935   25.4946 C   0  0  0  0  0  0  0  0  0  0  0  0
    4.1236  -19.1775   26.1258 N   0  0  0  0  0  0  0  0  0  0  0  0
    1.2696  -19.7918   27.0728 N   0  0  0  0  0  0  0  0  0  0  0  0
    0.1035  -20.3741   26.9786 C   0  0  0  0  0  0  0  0  0  0  0  0
   -0.0116  -21.1974   25.8902 N   0  0  0  0  0  0  0  0  0  0  0  0
  1  2  2  0  0  0  0
  1  6  1  0  0  0  0
  2  3  1  0  0  0  0
  3  4  2  0  0  0  0
  4  5  1  0  0  0  0
  4 10  1  0  0  0  0
  5  6  2  0  0  0  0
  5  8  1  0  0  0  0
  6  7  1  0  0  0  0
  8  9  1  0  0  0  0
  9 10  2  0  0  0  0
M  END
>  <CHROM.1>
1.99754006,-20.56566996,25.49415259,0.31511907,-0.35236387,-2.17912077

>  <Name>
ligand

>  <RI>
0

>  <Rbt.Current_Directory>
/home/itssahil/PROJECTS/Mol_Feturizer/New_Systems/rnas/4LW0

>  <Rbt.Executable>
rbdock ($Id: //depot/dev/client3/rdock/2013.1/src/exe/rbdock.cxx#4 $)

>  <Rbt.Library>
libRbt.so (2013.1, Build901 2013/11/27)

>  <Rbt.Parameter_File>
/export/apps/rDock/src/rDock_2013.1_src/data/scripts/dock_solv.prm

>  <Rbt.Receptor>
prm/pocket_docking_5.prm

>  <SCORE>
-12.6362

>  <SCORE.INTER>
-12.6362

>  <SCORE.INTER.CONST>
1

>  <SCORE.INTER.POLAR>
0

>  <SCORE.INTER.ROT>
0

>  <SCORE.INTER.SOLV>
3.99094

>  <SCORE.INTER.VDW>
-13.3545

>  <SCORE.INTER.norm>
-1.26362

>  <SCORE.INTRA>
0

>  <SCORE.INTRA.DIHEDRAL>
0

>  <SCORE.INTRA.DIHEDRAL.0>
0

>  <SCORE.INTRA.POLAR>
0

>  <SCORE.INTRA.POLAR.0>
0

>  <SCORE.INTRA.REPUL>
0

>  <SCORE.INTRA.REPUL.0>
0

>  <SCORE.INTRA.SOLV>
0

>  <SCORE.INTRA.SOLV.lig_0>
-23.9151

>  <SCORE.INTRA.VDW>
0

>  <SCORE.INTRA.VDW.0>
0

>  <SCORE.INTRA.norm>
0

>  <SCORE.RESTR>
0

>  <SCORE.RESTR.CAVITY>
0

>  <SCORE.RESTR.norm>
0

>  <SCORE.SYSTEM>
0

>  <SCORE.SYSTEM.CONST>
0

>  <SCORE.SYSTEM.DIHEDRAL>
0

>  <SCORE.SYSTEM.SOLV>
0

>  <SCORE.SYSTEM.norm>
0

>  <SCORE.heavy>
10

>  <SCORE.norm>
-1.26362

>  <RMSD>
2.390

$$$$
ligand
 OpenBabel11021811503D
libRbt.so/2013.1/901 2013/11/27
 10 11  0  0  0  0  0  0  0  0999 V2000
    3.6569  -20.6106   24.3514 N   0  0  0  0  0  0  0  0  0  0  0  0
    2.7990  -21.4254   23.7339 C   0  0  0  0  0  0  0  0  0  0  0  0
    1.5439  -21.7434   24.0743 N   0  0  0  0  0  0  0  0  0  0  0  0
    1.1935  -21.1220   25.2165 C   0  0  0  0  0  0  0  0  0  0  0  0
    1.9669  -20.2563   25.9664 C   0  0  0  0  0  0  0  0  0  0  0  0
    3.2688  -19.9943   25.4955 C   0  0  0  0  0  0  0  0  0  0  0  0
    4.1272  -19.1810   26.1317 N   0  0  0  0  0  0  0  0  0  0  0  0
    1.2734  -19.8036   27.0738 N   0  0  0  0  0  0  0  0  0  0  0  0
    0.1078  -20.3864   26.9758 C   0  0  0  0  0  0  0  0  0  0  0  0
   -0.0059  -21.2037   25.8826 N   0  0  0  0  0  0  0  0  0  0  0  0
  1  2  2  0  0  0  0
  1  6  1  0  0  0  0
  2  3  1  0  0  0  0
  3  4  2  0  0  0  0
  4  5  1  0  0  0  0
  4 10  1  0  0  0  0
  5  6  2  0  0  0  0
  5  8  1  0  0  0  0
  6  7  1  0  0  0  0
  8  9  1  0  0  0  0
  9 10  2  0  0  0  0
M  END
>  <CHROM.1>
2.00281300,-20.56774763,25.49115885,0.31409122,-0.35290574,-2.17382765

>  <Name>
ligand

>  <RI>
0

>  <Rbt.Current_Directory>
/home/itssahil/PROJECTS/Mol_Feturizer/New_Systems/rnas/4LW0

>  <Rbt.Executable>
rbdock ($Id: //depot/dev/client3/rdock/2013.1/src/exe/rbdock.cxx#4 $)

>  <Rbt.Library>
libRbt.so (2013.1, Build901 2013/11/27)

>  <Rbt.Parameter_File>
/export/apps/rDock/src/rDock_2013.1_src/data/scripts/dock_solv.prm

>  <Rbt.Receptor>
prm/pocket_docking_5.prm

>  <SCORE>
-12.6412

>  <SCORE.INTER>
-12.6412

>  <SCORE.INTER.CONST>
1

>  <SCORE.INTER.POLAR>
0

>  <SCORE.INTER.ROT>
0

>  <SCORE.INTER.SOLV>
3.98146

>  <SCORE.INTER.VDW>
-13.3546

>  <SCORE.INTER.norm>
-1.26412

>  <SCORE.INTRA>
0

>  <SCORE.INTRA.DIHEDRAL>
0

>  <SCORE.INTRA.DIHEDRAL.0>
0

>  <SCORE.INTRA.POLAR>
0

>  <SCORE.INTRA.POLAR.0>
0

>  <SCORE.INTRA.REPUL>
0

>  <SCORE.INTRA.REPUL.0>
0

>  <SCORE.INTRA.SOLV>
0

>  <SCORE.INTRA.SOLV.lig_0>
-23.9151

>  <SCORE.INTRA.VDW>
0

>  <SCORE.INTRA.VDW.0>
0

>  <SCORE.INTRA.norm>
0

>  <SCORE.RESTR>
0

>  <SCORE.RESTR.CAVITY>
0

>  <SCORE.RESTR.norm>
0

>  <SCORE.SYSTEM>
0

>  <SCORE.SYSTEM.CONST>
0

>  <SCORE.SYSTEM.DIHEDRAL>
0

>  <SCORE.SYSTEM.SOLV>
0

>  <SCORE.SYSTEM.norm>
0

>  <SCORE.heavy>
10

>  <SCORE.norm>
-1.26412

>  <RMSD>
2.390

$$$$
ligand
 OpenBabel11021811503D
libRbt.so/2013.1/901 2013/11/27
 10 11  0  0  0  0  0  0  0  0999 V2000
    3.6840  -20.6356   24.3959 N   0  0  0  0  0  0  0  0  0  0  0  0
    2.8229  -21.4380   23.7670 C   0  0  0  0  0  0  0  0  0  0  0  0
    1.5587  -21.7374   24.0901 N   0  0  0  0  0  0  0  0  0  0  0  0
    1.2018  -21.1103   25.2272 C   0  0  0  0  0  0  0  0  0  0  0  0
    1.9774  -20.2557   25.9873 C   0  0  0  0  0  0  0  0  0  0  0  0
    3.2893  -20.0130   25.5343 C   0  0  0  0  0  0  0  0  0  0  0  0
    4.1507  -19.2120   26.1820 N   0  0  0  0  0  0  0  0  0  0  0  0
    1.2754  -19.7922   27.0850 N   0  0  0  0  0  0  0  0  0  0  0  0
    0.1029  -20.3580   26.9711 C   0  0  0  0  0  0  0  0  0  0  0  0
   -0.0078  -21.1741   25.8768 N   0  0  0  0  0  0  0  0  0  0  0  0
  1  2  2  0  0  0  0
  1  6  1  0  0  0  0
  2  3  1  0  0  0  0
  3  4  2  0  0  0  0
  4  5  1  0  0  0  0
  4 10  1  0  0  0  0
  5  6  2  0  0  0  0
  5  8  1  0  0  0  0
  6  7  1  0  0  0  0
  8  9  1  0  0  0  0
  9 10  2  0  0  0  0
M  END
>  <CHROM.1>
2.01524625,-20.56784448,25.51275542,0.31089628,-0.33304046,-2.17536156

>  <Name>
ligand

>  <RI>
0

>  <Rbt.Current_Directory>
/home/itssahil/PROJECTS/Mol_Feturizer/New_Systems/rnas/4LW0

>  <Rbt.Executable>
rbdock ($Id: //depot/dev/client3/rdock/2013.1/src/exe/rbdock.cxx#4 $)

>  <Rbt.Library>
libRbt.so (2013.1, Build901 2013/11/27)

>  <Rbt.Parameter_File>
/export/apps/rDock/src/rDock_2013.1_src/data/scripts/dock_solv.prm

>  <Rbt.Receptor>
prm/pocket_docking_5.prm

>  <SCORE>
-12.5554

>  <SCORE.INTER>
-12.5554

>  <SCORE.INTER.CONST>
1

>  <SCORE.INTER.POLAR>
0

>  <SCORE.INTER.ROT>
0

>  <SCORE.INTER.SOLV>
3.94241

>  <SCORE.INTER.VDW>
-13.2844

>  <SCORE.INTER.norm>
-1.25554

>  <SCORE.INTRA>
0

>  <SCORE.INTRA.DIHEDRAL>
0

>  <SCORE.INTRA.DIHEDRAL.0>
0

>  <SCORE.INTRA.POLAR>
0

>  <SCORE.INTRA.POLAR.0>
0

>  <SCORE.INTRA.REPUL>
0

>  <SCORE.INTRA.REPUL.0>
0

>  <SCORE.INTRA.SOLV>
0

>  <SCORE.INTRA.SOLV.lig_0>
-23.9151

>  <SCORE.INTRA.VDW>
0

>  <SCORE.INTRA.VDW.0>
0

>  <SCORE.INTRA.norm>
0

>  <SCORE.RESTR>
0

>  <SCORE.RESTR.CAVITY>
0

>  <SCORE.RESTR.norm>
0

>  <SCORE.SYSTEM>
0

>  <SCORE.SYSTEM.CONST>
0

>  <SCORE.SYSTEM.DIHEDRAL>
0

>  <SCORE.SYSTEM.SOLV>
0

>  <SCORE.SYSTEM.norm>
0

>  <SCORE.heavy>
10

>  <SCORE.norm>
-1.25554

>  <RMSD>
2.390

$$$$
ligand
 OpenBabel11021811503D
libRbt.so/2013.1/901 2013/11/27
 10 11  0  0  0  0  0  0  0  0999 V2000
    3.6662  -20.6040   24.3627 N   0  0  0  0  0  0  0  0  0  0  0  0
    2.8171  -21.4226   23.7383 C   0  0  0  0  0  0  0  0  0  0  0  0
    1.5602  -21.7452   24.0675 N   0  0  0  0  0  0  0  0  0  0  0  0
    1.1972  -21.1242   25.2060 C   0  0  0  0  0  0  0  0  0  0  0  0
    1.9604  -20.2549   25.9621 C   0  0  0  0  0  0  0  0  0  0  0  0
    3.2655  -19.9883   25.5027 C   0  0  0  0  0  0  0  0  0  0  0  0
    4.1149  -19.1711   26.1459 N   0  0  0  0  0  0  0  0  0  0  0  0
    1.2552  -19.8039   27.0629 N   0  0  0  0  0  0  0  0  0  0  0  0
    0.0928  -20.3914   26.9548 C   0  0  0  0  0  0  0  0  0  0  0  0
   -0.0079  -21.2100   25.8614 N   0  0  0  0  0  0  0  0  0  0  0  0
  1  2  2  0  0  0  0
  1  6  1  0  0  0  0
  2  3  1  0  0  0  0
  3  4  2  0  0  0  0
  4  5  1  0  0  0  0
  4 10  1  0  0  0  0
  5  6  2  0  0  0  0
  5  8  1  0  0  0  0
  6  7  1  0  0  0  0
  8  9  1  0  0  0  0
  9 10  2  0  0  0  0
M  END
>  <CHROM.1>
2.00178559,-20.56661452,25.48748383,0.30384505,-0.35096457,-2.17821833

>  <Name>
ligand

>  <RI>
0

>  <Rbt.Current_Directory>
/home/itssahil/PROJECTS/Mol_Feturizer/New_Systems/rnas/4LW0

>  <Rbt.Executable>
rbdock ($Id: //depot/dev/client3/rdock/2013.1/src/exe/rbdock.cxx#4 $)

>  <Rbt.Library>
libRbt.so (2013.1, Build901 2013/11/27)

>  <Rbt.Parameter_File>
/export/apps/rDock/src/rDock_2013.1_src/data/scripts/dock_solv.prm

>  <Rbt.Receptor>
prm/pocket_docking_5.prm

>  <SCORE>
-12.6328

>  <SCORE.INTER>
-12.6328

>  <SCORE.INTER.CONST>
1

>  <SCORE.INTER.POLAR>
0

>  <SCORE.INTER.ROT>
0

>  <SCORE.INTER.SOLV>
4.08944

>  <SCORE.INTER.VDW>
-13.385

>  <SCORE.INTER.norm>
-1.26328

>  <SCORE.INTRA>
0

>  <SCORE.INTRA.DIHEDRAL>
0

>  <SCORE.INTRA.DIHEDRAL.0>
0

>  <SCORE.INTRA.POLAR>
0

>  <SCORE.INTRA.POLAR.0>
0

>  <SCORE.INTRA.REPUL>
0

>  <SCORE.INTRA.REPUL.0>
0

>  <SCORE.INTRA.SOLV>
0

>  <SCORE.INTRA.SOLV.lig_0>
-23.9151

>  <SCORE.INTRA.VDW>
0

>  <SCORE.INTRA.VDW.0>
0

>  <SCORE.INTRA.norm>
0

>  <SCORE.RESTR>
0

>  <SCORE.RESTR.CAVITY>
0

>  <SCORE.RESTR.norm>
0

>  <SCORE.SYSTEM>
0

>  <SCORE.SYSTEM.CONST>
0

>  <SCORE.SYSTEM.DIHEDRAL>
0

>  <SCORE.SYSTEM.SOLV>
0

>  <SCORE.SYSTEM.norm>
0

>  <SCORE.heavy>
10

>  <SCORE.norm>
-1.26328

>  <RMSD>
2.390

$$$$
ligand
 OpenBabel11021811503D
libRbt.so/2013.1/901 2013/11/27
 10 11  0  0  0  0  0  0  0  0999 V2000
    3.6431  -20.6084   24.3737 N   0  0  0  0  0  0  0  0  0  0  0  0
    2.7888  -21.4288   23.7587 C   0  0  0  0  0  0  0  0  0  0  0  0
    1.5324  -21.7454   24.0958 N   0  0  0  0  0  0  0  0  0  0  0  0
    1.1763  -21.1155   25.2316 C   0  0  0  0  0  0  0  0  0  0  0  0
    1.9455  -20.2433   25.9782 C   0  0  0  0  0  0  0  0  0  0  0  0
    3.2493  -19.9837   25.5112 C   0  0  0  0  0  0  0  0  0  0  0  0
    4.1040  -19.1647   26.1450 N   0  0  0  0  0  0  0  0  0  0  0  0
    1.2465  -19.7827   27.0790 N   0  0  0  0  0  0  0  0  0  0  0  0
    0.0820  -20.3675   26.9802 C   0  0  0  0  0  0  0  0  0  0  0  0
   -0.0260  -21.1932   25.8929 N   0  0  0  0  0  0  0  0  0  0  0  0
  1  2  2  0  0  0  0
  1  6  1  0  0  0  0
  2  3  1  0  0  0  0
  3  4  2  0  0  0  0
  4  5  1  0  0  0  0
  4 10  1  0  0  0  0
  5  6  2  0  0  0  0
  5  8  1  0  0  0  0
  6  7  1  0  0  0  0
  8  9  1  0  0  0  0
  9 10  2  0  0  0  0
M  END
>  <CHROM.1>
1.98383965,-20.55837360,25.50559129,0.30955535,-0.35111373,-2.18310784

>  <Name>
ligand

>  <RI>
0

>  <Rbt.Current_Directory>
/home/itssahil/PROJECTS/Mol_Feturizer/New_Systems/rnas/4LW0

>  <Rbt.Executable>
rbdock ($Id: //depot/dev/client3/rdock/2013.1/src/exe/rbdock.cxx#4 $)

>  <Rbt.Library>
libRbt.so (2013.1, Build901 2013/11/27)

>  <Rbt.Parameter_File>
/export/apps/rDock/src/rDock_2013.1_src/data/scripts/dock_solv.prm

>  <Rbt.Receptor>
prm/pocket_docking_6.prm

>  <SCORE>
-12.6199

>  <SCORE.INTER>
-12.6199

>  <SCORE.INTER.CONST>
1

>  <SCORE.INTER.POLAR>
0

>  <SCORE.INTER.ROT>
0

>  <SCORE.INTER.SOLV>
4.15066

>  <SCORE.INTER.VDW>
-13.3968

>  <SCORE.INTER.norm>
-1.26199

>  <SCORE.INTRA>
0

>  <SCORE.INTRA.DIHEDRAL>
0

>  <SCORE.INTRA.DIHEDRAL.0>
0

>  <SCORE.INTRA.POLAR>
0

>  <SCORE.INTRA.POLAR.0>
0

>  <SCORE.INTRA.REPUL>
0

>  <SCORE.INTRA.REPUL.0>
0

>  <SCORE.INTRA.SOLV>
0

>  <SCORE.INTRA.SOLV.lig_0>
-23.9151

>  <SCORE.INTRA.VDW>
0

>  <SCORE.INTRA.VDW.0>
0

>  <SCORE.INTRA.norm>
0

>  <SCORE.RESTR>
0

>  <SCORE.RESTR.CAVITY>
0

>  <SCORE.RESTR.norm>
0

>  <SCORE.SYSTEM>
0

>  <SCORE.SYSTEM.CONST>
0

>  <SCORE.SYSTEM.DIHEDRAL>
0

>  <SCORE.SYSTEM.SOLV>
0

>  <SCORE.SYSTEM.norm>
0

>  <SCORE.heavy>
10

>  <SCORE.norm>
-1.26199

>  <RMSD>
2.390

$$$$
ligand
 OpenBabel11021811503D
libRbt.so/2013.1/901 2013/11/27
 10 11  0  0  0  0  0  0  0  0999 V2000
    3.6553  -20.5965   24.3815 N   0  0  0  0  0  0  0  0  0  0  0  0
    2.8026  -21.4094   23.7546 C   0  0  0  0  0  0  0  0  0  0  0  0
    1.5449  -21.7289   24.0841 N   0  0  0  0  0  0  0  0  0  0  0  0
    1.1855  -21.1115   25.2257 C   0  0  0  0  0  0  0  0  0  0  0  0
    1.9528  -20.2482   25.9844 C   0  0  0  0  0  0  0  0  0  0  0  0
    3.2582  -19.9842   25.5245 C   0  0  0  0  0  0  0  0  0  0  0  0
    4.1113  -19.1728   26.1702 N   0  0  0  0  0  0  0  0  0  0  0  0
    1.2505  -19.7994   27.0880 N   0  0  0  0  0  0  0  0  0  0  0  0
    0.0860  -20.3823   26.9790 C   0  0  0  0  0  0  0  0  0  0  0  0
   -0.0190  -21.1958   25.8822 N   0  0  0  0  0  0  0  0  0  0  0  0
  1  2  2  0  0  0  0
  1  6  1  0  0  0  0
  2  3  1  0  0  0  0
  3  4  2  0  0  0  0
  4  5  1  0  0  0  0
  4 10  1  0  0  0  0
  5  6  2  0  0  0  0
  5  8  1  0  0  0  0
  6  7  1  0  0  0  0
  8  9  1  0  0  0  0
  9 10  2  0  0  0  0
M  END
>  <CHROM.1>
1.99246328,-20.55797885,25.50847335,0.30709706,-0.34876880,-2.17282886

>  <Name>
ligand

>  <RI>
0

>  <Rbt.Current_Directory>
/home/itssahil/PROJECTS/Mol_Feturizer/New_Systems/rnas/4LW0

>  <Rbt.Executable>
rbdock ($Id: //depot/dev/client3/rdock/2013.1/src/exe/rbdock.cxx#4 $)

>  <Rbt.Library>
libRbt.so (2013.1, Build901 2013/11/27)

>  <Rbt.Parameter_File>
/export/apps/rDock/src/rDock_2013.1_src/data/scripts/dock_solv.prm

>  <Rbt.Receptor>
prm/pocket_docking_6.prm

>  <SCORE>
-12.5997

>  <SCORE.INTER>
-12.5997

>  <SCORE.INTER.CONST>
1

>  <SCORE.INTER.POLAR>
0

>  <SCORE.INTER.ROT>
0

>  <SCORE.INTER.SOLV>
4.16536

>  <SCORE.INTER.VDW>
-13.3882

>  <SCORE.INTER.norm>
-1.25997

>  <SCORE.INTRA>
0

>  <SCORE.INTRA.DIHEDRAL>
0

>  <SCORE.INTRA.DIHEDRAL.0>
0

>  <SCORE.INTRA.POLAR>
0

>  <SCORE.INTRA.POLAR.0>
0

>  <SCORE.INTRA.REPUL>
0

>  <SCORE.INTRA.REPUL.0>
0

>  <SCORE.INTRA.SOLV>
0

>  <SCORE.INTRA.SOLV.lig_0>
-23.9151

>  <SCORE.INTRA.VDW>
0

>  <SCORE.INTRA.VDW.0>
0

>  <SCORE.INTRA.norm>
0

>  <SCORE.RESTR>
0

>  <SCORE.RESTR.CAVITY>
0

>  <SCORE.RESTR.norm>
0

>  <SCORE.SYSTEM>
0

>  <SCORE.SYSTEM.CONST>
0

>  <SCORE.SYSTEM.DIHEDRAL>
0

>  <SCORE.SYSTEM.SOLV>
0

>  <SCORE.SYSTEM.norm>
0

>  <SCORE.heavy>
10

>  <SCORE.norm>
-1.25997

>  <RMSD>
2.390

$$$$
ligand
 OpenBabel11021811503D
libRbt.so/2013.1/901 2013/11/27
 10 11  0  0  0  0  0  0  0  0999 V2000
    3.6524  -20.5996   24.3443 N   0  0  0  0  0  0  0  0  0  0  0  0
    2.7978  -21.4205   23.7303 C   0  0  0  0  0  0  0  0  0  0  0  0
    1.5445  -21.7432   24.0728 N   0  0  0  0  0  0  0  0  0  0  0  0
    1.1922  -21.1195   25.2132 C   0  0  0  0  0  0  0  0  0  0  0  0
    1.9621  -20.2477   25.9594 C   0  0  0  0  0  0  0  0  0  0  0  0
    3.2624  -19.9812   25.4865 C   0  0  0  0  0  0  0  0  0  0  0  0
    4.1174  -19.1617   26.1193 N   0  0  0  0  0  0  0  0  0  0  0  0
    1.2674  -19.7944   27.0659 N   0  0  0  0  0  0  0  0  0  0  0  0
    0.1045  -20.3831   26.9709 C   0  0  0  0  0  0  0  0  0  0  0  0
   -0.0063  -21.2045   25.8806 N   0  0  0  0  0  0  0  0  0  0  0  0
  1  2  2  0  0  0  0
  1  6  1  0  0  0  0
  2  3  1  0  0  0  0
  3  4  2  0  0  0  0
  4  5  1  0  0  0  0
  4 10  1  0  0  0  0
  5  6  2  0  0  0  0
  5  8  1  0  0  0  0
  6  7  1  0  0  0  0
  8  9  1  0  0  0  0
  9 10  2  0  0  0  0
M  END
>  <CHROM.1>
1.99907620,-20.56055814,25.48525518,0.31199317,-0.35723508,-2.17796976

>  <Name>
ligand

>  <RI>
0

>  <Rbt.Current_Directory>
/home/itssahil/PROJECTS/Mol_Feturizer/New_Systems/rnas/4LW0

>  <Rbt.Executable>
rbdock ($Id: //depot/dev/client3/rdock/2013.1/src/exe/rbdock.cxx#4 $)

>  <Rbt.Library>
libRbt.so (2013.1, Build901 2013/11/27)

>  <Rbt.Parameter_File>
/export/apps/rDock/src/rDock_2013.1_src/data/scripts/dock_solv.prm

>  <Rbt.Receptor>
prm/pocket_docking_6.prm

>  <SCORE>
-12.6467

>  <SCORE.INTER>
-12.6467

>  <SCORE.INTER.CONST>
1

>  <SCORE.INTER.POLAR>
0

>  <SCORE.INTER.ROT>
0

>  <SCORE.INTER.SOLV>
4.04404

>  <SCORE.INTER.VDW>
-13.3792

>  <SCORE.INTER.norm>
-1.26467

>  <SCORE.INTRA>
0

>  <SCORE.INTRA.DIHEDRAL>
0

>  <SCORE.INTRA.DIHEDRAL.0>
0

>  <SCORE.INTRA.POLAR>
0

>  <SCORE.INTRA.POLAR.0>
0

>  <SCORE.INTRA.REPUL>
0

>  <SCORE.INTRA.REPUL.0>
0

>  <SCORE.INTRA.SOLV>
0

>  <SCORE.INTRA.SOLV.lig_0>
-23.9151

>  <SCORE.INTRA.VDW>
0

>  <SCORE.INTRA.VDW.0>
0

>  <SCORE.INTRA.norm>
0

>  <SCORE.RESTR>
0

>  <SCORE.RESTR.CAVITY>
0

>  <SCORE.RESTR.norm>
0

>  <SCORE.SYSTEM>
0

>  <SCORE.SYSTEM.CONST>
0

>  <SCORE.SYSTEM.DIHEDRAL>
0

>  <SCORE.SYSTEM.SOLV>
0

>  <SCORE.SYSTEM.norm>
0

>  <SCORE.heavy>
10

>  <SCORE.norm>
-1.26467

>  <RMSD>
2.390

$$$$
ligand
 OpenBabel11021811503D
libRbt.so/2013.1/901 2013/11/27
 10 11  0  0  0  0  0  0  0  0999 V2000
    3.6541  -20.6111   24.3547 N   0  0  0  0  0  0  0  0  0  0  0  0
    2.7959  -21.4267   23.7387 C   0  0  0  0  0  0  0  0  0  0  0  0
    1.5408  -21.7438   24.0798 N   0  0  0  0  0  0  0  0  0  0  0  0
    1.1907  -21.1204   25.2210 C   0  0  0  0  0  0  0  0  0  0  0  0
    1.9644  -20.2536   25.9693 C   0  0  0  0  0  0  0  0  0  0  0  0
    3.2663  -19.9927   25.4977 C   0  0  0  0  0  0  0  0  0  0  0  0
    4.1249  -19.1785   26.1324 N   0  0  0  0  0  0  0  0  0  0  0  0
    1.2711  -19.7988   27.0761 N   0  0  0  0  0  0  0  0  0  0  0  0
    0.1054  -20.3816   26.9792 C   0  0  0  0  0  0  0  0  0  0  0  0
   -0.0086  -21.2007   25.8874 N   0  0  0  0  0  0  0  0  0  0  0  0
  1  2  2  0  0  0  0
  1  6  1  0  0  0  0
  2  3  1  0  0  0  0
  3  4  2  0  0  0  0
  4  5  1  0  0  0  0
  4 10  1  0  0  0  0
  5  6  2  0  0  0  0
  5  8  1  0  0  0  0
  6  7  1  0  0  0  0
  8  9  1  0  0  0  0
  9 10  2  0  0  0  0
M  END
>  <CHROM.1>
2.00015892,-20.56586644,25.49459352,0.31436042,-0.35280889,-2.17545233

>  <Name>
ligand

>  <RI>
0

>  <Rbt.Current_Directory>
/home/itssahil/PROJECTS/Mol_Feturizer/New_Systems/rnas/4LW0

>  <Rbt.Executable>
rbdock ($Id: //depot/dev/client3/rdock/2013.1/src/exe/rbdock.cxx#4 $)

>  <Rbt.Library>
libRbt.so (2013.1, Build901 2013/11/27)

>  <Rbt.Parameter_File>
/export/apps/rDock/src/rDock_2013.1_src/data/scripts/dock_solv.prm

>  <Rbt.Receptor>
prm/pocket_docking_6.prm

>  <SCORE>
-12.639

>  <SCORE.INTER>
-12.639

>  <SCORE.INTER.CONST>
1

>  <SCORE.INTER.POLAR>
0

>  <SCORE.INTER.ROT>
0

>  <SCORE.INTER.SOLV>
3.99993

>  <SCORE.INTER.VDW>
-13.3593

>  <SCORE.INTER.norm>
-1.2639

>  <SCORE.INTRA>
0

>  <SCORE.INTRA.DIHEDRAL>
0

>  <SCORE.INTRA.DIHEDRAL.0>
0

>  <SCORE.INTRA.POLAR>
0

>  <SCORE.INTRA.POLAR.0>
0

>  <SCORE.INTRA.REPUL>
0

>  <SCORE.INTRA.REPUL.0>
0

>  <SCORE.INTRA.SOLV>
0

>  <SCORE.INTRA.SOLV.lig_0>
-23.9151

>  <SCORE.INTRA.VDW>
0

>  <SCORE.INTRA.VDW.0>
0

>  <SCORE.INTRA.norm>
0

>  <SCORE.RESTR>
0

>  <SCORE.RESTR.CAVITY>
0

>  <SCORE.RESTR.norm>
0

>  <SCORE.SYSTEM>
0

>  <SCORE.SYSTEM.CONST>
0

>  <SCORE.SYSTEM.DIHEDRAL>
0

>  <SCORE.SYSTEM.SOLV>
0

>  <SCORE.SYSTEM.norm>
0

>  <SCORE.heavy>
10

>  <SCORE.norm>
-1.2639

>  <RMSD>
2.390

$$$$
ligand
 OpenBabel11021811503D
libRbt.so/2013.1/901 2013/11/27
 10 11  0  0  0  0  0  0  0  0999 V2000
    3.6468  -20.6075   24.3469 N   0  0  0  0  0  0  0  0  0  0  0  0
    2.7895  -21.4281   23.7365 C   0  0  0  0  0  0  0  0  0  0  0  0
    1.5360  -21.7473   24.0820 N   0  0  0  0  0  0  0  0  0  0  0  0
    1.1871  -21.1202   25.2215 C   0  0  0  0  0  0  0  0  0  0  0  0
    1.9602  -20.2482   25.9642 C   0  0  0  0  0  0  0  0  0  0  0  0
    3.2602  -19.9856   25.4884 C   0  0  0  0  0  0  0  0  0  0  0  0
    4.1181  -19.1664   26.1176 N   0  0  0  0  0  0  0  0  0  0  0  0
    1.2684  -19.7908   27.0709 N   0  0  0  0  0  0  0  0  0  0  0  0
    0.1041  -20.3772   26.9793 C   0  0  0  0  0  0  0  0  0  0  0  0
   -0.0104  -21.2011   25.8912 N   0  0  0  0  0  0  0  0  0  0  0  0
  1  2  2  0  0  0  0
  1  6  1  0  0  0  0
  2  3  1  0  0  0  0
  3  4  2  0  0  0  0
  4  5  1  0  0  0  0
  4 10  1  0  0  0  0
  5  6  2  0  0  0  0
  5  8  1  0  0  0  0
  6  7  1  0  0  0  0
  8  9  1  0  0  0  0
  9 10  2  0  0  0  0
M  END
>  <CHROM.1>
1.99565528,-20.56226821,25.49076512,0.31484816,-0.35652793,-2.17938977

>  <Name>
ligand

>  <RI>
0

>  <Rbt.Current_Directory>
/home/itssahil/PROJECTS/Mol_Feturizer/New_Systems/rnas/4LW0

>  <Rbt.Executable>
rbdock ($Id: //depot/dev/client3/rdock/2013.1/src/exe/rbdock.cxx#4 $)

>  <Rbt.Library>
libRbt.so (2013.1, Build901 2013/11/27)

>  <Rbt.Parameter_File>
/export/apps/rDock/src/rDock_2013.1_src/data/scripts/dock_solv.prm

>  <Rbt.Receptor>
prm/pocket_docking_7.prm

>  <SCORE>
-12.6367

>  <SCORE.INTER>
-12.6367

>  <SCORE.INTER.CONST>
1

>  <SCORE.INTER.POLAR>
0

>  <SCORE.INTER.ROT>
0

>  <SCORE.INTER.SOLV>
4.0226

>  <SCORE.INTER.VDW>
-13.3653

>  <SCORE.INTER.norm>
-1.26367

>  <SCORE.INTRA>
0

>  <SCORE.INTRA.DIHEDRAL>
0

>  <SCORE.INTRA.DIHEDRAL.0>
0

>  <SCORE.INTRA.POLAR>
0

>  <SCORE.INTRA.POLAR.0>
0

>  <SCORE.INTRA.REPUL>
0

>  <SCORE.INTRA.REPUL.0>
0

>  <SCORE.INTRA.SOLV>
0

>  <SCORE.INTRA.SOLV.lig_0>
-23.9151

>  <SCORE.INTRA.VDW>
0

>  <SCORE.INTRA.VDW.0>
0

>  <SCORE.INTRA.norm>
0

>  <SCORE.RESTR>
0

>  <SCORE.RESTR.CAVITY>
0

>  <SCORE.RESTR.norm>
0

>  <SCORE.SYSTEM>
0

>  <SCORE.SYSTEM.CONST>
0

>  <SCORE.SYSTEM.DIHEDRAL>
0

>  <SCORE.SYSTEM.SOLV>
0

>  <SCORE.SYSTEM.norm>
0

>  <SCORE.heavy>
10

>  <SCORE.norm>
-1.26367

>  <RMSD>
2.390

$$$$
ligand
 OpenBabel11021811503D
libRbt.so/2013.1/901 2013/11/27
 10 11  0  0  0  0  0  0  0  0999 V2000
    3.6630  -20.6056   24.3113 N   0  0  0  0  0  0  0  0  0  0  0  0
    2.8025  -21.4292   23.7095 C   0  0  0  0  0  0  0  0  0  0  0  0
    1.5498  -21.7443   24.0614 N   0  0  0  0  0  0  0  0  0  0  0  0
    1.2056  -21.1087   25.1977 C   0  0  0  0  0  0  0  0  0  0  0  0
    1.9823  -20.2326   25.9317 C   0  0  0  0  0  0  0  0  0  0  0  0
    3.2811  -19.9751   25.4496 C   0  0  0  0  0  0  0  0  0  0  0  0
    4.1422  -19.1527   26.0702 N   0  0  0  0  0  0  0  0  0  0  0  0
    1.2949  -19.7664   27.0374 N   0  0  0  0  0  0  0  0  0  0  0  0
    0.1295  -20.3519   26.9539 C   0  0  0  0  0  0  0  0  0  0  0  0
    0.0102  -21.1832   25.8720 N   0  0  0  0  0  0  0  0  0  0  0  0
  1  2  2  0  0  0  0
  1  6  1  0  0  0  0
  2  3  1  0  0  0  0
  3  4  2  0  0  0  0
  4  5  1  0  0  0  0
  4 10  1  0  0  0  0
  5  6  2  0  0  0  0
  5  8  1  0  0  0  0
  6  7  1  0  0  0  0
  8  9  1  0  0  0  0
  9 10  2  0  0  0  0
M  END
>  <CHROM.1>
2.01577856,-20.55002689,25.46031366,0.31863573,-0.35733020,-2.18507883

>  <Name>
ligand

>  <RI>
0

>  <Rbt.Current_Directory>
/home/itssahil/PROJECTS/Mol_Feturizer/New_Systems/rnas/4LW0

>  <Rbt.Executable>
rbdock ($Id: //depot/dev/client3/rdock/2013.1/src/exe/rbdock.cxx#4 $)

>  <Rbt.Library>
libRbt.so (2013.1, Build901 2013/11/27)

>  <Rbt.Parameter_File>
/export/apps/rDock/src/rDock_2013.1_src/data/scripts/dock_solv.prm

>  <Rbt.Receptor>
prm/pocket_docking_7.prm

>  <SCORE>
-12.587

>  <SCORE.INTER>
-12.587

>  <SCORE.INTER.CONST>
1

>  <SCORE.INTER.POLAR>
0

>  <SCORE.INTER.ROT>
0

>  <SCORE.INTER.SOLV>
3.87805

>  <SCORE.INTER.VDW>
-13.284

>  <SCORE.INTER.norm>
-1.2587

>  <SCORE.INTRA>
0

>  <SCORE.INTRA.DIHEDRAL>
0

>  <SCORE.INTRA.DIHEDRAL.0>
0

>  <SCORE.INTRA.POLAR>
0

>  <SCORE.INTRA.POLAR.0>
0

>  <SCORE.INTRA.REPUL>
0

>  <SCORE.INTRA.REPUL.0>
0

>  <SCORE.INTRA.SOLV>
0

>  <SCORE.INTRA.SOLV.lig_0>
-23.9151

>  <SCORE.INTRA.VDW>
0

>  <SCORE.INTRA.VDW.0>
0

>  <SCORE.INTRA.norm>
0

>  <SCORE.RESTR>
0

>  <SCORE.RESTR.CAVITY>
0

>  <SCORE.RESTR.norm>
0

>  <SCORE.SYSTEM>
0

>  <SCORE.SYSTEM.CONST>
0

>  <SCORE.SYSTEM.DIHEDRAL>
0

>  <SCORE.SYSTEM.SOLV>
0

>  <SCORE.SYSTEM.norm>
0

>  <SCORE.heavy>
10

>  <SCORE.norm>
-1.2587

>  <RMSD>
2.390

$$$$
ligand
 OpenBabel11021811503D
libRbt.so/2013.1/901 2013/11/27
 10 11  0  0  0  0  0  0  0  0999 V2000
    3.6481  -20.5917   24.3560 N   0  0  0  0  0  0  0  0  0  0  0  0
    2.7916  -21.4084   23.7391 C   0  0  0  0  0  0  0  0  0  0  0  0
    1.5380  -21.7304   24.0813 N   0  0  0  0  0  0  0  0  0  0  0  0
    1.1877  -21.1112   25.2248 C   0  0  0  0  0  0  0  0  0  0  0  0
    1.9598  -20.2441   25.9742 C   0  0  0  0  0  0  0  0  0  0  0  0
    3.2601  -19.9778   25.5014 C   0  0  0  0  0  0  0  0  0  0  0  0
    4.1172  -19.1626   26.1370 N   0  0  0  0  0  0  0  0  0  0  0  0
    1.2668  -19.7946   27.0834 N   0  0  0  0  0  0  0  0  0  0  0  0
    0.1029  -20.3808   26.9867 C   0  0  0  0  0  0  0  0  0  0  0  0
   -0.0103  -21.1972   25.8928 N   0  0  0  0  0  0  0  0  0  0  0  0
  1  2  2  0  0  0  0
  1  6  1  0  0  0  0
  2  3  1  0  0  0  0
  3  4  2  0  0  0  0
  4  5  1  0  0  0  0
  4 10  1  0  0  0  0
  5  6  2  0  0  0  0
  5  8  1  0  0  0  0
  6  7  1  0  0  0  0
  8  9  1  0  0  0  0
  9 10  2  0  0  0  0
M  END
>  <CHROM.1>
1.99582689,-20.55493945,25.49862456,0.31380981,-0.35629922,-2.17285617

>  <Name>
ligand

>  <RI>
0

>  <Rbt.Current_Directory>
/home/itssahil/PROJECTS/Mol_Feturizer/New_Systems/rnas/4LW0

>  <Rbt.Executable>
rbdock ($Id: //depot/dev/client3/rdock/2013.1/src/exe/rbdock.cxx#4 $)

>  <Rbt.Library>
libRbt.so (2013.1, Build901 2013/11/27)

>  <Rbt.Parameter_File>
/export/apps/rDock/src/rDock_2013.1_src/data/scripts/dock_solv.prm

>  <Rbt.Receptor>
prm/pocket_docking_7.prm

>  <SCORE>
-12.6088

>  <SCORE.INTER>
-12.6088

>  <SCORE.INTER.CONST>
1

>  <SCORE.INTER.POLAR>
0

>  <SCORE.INTER.ROT>
0

>  <SCORE.INTER.SOLV>
4.09366

>  <SCORE.INTER.VDW>
-13.3704

>  <SCORE.INTER.norm>
-1.26088

>  <SCORE.INTRA>
0

>  <SCORE.INTRA.DIHEDRAL>
0

>  <SCORE.INTRA.DIHEDRAL.0>
0

>  <SCORE.INTRA.POLAR>
0

>  <SCORE.INTRA.POLAR.0>
0

>  <SCORE.INTRA.REPUL>
0

>  <SCORE.INTRA.REPUL.0>
0

>  <SCORE.INTRA.SOLV>
0

>  <SCORE.INTRA.SOLV.lig_0>
-23.9151

>  <SCORE.INTRA.VDW>
0

>  <SCORE.INTRA.VDW.0>
0

>  <SCORE.INTRA.norm>
0

>  <SCORE.RESTR>
0

>  <SCORE.RESTR.CAVITY>
0

>  <SCORE.RESTR.norm>
0

>  <SCORE.SYSTEM>
0

>  <SCORE.SYSTEM.CONST>
0

>  <SCORE.SYSTEM.DIHEDRAL>
0

>  <SCORE.SYSTEM.SOLV>
0

>  <SCORE.SYSTEM.norm>
0

>  <SCORE.heavy>
10

>  <SCORE.norm>
-1.26088

>  <RMSD>
2.390

$$$$
ligand
 OpenBabel11021811503D
libRbt.so/2013.1/901 2013/11/27
 10 11  0  0  0  0  0  0  0  0999 V2000
    3.6479  -20.6006   24.3495 N   0  0  0  0  0  0  0  0  0  0  0  0
    2.7923  -21.4229   23.7389 C   0  0  0  0  0  0  0  0  0  0  0  0
    1.5393  -21.7441   24.0837 N   0  0  0  0  0  0  0  0  0  0  0  0
    1.1886  -21.1170   25.2228 C   0  0  0  0  0  0  0  0  0  0  0  0
    1.9597  -20.2434   25.9656 C   0  0  0  0  0  0  0  0  0  0  0  0
    3.2595  -19.9788   25.4905 C   0  0  0  0  0  0  0  0  0  0  0  0
    4.1157  -19.1579   26.1199 N   0  0  0  0  0  0  0  0  0  0  0  0
    1.2665  -19.7867   27.0717 N   0  0  0  0  0  0  0  0  0  0  0  0
    0.1033  -20.3752   26.9797 C   0  0  0  0  0  0  0  0  0  0  0  0
   -0.0092  -21.1997   25.8918 N   0  0  0  0  0  0  0  0  0  0  0  0
  1  2  2  0  0  0  0
  1  6  1  0  0  0  0
  2  3  1  0  0  0  0
  3  4  2  0  0  0  0
  4  5  1  0  0  0  0
  4 10  1  0  0  0  0
  5  6  2  0  0  0  0
  5  8  1  0  0  0  0
  6  7  1  0  0  0  0
  8  9  1  0  0  0  0
  9 10  2  0  0  0  0
M  END
>  <CHROM.1>
1.99599984,-20.55765265,25.49231575,0.31327700,-0.35757564,-2.18035516

>  <Name>
ligand

>  <RI>
0

>  <Rbt.Current_Directory>
/home/itssahil/PROJECTS/Mol_Feturizer/New_Systems/rnas/4LW0

>  <Rbt.Executable>
rbdock ($Id: //depot/dev/client3/rdock/2013.1/src/exe/rbdock.cxx#4 $)

>  <Rbt.Library>
libRbt.so (2013.1, Build901 2013/11/27)

>  <Rbt.Parameter_File>
/export/apps/rDock/src/rDock_2013.1_src/data/scripts/dock_solv.prm

>  <Rbt.Receptor>
prm/pocket_docking_7.prm

>  <SCORE>
-12.6425

>  <SCORE.INTER>
-12.6425

>  <SCORE.INTER.CONST>
1

>  <SCORE.INTER.POLAR>
0

>  <SCORE.INTER.ROT>
0

>  <SCORE.INTER.SOLV>
4.06528

>  <SCORE.INTER.VDW>
-13.3834

>  <SCORE.INTER.norm>
-1.26425

>  <SCORE.INTRA>
0

>  <SCORE.INTRA.DIHEDRAL>
0

>  <SCORE.INTRA.DIHEDRAL.0>
0

>  <SCORE.INTRA.POLAR>
0

>  <SCORE.INTRA.POLAR.0>
0

>  <SCORE.INTRA.REPUL>
0

>  <SCORE.INTRA.REPUL.0>
0

>  <SCORE.INTRA.SOLV>
0

>  <SCORE.INTRA.SOLV.lig_0>
-23.9151

>  <SCORE.INTRA.VDW>
0

>  <SCORE.INTRA.VDW.0>
0

>  <SCORE.INTRA.norm>
0

>  <SCORE.RESTR>
0

>  <SCORE.RESTR.CAVITY>
0

>  <SCORE.RESTR.norm>
0

>  <SCORE.SYSTEM>
0

>  <SCORE.SYSTEM.CONST>
0

>  <SCORE.SYSTEM.DIHEDRAL>
0

>  <SCORE.SYSTEM.SOLV>
0

>  <SCORE.SYSTEM.norm>
0

>  <SCORE.heavy>
10

>  <SCORE.norm>
-1.26425

>  <RMSD>
2.390

$$$$
ligand
 OpenBabel11021811503D
libRbt.so/2013.1/901 2013/11/27
 10 11  0  0  0  0  0  0  0  0999 V2000
    3.6468  -20.5919   24.3439 N   0  0  0  0  0  0  0  0  0  0  0  0
    2.7914  -21.4118   23.7298 C   0  0  0  0  0  0  0  0  0  0  0  0
    1.5387  -21.7355   24.0740 N   0  0  0  0  0  0  0  0  0  0  0  0
    1.1884  -21.1143   25.2163 C   0  0  0  0  0  0  0  0  0  0  0  0
    1.9594  -20.2437   25.9629 C   0  0  0  0  0  0  0  0  0  0  0  0
    3.2587  -19.9759   25.4881 C   0  0  0  0  0  0  0  0  0  0  0  0
    4.1147  -19.1575   26.1209 N   0  0  0  0  0  0  0  0  0  0  0  0
    1.2666  -19.7929   27.0716 N   0  0  0  0  0  0  0  0  0  0  0  0
    0.1037  -20.3817   26.9774 C   0  0  0  0  0  0  0  0  0  0  0  0
   -0.0089  -21.2010   25.8857 N   0  0  0  0  0  0  0  0  0  0  0  0
  1  2  2  0  0  0  0
  1  6  1  0  0  0  0
  2  3  1  0  0  0  0
  3  4  2  0  0  0  0
  4  5  1  0  0  0  0
  4 10  1  0  0  0  0
  5  6  2  0  0  0  0
  5  8  1  0  0  0  0
  6  7  1  0  0  0  0
  8  9  1  0  0  0  0
  9 10  2  0  0  0  0
M  END
>  <CHROM.1>
1.99560100,-20.55565293,25.48799469,0.31343480,-0.35849985,-2.17544698

>  <Name>
ligand

>  <RI>
0

>  <Rbt.Current_Directory>
/home/itssahil/PROJECTS/Mol_Feturizer/New_Systems/rnas/4LW0

>  <Rbt.Executable>
rbdock ($Id: //depot/dev/client3/rdock/2013.1/src/exe/rbdock.cxx#4 $)

>  <Rbt.Library>
libRbt.so (2013.1, Build901 2013/11/27)

>  <Rbt.Parameter_File>
/export/apps/rDock/src/rDock_2013.1_src/data/scripts/dock_solv.prm

>  <Rbt.Receptor>
prm/pocket_docking_7.prm

>  <SCORE>
-12.6132

>  <SCORE.INTER>
-12.6132

>  <SCORE.INTER.CONST>
1

>  <SCORE.INTER.POLAR>
0

>  <SCORE.INTER.ROT>
0

>  <SCORE.INTER.SOLV>
4.07392

>  <SCORE.INTER.VDW>
-13.3668

>  <SCORE.INTER.norm>
-1.26132

>  <SCORE.INTRA>
0

>  <SCORE.INTRA.DIHEDRAL>
0

>  <SCORE.INTRA.DIHEDRAL.0>
0

>  <SCORE.INTRA.POLAR>
0

>  <SCORE.INTRA.POLAR.0>
0

>  <SCORE.INTRA.REPUL>
0

>  <SCORE.INTRA.REPUL.0>
0

>  <SCORE.INTRA.SOLV>
0

>  <SCORE.INTRA.SOLV.lig_0>
-23.9151

>  <SCORE.INTRA.VDW>
0

>  <SCORE.INTRA.VDW.0>
0

>  <SCORE.INTRA.norm>
0

>  <SCORE.RESTR>
0

>  <SCORE.RESTR.CAVITY>
0

>  <SCORE.RESTR.norm>
0

>  <SCORE.SYSTEM>
0

>  <SCORE.SYSTEM.CONST>
0

>  <SCORE.SYSTEM.DIHEDRAL>
0

>  <SCORE.SYSTEM.SOLV>
0

>  <SCORE.SYSTEM.norm>
0

>  <SCORE.heavy>
10

>  <SCORE.norm>
-1.26132

>  <RMSD>
2.390

$$$$
ligand
 OpenBabel11021811503D
libRbt.so/2013.1/901 2013/11/27
 10 11  0  0  0  0  0  0  0  0999 V2000
    3.6547  -20.6012   24.3459 N   0  0  0  0  0  0  0  0  0  0  0  0
    2.8001  -21.4203   23.7297 C   0  0  0  0  0  0  0  0  0  0  0  0
    1.5461  -21.7425   24.0702 N   0  0  0  0  0  0  0  0  0  0  0  0
    1.1931  -21.1203   25.2113 C   0  0  0  0  0  0  0  0  0  0  0  0
    1.9629  -20.2504   25.9598 C   0  0  0  0  0  0  0  0  0  0  0  0
    3.2640  -19.9843   25.4888 C   0  0  0  0  0  0  0  0  0  0  0  0
    4.1190  -19.1666   26.1238 N   0  0  0  0  0  0  0  0  0  0  0  0
    1.2674  -19.7984   27.0663 N   0  0  0  0  0  0  0  0  0  0  0  0
    0.1041  -20.3858   26.9689 C   0  0  0  0  0  0  0  0  0  0  0  0
   -0.0062  -21.2055   25.8772 N   0  0  0  0  0  0  0  0  0  0  0  0
  1  2  2  0  0  0  0
  1  6  1  0  0  0  0
  2  3  1  0  0  0  0
  3  4  2  0  0  0  0
  4  5  1  0  0  0  0
  4 10  1  0  0  0  0
  5  6  2  0  0  0  0
  5  8  1  0  0  0  0
  6  7  1  0  0  0  0
  8  9  1  0  0  0  0
  9 10  2  0  0  0  0
M  END
>  <CHROM.1>
2.00017325,-20.56256220,25.48513477,0.31154886,-0.35589232,-2.17648718

>  <Name>
ligand

>  <RI>
0

>  <Rbt.Current_Directory>
/home/itssahil/PROJECTS/Mol_Feturizer/New_Systems/rnas/4LW0

>  <Rbt.Executable>
rbdock ($Id: //depot/dev/client3/rdock/2013.1/src/exe/rbdock.cxx#4 $)

>  <Rbt.Library>
libRbt.so (2013.1, Build901 2013/11/27)

>  <Rbt.Parameter_File>
/export/apps/rDock/src/rDock_2013.1_src/data/scripts/dock_solv.prm

>  <Rbt.Receptor>
prm/pocket_docking_7.prm

>  <SCORE>
-12.6462

>  <SCORE.INTER>
-12.6462

>  <SCORE.INTER.CONST>
1

>  <SCORE.INTER.POLAR>
0

>  <SCORE.INTER.ROT>
0

>  <SCORE.INTER.SOLV>
4.03472

>  <SCORE.INTER.VDW>
-13.3757

>  <SCORE.INTER.norm>
-1.26462

>  <SCORE.INTRA>
0

>  <SCORE.INTRA.DIHEDRAL>
0

>  <SCORE.INTRA.DIHEDRAL.0>
0

>  <SCORE.INTRA.POLAR>
0

>  <SCORE.INTRA.POLAR.0>
0

>  <SCORE.INTRA.REPUL>
0

>  <SCORE.INTRA.REPUL.0>
0

>  <SCORE.INTRA.SOLV>
0

>  <SCORE.INTRA.SOLV.lig_0>
-23.9151

>  <SCORE.INTRA.VDW>
0

>  <SCORE.INTRA.VDW.0>
0

>  <SCORE.INTRA.norm>
0

>  <SCORE.RESTR>
0

>  <SCORE.RESTR.CAVITY>
0

>  <SCORE.RESTR.norm>
0

>  <SCORE.SYSTEM>
0

>  <SCORE.SYSTEM.CONST>
0

>  <SCORE.SYSTEM.DIHEDRAL>
0

>  <SCORE.SYSTEM.SOLV>
0

>  <SCORE.SYSTEM.norm>
0

>  <SCORE.heavy>
10

>  <SCORE.norm>
-1.26462

>  <RMSD>
2.390

$$$$
ligand
 OpenBabel11021811503D
libRbt.so/2013.1/901 2013/11/27
 10 11  0  0  0  0  0  0  0  0999 V2000
    3.6757  -20.6124   24.3722 N   0  0  0  0  0  0  0  0  0  0  0  0
    2.8254  -21.4311   23.7495 C   0  0  0  0  0  0  0  0  0  0  0  0
    1.5627  -21.7389   24.0706 N   0  0  0  0  0  0  0  0  0  0  0  0
    1.1944  -21.1013   25.1982 C   0  0  0  0  0  0  0  0  0  0  0  0
    1.9580  -20.2297   25.9511 C   0  0  0  0  0  0  0  0  0  0  0  0
    3.2696  -19.9797   25.5010 C   0  0  0  0  0  0  0  0  0  0  0  0
    4.1200  -19.1623   26.1426 N   0  0  0  0  0  0  0  0  0  0  0  0
    1.2464  -19.7597   27.0397 N   0  0  0  0  0  0  0  0  0  0  0  0
    0.0800  -20.3384   26.9276 C   0  0  0  0  0  0  0  0  0  0  0  0
   -0.0175  -21.1690   25.8430 N   0  0  0  0  0  0  0  0  0  0  0  0
  1  2  2  0  0  0  0
  1  6  1  0  0  0  0
  2  3  1  0  0  0  0
  3  4  2  0  0  0  0
  4  5  1  0  0  0  0
  4 10  1  0  0  0  0
  5  6  2  0  0  0  0
  5  8  1  0  0  0  0
  6  7  1  0  0  0  0
  8  9  1  0  0  0  0
  9 10  2  0  0  0  0
M  END
>  <CHROM.1>
2.00111028,-20.54735874,25.48061816,0.30092302,-0.33847294,-2.19104988

>  <Name>
ligand

>  <RI>
0

>  <Rbt.Current_Directory>
/home/itssahil/PROJECTS/Mol_Feturizer/New_Systems/rnas/4LW0

>  <Rbt.Executable>
rbdock ($Id: //depot/dev/client3/rdock/2013.1/src/exe/rbdock.cxx#4 $)

>  <Rbt.Library>
libRbt.so (2013.1, Build901 2013/11/27)

>  <Rbt.Parameter_File>
/export/apps/rDock/src/rDock_2013.1_src/data/scripts/dock_solv.prm

>  <Rbt.Receptor>
prm/pocket_docking_8.prm

>  <SCORE>
-12.5364

>  <SCORE.INTER>
-12.5364

>  <SCORE.INTER.CONST>
1

>  <SCORE.INTER.POLAR>
0

>  <SCORE.INTER.ROT>
0

>  <SCORE.INTER.SOLV>
4.11999

>  <SCORE.INTER.VDW>
-13.3309

>  <SCORE.INTER.norm>
-1.25364

>  <SCORE.INTRA>
0

>  <SCORE.INTRA.DIHEDRAL>
0

>  <SCORE.INTRA.DIHEDRAL.0>
0

>  <SCORE.INTRA.POLAR>
0

>  <SCORE.INTRA.POLAR.0>
0

>  <SCORE.INTRA.REPUL>
0

>  <SCORE.INTRA.REPUL.0>
0

>  <SCORE.INTRA.SOLV>
0

>  <SCORE.INTRA.SOLV.lig_0>
-23.9151

>  <SCORE.INTRA.VDW>
0

>  <SCORE.INTRA.VDW.0>
0

>  <SCORE.INTRA.norm>
0

>  <SCORE.RESTR>
0

>  <SCORE.RESTR.CAVITY>
0

>  <SCORE.RESTR.norm>
0

>  <SCORE.SYSTEM>
0

>  <SCORE.SYSTEM.CONST>
0

>  <SCORE.SYSTEM.DIHEDRAL>
0

>  <SCORE.SYSTEM.SOLV>
0

>  <SCORE.SYSTEM.norm>
0

>  <SCORE.heavy>
10

>  <SCORE.norm>
-1.25364

>  <RMSD>
2.390

$$$$
ligand
 OpenBabel11021811503D
libRbt.so/2013.1/901 2013/11/27
 10 11  0  0  0  0  0  0  0  0999 V2000
    3.6471  -20.6034   24.3499 N   0  0  0  0  0  0  0  0  0  0  0  0
    2.7902  -21.4248   23.7400 C   0  0  0  0  0  0  0  0  0  0  0  0
    1.5371  -21.7447   24.0858 N   0  0  0  0  0  0  0  0  0  0  0  0
    1.1878  -21.1172   25.2251 C   0  0  0  0  0  0  0  0  0  0  0  0
    1.9604  -20.2443   25.9673 C   0  0  0  0  0  0  0  0  0  0  0  0
    3.2602  -19.9811   25.4911 C   0  0  0  0  0  0  0  0  0  0  0  0
    4.1176  -19.1610   26.1198 N   0  0  0  0  0  0  0  0  0  0  0  0
    1.2685  -19.7869   27.0738 N   0  0  0  0  0  0  0  0  0  0  0  0
    0.1046  -20.3741   26.9827 C   0  0  0  0  0  0  0  0  0  0  0  0
   -0.0095  -21.1986   25.8950 N   0  0  0  0  0  0  0  0  0  0  0  0
  1  2  2  0  0  0  0
  1  6  1  0  0  0  0
  2  3  1  0  0  0  0
  3  4  2  0  0  0  0
  4  5  1  0  0  0  0
  4 10  1  0  0  0  0
  5  6  2  0  0  0  0
  5  8  1  0  0  0  0
  6  7  1  0  0  0  0
  8  9  1  0  0  0  0
  9 10  2  0  0  0  0
M  END
>  <CHROM.1>
1.99604151,-20.55865499,25.49394463,0.31453714,-0.35717109,-2.18000118

>  <Name>
ligand

>  <RI>
0

>  <Rbt.Current_Directory>
/home/itssahil/PROJECTS/Mol_Feturizer/New_Systems/rnas/4LW0

>  <Rbt.Executable>
rbdock ($Id: //depot/dev/client3/rdock/2013.1/src/exe/rbdock.cxx#4 $)

>  <Rbt.Library>
libRbt.so (2013.1, Build901 2013/11/27)

>  <Rbt.Parameter_File>
/export/apps/rDock/src/rDock_2013.1_src/data/scripts/dock_solv.prm

>  <Rbt.Receptor>
prm/pocket_docking_8.prm

>  <SCORE>
-12.6399

>  <SCORE.INTER>
-12.6399

>  <SCORE.INTER.CONST>
1

>  <SCORE.INTER.POLAR>
0

>  <SCORE.INTER.ROT>
0

>  <SCORE.INTER.SOLV>
4.04923

>  <SCORE.INTER.VDW>
-13.3764

>  <SCORE.INTER.norm>
-1.26399

>  <SCORE.INTRA>
0

>  <SCORE.INTRA.DIHEDRAL>
0

>  <SCORE.INTRA.DIHEDRAL.0>
0

>  <SCORE.INTRA.POLAR>
0

>  <SCORE.INTRA.POLAR.0>
0

>  <SCORE.INTRA.REPUL>
0

>  <SCORE.INTRA.REPUL.0>
0

>  <SCORE.INTRA.SOLV>
0

>  <SCORE.INTRA.SOLV.lig_0>
-23.9151

>  <SCORE.INTRA.VDW>
0

>  <SCORE.INTRA.VDW.0>
0

>  <SCORE.INTRA.norm>
0

>  <SCORE.RESTR>
0

>  <SCORE.RESTR.CAVITY>
0

>  <SCORE.RESTR.norm>
0

>  <SCORE.SYSTEM>
0

>  <SCORE.SYSTEM.CONST>
0

>  <SCORE.SYSTEM.DIHEDRAL>
0

>  <SCORE.SYSTEM.SOLV>
0

>  <SCORE.SYSTEM.norm>
0

>  <SCORE.heavy>
10

>  <SCORE.norm>
-1.26399

>  <RMSD>
2.390

$$$$
ligand
 OpenBabel11021811503D
libRbt.so/2013.1/901 2013/11/27
 10 11  0  0  0  0  0  0  0  0999 V2000
    3.6680  -20.6036   24.3584 N   0  0  0  0  0  0  0  0  0  0  0  0
    2.8200  -21.4246   23.7355 C   0  0  0  0  0  0  0  0  0  0  0  0
    1.5637  -21.7487   24.0658 N   0  0  0  0  0  0  0  0  0  0  0  0
    1.2001  -21.1265   25.2035 C   0  0  0  0  0  0  0  0  0  0  0  0
    1.9622  -20.2548   25.9579 C   0  0  0  0  0  0  0  0  0  0  0  0
    3.2666  -19.9867   25.4976 C   0  0  0  0  0  0  0  0  0  0  0  0
    4.1150  -19.1672   26.1392 N   0  0  0  0  0  0  0  0  0  0  0  0
    1.2566  -19.8033   27.0582 N   0  0  0  0  0  0  0  0  0  0  0  0
    0.0952  -20.3928   26.9515 C   0  0  0  0  0  0  0  0  0  0  0  0
   -0.0046  -21.2133   25.8594 N   0  0  0  0  0  0  0  0  0  0  0  0
  1  2  2  0  0  0  0
  1  6  1  0  0  0  0
  2  3  1  0  0  0  0
  3  4  2  0  0  0  0
  4  5  1  0  0  0  0
  4 10  1  0  0  0  0
  5  6  2  0  0  0  0
  5  8  1  0  0  0  0
  6  7  1  0  0  0  0
  8  9  1  0  0  0  0
  9 10  2  0  0  0  0
M  END
>  <CHROM.1>
2.00389145,-20.56717406,25.48372636,0.30318943,-0.35253043,-2.17998907

>  <Name>
ligand

>  <RI>
0

>  <Rbt.Current_Directory>
/home/itssahil/PROJECTS/Mol_Feturizer/New_Systems/rnas/4LW0

>  <Rbt.Executable>
rbdock ($Id: //depot/dev/client3/rdock/2013.1/src/exe/rbdock.cxx#4 $)

>  <Rbt.Library>
libRbt.so (2013.1, Build901 2013/11/27)

>  <Rbt.Parameter_File>
/export/apps/rDock/src/rDock_2013.1_src/data/scripts/dock_solv.prm

>  <Rbt.Receptor>
prm/pocket_docking_8.prm

>  <SCORE>
-12.6334

>  <SCORE.INTER>
-12.6334

>  <SCORE.INTER.CONST>
1

>  <SCORE.INTER.POLAR>
0

>  <SCORE.INTER.ROT>
0

>  <SCORE.INTER.SOLV>
4.08254

>  <SCORE.INTER.VDW>
-13.3831

>  <SCORE.INTER.norm>
-1.26334

>  <SCORE.INTRA>
0

>  <SCORE.INTRA.DIHEDRAL>
0

>  <SCORE.INTRA.DIHEDRAL.0>
0

>  <SCORE.INTRA.POLAR>
0

>  <SCORE.INTRA.POLAR.0>
0

>  <SCORE.INTRA.REPUL>
0

>  <SCORE.INTRA.REPUL.0>
0

>  <SCORE.INTRA.SOLV>
0

>  <SCORE.INTRA.SOLV.lig_0>
-23.9151

>  <SCORE.INTRA.VDW>
0

>  <SCORE.INTRA.VDW.0>
0

>  <SCORE.INTRA.norm>
0

>  <SCORE.RESTR>
0

>  <SCORE.RESTR.CAVITY>
0

>  <SCORE.RESTR.norm>
0

>  <SCORE.SYSTEM>
0

>  <SCORE.SYSTEM.CONST>
0

>  <SCORE.SYSTEM.DIHEDRAL>
0

>  <SCORE.SYSTEM.SOLV>
0

>  <SCORE.SYSTEM.norm>
0

>  <SCORE.heavy>
10

>  <SCORE.norm>
-1.26334

>  <RMSD>
2.390

$$$$
ligand
 OpenBabel11021811503D
libRbt.so/2013.1/901 2013/11/27
 10 11  0  0  0  0  0  0  0  0999 V2000
    3.6452  -20.5938   24.3256 N   0  0  0  0  0  0  0  0  0  0  0  0
    2.7939  -21.4194   23.7134 C   0  0  0  0  0  0  0  0  0  0  0  0
    1.5415  -21.7456   24.0561 N   0  0  0  0  0  0  0  0  0  0  0  0
    1.1863  -21.1200   25.1945 C   0  0  0  0  0  0  0  0  0  0  0  0
    1.9527  -20.2434   25.9388 C   0  0  0  0  0  0  0  0  0  0  0  0
    3.2523  -19.9736   25.4659 C   0  0  0  0  0  0  0  0  0  0  0  0
    4.1041  -19.1494   26.0969 N   0  0  0  0  0  0  0  0  0  0  0  0
    1.2558  -19.7895   27.0437 N   0  0  0  0  0  0  0  0  0  0  0  0
    0.0950  -20.3826   26.9496 C   0  0  0  0  0  0  0  0  0  0  0  0
   -0.0123  -21.2075   25.8615 N   0  0  0  0  0  0  0  0  0  0  0  0
  1  2  2  0  0  0  0
  1  6  1  0  0  0  0
  2  3  1  0  0  0  0
  3  4  2  0  0  0  0
  4  5  1  0  0  0  0
  4 10  1  0  0  0  0
  5  6  2  0  0  0  0
  5  8  1  0  0  0  0
  6  7  1  0  0  0  0
  8  9  1  0  0  0  0
  9 10  2  0  0  0  0
M  END
>  <CHROM.1>
1.99106576,-20.55746821,25.46551923,0.30932060,-0.35980902,-2.18168123

>  <Name>
ligand

>  <RI>
0

>  <Rbt.Current_Directory>
/home/itssahil/PROJECTS/Mol_Feturizer/New_Systems/rnas/4LW0

>  <Rbt.Executable>
rbdock ($Id: //depot/dev/client3/rdock/2013.1/src/exe/rbdock.cxx#4 $)

>  <Rbt.Library>
libRbt.so (2013.1, Build901 2013/11/27)

>  <Rbt.Parameter_File>
/export/apps/rDock/src/rDock_2013.1_src/data/scripts/dock_solv.prm

>  <Rbt.Receptor>
prm/pocket_docking_3.prm

>  <SCORE>
-12.628

>  <SCORE.INTER>
-12.628

>  <SCORE.INTER.CONST>
1

>  <SCORE.INTER.POLAR>
0

>  <SCORE.INTER.ROT>
0

>  <SCORE.INTER.SOLV>
4.07793

>  <SCORE.INTER.VDW>
-13.378

>  <SCORE.INTER.norm>
-1.2628

>  <SCORE.INTRA>
0

>  <SCORE.INTRA.DIHEDRAL>
0

>  <SCORE.INTRA.DIHEDRAL.0>
0

>  <SCORE.INTRA.POLAR>
0

>  <SCORE.INTRA.POLAR.0>
0

>  <SCORE.INTRA.REPUL>
0

>  <SCORE.INTRA.REPUL.0>
0

>  <SCORE.INTRA.SOLV>
0

>  <SCORE.INTRA.SOLV.lig_0>
-23.9151

>  <SCORE.INTRA.VDW>
0

>  <SCORE.INTRA.VDW.0>
0

>  <SCORE.INTRA.norm>
0

>  <SCORE.RESTR>
0

>  <SCORE.RESTR.CAVITY>
0

>  <SCORE.RESTR.norm>
0

>  <SCORE.SYSTEM>
0

>  <SCORE.SYSTEM.CONST>
0

>  <SCORE.SYSTEM.DIHEDRAL>
0

>  <SCORE.SYSTEM.SOLV>
0

>  <SCORE.SYSTEM.norm>
0

>  <SCORE.heavy>
10

>  <SCORE.norm>
-1.2628

>  <RMSD>
2.391

$$$$
ligand
 OpenBabel11021811503D
libRbt.so/2013.1/901 2013/11/27
 10 11  0  0  0  0  0  0  0  0999 V2000
    3.6538  -20.6027   24.3415 N   0  0  0  0  0  0  0  0  0  0  0  0
    2.8012  -21.4212   23.7216 C   0  0  0  0  0  0  0  0  0  0  0  0
    1.5461  -21.7437   24.0578 N   0  0  0  0  0  0  0  0  0  0  0  0
    1.1894  -21.1227   25.1983 C   0  0  0  0  0  0  0  0  0  0  0  0
    1.9568  -20.2535   25.9502 C   0  0  0  0  0  0  0  0  0  0  0  0
    3.2593  -19.9869   25.4836 C   0  0  0  0  0  0  0  0  0  0  0  0
    4.1123  -19.1699   26.1222 N   0  0  0  0  0  0  0  0  0  0  0  0
    1.2577  -19.8025   27.0549 N   0  0  0  0  0  0  0  0  0  0  0  0
    0.0947  -20.3899   26.9532 C   0  0  0  0  0  0  0  0  0  0  0  0
   -0.0121  -21.2084   25.8603 N   0  0  0  0  0  0  0  0  0  0  0  0
  1  2  2  0  0  0  0
  1  6  1  0  0  0  0
  2  3  1  0  0  0  0
  3  4  2  0  0  0  0
  4  5  1  0  0  0  0
  4 10  1  0  0  0  0
  5  6  2  0  0  0  0
  5  8  1  0  0  0  0
  6  7  1  0  0  0  0
  8  9  1  0  0  0  0
  9 10  2  0  0  0  0
M  END
>  <CHROM.1>
1.99555200,-20.56518763,25.47535700,0.30871420,-0.35404162,-2.17649240

>  <Name>
ligand

>  <RI>
0

>  <Rbt.Current_Directory>
/home/itssahil/PROJECTS/Mol_Feturizer/New_Systems/rnas/4LW0

>  <Rbt.Executable>
rbdock ($Id: //depot/dev/client3/rdock/2013.1/src/exe/rbdock.cxx#4 $)

>  <Rbt.Library>
libRbt.so (2013.1, Build901 2013/11/27)

>  <Rbt.Parameter_File>
/export/apps/rDock/src/rDock_2013.1_src/data/scripts/dock_solv.prm

>  <Rbt.Receptor>
prm/pocket_docking_3.prm

>  <SCORE>
-12.6651

>  <SCORE.INTER>
-12.6651

>  <SCORE.INTER.CONST>
1

>  <SCORE.INTER.POLAR>
0

>  <SCORE.INTER.ROT>
0

>  <SCORE.INTER.SOLV>
4.04299

>  <SCORE.INTER.VDW>
-13.3911

>  <SCORE.INTER.norm>
-1.26651

>  <SCORE.INTRA>
0

>  <SCORE.INTRA.DIHEDRAL>
0

>  <SCORE.INTRA.DIHEDRAL.0>
0

>  <SCORE.INTRA.POLAR>
0

>  <SCORE.INTRA.POLAR.0>
0

>  <SCORE.INTRA.REPUL>
0

>  <SCORE.INTRA.REPUL.0>
0

>  <SCORE.INTRA.SOLV>
0

>  <SCORE.INTRA.SOLV.lig_0>
-23.9151

>  <SCORE.INTRA.VDW>
0

>  <SCORE.INTRA.VDW.0>
0

>  <SCORE.INTRA.norm>
0

>  <SCORE.RESTR>
0

>  <SCORE.RESTR.CAVITY>
0

>  <SCORE.RESTR.norm>
0

>  <SCORE.SYSTEM>
0

>  <SCORE.SYSTEM.CONST>
0

>  <SCORE.SYSTEM.DIHEDRAL>
0

>  <SCORE.SYSTEM.SOLV>
0

>  <SCORE.SYSTEM.norm>
0

>  <SCORE.heavy>
10

>  <SCORE.norm>
-1.26651

>  <RMSD>
2.391

$$$$
ligand
 OpenBabel11021811503D
libRbt.so/2013.1/901 2013/11/27
 10 11  0  0  0  0  0  0  0  0999 V2000
    3.6539  -20.6082   24.3504 N   0  0  0  0  0  0  0  0  0  0  0  0
    2.7996  -21.4253   23.7311 C   0  0  0  0  0  0  0  0  0  0  0  0
    1.5442  -21.7459   24.0682 N   0  0  0  0  0  0  0  0  0  0  0  0
    1.1893  -21.1243   25.2089 C   0  0  0  0  0  0  0  0  0  0  0  0
    1.9586  -20.2563   25.9602 C   0  0  0  0  0  0  0  0  0  0  0  0
    3.2612  -19.9918   25.4928 C   0  0  0  0  0  0  0  0  0  0  0  0
    4.1159  -19.1761   26.1309 N   0  0  0  0  0  0  0  0  0  0  0  0
    1.2609  -19.8042   27.0654 N   0  0  0  0  0  0  0  0  0  0  0  0
    0.0969  -20.3898   26.9645 C   0  0  0  0  0  0  0  0  0  0  0  0
   -0.0119  -21.2081   25.8717 N   0  0  0  0  0  0  0  0  0  0  0  0
  1  2  2  0  0  0  0
  1  6  1  0  0  0  0
  2  3  1  0  0  0  0
  3  4  2  0  0  0  0
  4  5  1  0  0  0  0
  4 10  1  0  0  0  0
  5  6  2  0  0  0  0
  5  8  1  0  0  0  0
  6  7  1  0  0  0  0
  8  9  1  0  0  0  0
  9 10  2  0  0  0  0
M  END
>  <CHROM.1>
1.99651533,-20.56805199,25.48539529,0.31025181,-0.35312151,-2.17595796

>  <Name>
ligand

>  <RI>
0

>  <Rbt.Current_Directory>
/home/itssahil/PROJECTS/Mol_Feturizer/New_Systems/rnas/4LW0

>  <Rbt.Executable>
rbdock ($Id: //depot/dev/client3/rdock/2013.1/src/exe/rbdock.cxx#4 $)

>  <Rbt.Library>
libRbt.so (2013.1, Build901 2013/11/27)

>  <Rbt.Parameter_File>
/export/apps/rDock/src/rDock_2013.1_src/data/scripts/dock_solv.prm

>  <Rbt.Receptor>
prm/pocket_docking_3.prm

>  <SCORE>
-12.6343

>  <SCORE.INTER>
-12.6343

>  <SCORE.INTER.CONST>
1

>  <SCORE.INTER.POLAR>
0

>  <SCORE.INTER.ROT>
0

>  <SCORE.INTER.SOLV>
4.03149

>  <SCORE.INTER.VDW>
-13.3667

>  <SCORE.INTER.norm>
-1.26343

>  <SCORE.INTRA>
0

>  <SCORE.INTRA.DIHEDRAL>
0

>  <SCORE.INTRA.DIHEDRAL.0>
0

>  <SCORE.INTRA.POLAR>
0

>  <SCORE.INTRA.POLAR.0>
0

>  <SCORE.INTRA.REPUL>
0

>  <SCORE.INTRA.REPUL.0>
0

>  <SCORE.INTRA.SOLV>
0

>  <SCORE.INTRA.SOLV.lig_0>
-23.9151

>  <SCORE.INTRA.VDW>
0

>  <SCORE.INTRA.VDW.0>
0

>  <SCORE.INTRA.norm>
0

>  <SCORE.RESTR>
0

>  <SCORE.RESTR.CAVITY>
0

>  <SCORE.RESTR.norm>
0

>  <SCORE.SYSTEM>
0

>  <SCORE.SYSTEM.CONST>
0

>  <SCORE.SYSTEM.DIHEDRAL>
0

>  <SCORE.SYSTEM.SOLV>
0

>  <SCORE.SYSTEM.norm>
0

>  <SCORE.heavy>
10

>  <SCORE.norm>
-1.26343

>  <RMSD>
2.391

$$$$
ligand
 OpenBabel11021811503D
libRbt.so/2013.1/901 2013/11/27
 10 11  0  0  0  0  0  0  0  0999 V2000
    3.6502  -20.5977   24.3675 N   0  0  0  0  0  0  0  0  0  0  0  0
    2.7976  -21.4140   23.7447 C   0  0  0  0  0  0  0  0  0  0  0  0
    1.5411  -21.7345   24.0774 N   0  0  0  0  0  0  0  0  0  0  0  0
    1.1827  -21.1139   25.2177 C   0  0  0  0  0  0  0  0  0  0  0  0
    1.9498  -20.2469   25.9723 C   0  0  0  0  0  0  0  0  0  0  0  0
    3.2541  -19.9823   25.5093 C   0  0  0  0  0  0  0  0  0  0  0  0
    4.1070  -19.1675   26.1508 N   0  0  0  0  0  0  0  0  0  0  0  0
    1.2488  -19.7957   27.0756 N   0  0  0  0  0  0  0  0  0  0  0  0
    0.0850  -20.3807   26.9705 C   0  0  0  0  0  0  0  0  0  0  0  0
   -0.0206  -21.1980   25.8765 N   0  0  0  0  0  0  0  0  0  0  0  0
  1  2  2  0  0  0  0
  1  6  1  0  0  0  0
  2  3  1  0  0  0  0
  3  4  2  0  0  0  0
  4  5  1  0  0  0  0
  4 10  1  0  0  0  0
  5  6  2  0  0  0  0
  5  8  1  0  0  0  0
  6  7  1  0  0  0  0
  8  9  1  0  0  0  0
  9 10  2  0  0  0  0
M  END
>  <CHROM.1>
1.98920837,-20.55817428,25.49724983,0.30766545,-0.35105472,-2.17588190

>  <Name>
ligand

>  <RI>
0

>  <Rbt.Current_Directory>
/home/itssahil/PROJECTS/Mol_Feturizer/New_Systems/rnas/4LW0

>  <Rbt.Executable>
rbdock ($Id: //depot/dev/client3/rdock/2013.1/src/exe/rbdock.cxx#4 $)

>  <Rbt.Library>
libRbt.so (2013.1, Build901 2013/11/27)

>  <Rbt.Parameter_File>
/export/apps/rDock/src/rDock_2013.1_src/data/scripts/dock_solv.prm

>  <Rbt.Receptor>
prm/pocket_docking_4.prm

>  <SCORE>
-12.6027

>  <SCORE.INTER>
-12.6027

>  <SCORE.INTER.CONST>
1

>  <SCORE.INTER.POLAR>
0

>  <SCORE.INTER.ROT>
0

>  <SCORE.INTER.SOLV>
4.14637

>  <SCORE.INTER.VDW>
-13.3839

>  <SCORE.INTER.norm>
-1.26027

>  <SCORE.INTRA>
0

>  <SCORE.INTRA.DIHEDRAL>
0

>  <SCORE.INTRA.DIHEDRAL.0>
0

>  <SCORE.INTRA.POLAR>
0

>  <SCORE.INTRA.POLAR.0>
0

>  <SCORE.INTRA.REPUL>
0

>  <SCORE.INTRA.REPUL.0>
0

>  <SCORE.INTRA.SOLV>
0

>  <SCORE.INTRA.SOLV.lig_0>
-23.9151

>  <SCORE.INTRA.VDW>
0

>  <SCORE.INTRA.VDW.0>
0

>  <SCORE.INTRA.norm>
0

>  <SCORE.RESTR>
0

>  <SCORE.RESTR.CAVITY>
0

>  <SCORE.RESTR.norm>
0

>  <SCORE.SYSTEM>
0

>  <SCORE.SYSTEM.CONST>
0

>  <SCORE.SYSTEM.DIHEDRAL>
0

>  <SCORE.SYSTEM.SOLV>
0

>  <SCORE.SYSTEM.norm>
0

>  <SCORE.heavy>
10

>  <SCORE.norm>
-1.26027

>  <RMSD>
2.391

$$$$
ligand
 OpenBabel11021811503D
libRbt.so/2013.1/901 2013/11/27
 10 11  0  0  0  0  0  0  0  0999 V2000
    3.6366  -20.6084   24.3411 N   0  0  0  0  0  0  0  0  0  0  0  0
    2.7911  -21.4430   23.7331 C   0  0  0  0  0  0  0  0  0  0  0  0
    1.5364  -21.7663   24.0702 N   0  0  0  0  0  0  0  0  0  0  0  0
    1.1717  -21.1264   25.1977 C   0  0  0  0  0  0  0  0  0  0  0  0
    1.9312  -20.2392   25.9364 C   0  0  0  0  0  0  0  0  0  0  0  0
    3.2342  -19.9740   25.4701 C   0  0  0  0  0  0  0  0  0  0  0  0
    4.0800  -19.1405   26.0969 N   0  0  0  0  0  0  0  0  0  0  0  0
    1.2252  -19.7719   27.0298 N   0  0  0  0  0  0  0  0  0  0  0  0
    0.0659  -20.3676   26.9344 C   0  0  0  0  0  0  0  0  0  0  0  0
   -0.0320  -21.2067   25.8564 N   0  0  0  0  0  0  0  0  0  0  0  0
  1  2  2  0  0  0  0
  1  6  1  0  0  0  0
  2  3  1  0  0  0  0
  3  4  2  0  0  0  0
  4  5  1  0  0  0  0
  4 10  1  0  0  0  0
  5  6  2  0  0  0  0
  5  8  1  0  0  0  0
  6  7  1  0  0  0  0
  8  9  1  0  0  0  0
  9 10  2  0  0  0  0
M  END
>  <CHROM.1>
1.97364457,-20.55935210,25.46756331,0.30181081,-0.35629281,-2.19732606

>  <Name>
ligand

>  <RI>
0

>  <Rbt.Current_Directory>
/home/itssahil/PROJECTS/Mol_Feturizer/New_Systems/rnas/4LW0

>  <Rbt.Executable>
rbdock ($Id: //depot/dev/client3/rdock/2013.1/src/exe/rbdock.cxx#4 $)

>  <Rbt.Library>
libRbt.so (2013.1, Build901 2013/11/27)

>  <Rbt.Parameter_File>
/export/apps/rDock/src/rDock_2013.1_src/data/scripts/dock_solv.prm

>  <Rbt.Receptor>
prm/pocket_docking_4.prm

>  <SCORE>
-12.554

>  <SCORE.INTER>
-12.554

>  <SCORE.INTER.CONST>
1

>  <SCORE.INTER.POLAR>
0

>  <SCORE.INTER.ROT>
0

>  <SCORE.INTER.SOLV>
4.19993

>  <SCORE.INTER.VDW>
-13.3693

>  <SCORE.INTER.norm>
-1.2554

>  <SCORE.INTRA>
0

>  <SCORE.INTRA.DIHEDRAL>
0

>  <SCORE.INTRA.DIHEDRAL.0>
0

>  <SCORE.INTRA.POLAR>
0

>  <SCORE.INTRA.POLAR.0>
0

>  <SCORE.INTRA.REPUL>
0

>  <SCORE.INTRA.REPUL.0>
0

>  <SCORE.INTRA.SOLV>
0

>  <SCORE.INTRA.SOLV.lig_0>
-23.9151

>  <SCORE.INTRA.VDW>
0

>  <SCORE.INTRA.VDW.0>
0

>  <SCORE.INTRA.norm>
0

>  <SCORE.RESTR>
0

>  <SCORE.RESTR.CAVITY>
0

>  <SCORE.RESTR.norm>
0

>  <SCORE.SYSTEM>
0

>  <SCORE.SYSTEM.CONST>
0

>  <SCORE.SYSTEM.DIHEDRAL>
0

>  <SCORE.SYSTEM.SOLV>
0

>  <SCORE.SYSTEM.norm>
0

>  <SCORE.heavy>
10

>  <SCORE.norm>
-1.2554

>  <RMSD>
2.391

$$$$
ligand
 OpenBabel11021811503D
libRbt.so/2013.1/901 2013/11/27
 10 11  0  0  0  0  0  0  0  0999 V2000
    3.6743  -20.6291   24.3351 N   0  0  0  0  0  0  0  0  0  0  0  0
    2.8127  -21.4476   23.7278 C   0  0  0  0  0  0  0  0  0  0  0  0
    1.5500  -21.7416   24.0620 N   0  0  0  0  0  0  0  0  0  0  0  0
    1.1956  -21.0887   25.1853 C   0  0  0  0  0  0  0  0  0  0  0  0
    1.9721  -20.2152   25.9228 C   0  0  0  0  0  0  0  0  0  0  0  0
    3.2821  -19.9809   25.4599 C   0  0  0  0  0  0  0  0  0  0  0  0
    4.1441  -19.1635   26.0860 N   0  0  0  0  0  0  0  0  0  0  0  0
    1.2728  -19.7275   27.0116 N   0  0  0  0  0  0  0  0  0  0  0  0
    0.1010  -20.2979   26.9148 C   0  0  0  0  0  0  0  0  0  0  0  0
   -0.0117  -21.1395   25.8401 N   0  0  0  0  0  0  0  0  0  0  0  0
  1  2  2  0  0  0  0
  1  6  1  0  0  0  0
  2  3  1  0  0  0  0
  3  4  2  0  0  0  0
  4  5  1  0  0  0  0
  4 10  1  0  0  0  0
  5  6  2  0  0  0  0
  5  8  1  0  0  0  0
  6  7  1  0  0  0  0
  8  9  1  0  0  0  0
  9 10  2  0  0  0  0
M  END
>  <CHROM.1>
2.00900689,-20.53833623,25.45548842,0.31259135,-0.33638249,-2.19811934

>  <Name>
ligand

>  <RI>
0

>  <Rbt.Current_Directory>
/home/itssahil/PROJECTS/Mol_Feturizer/New_Systems/rnas/4LW0

>  <Rbt.Executable>
rbdock ($Id: //depot/dev/client3/rdock/2013.1/src/exe/rbdock.cxx#4 $)

>  <Rbt.Library>
libRbt.so (2013.1, Build901 2013/11/27)

>  <Rbt.Parameter_File>
/export/apps/rDock/src/rDock_2013.1_src/data/scripts/dock_solv.prm

>  <Rbt.Receptor>
prm/pocket_docking_4.prm

>  <SCORE>
-12.5614

>  <SCORE.INTER>
-12.5614

>  <SCORE.INTER.CONST>
1

>  <SCORE.INTER.POLAR>
0

>  <SCORE.INTER.ROT>
0

>  <SCORE.INTER.SOLV>
3.91122

>  <SCORE.INTER.VDW>
-13.278

>  <SCORE.INTER.norm>
-1.25614

>  <SCORE.INTRA>
0

>  <SCORE.INTRA.DIHEDRAL>
0

>  <SCORE.INTRA.DIHEDRAL.0>
0

>  <SCORE.INTRA.POLAR>
0

>  <SCORE.INTRA.POLAR.0>
0

>  <SCORE.INTRA.REPUL>
0

>  <SCORE.INTRA.REPUL.0>
0

>  <SCORE.INTRA.SOLV>
0

>  <SCORE.INTRA.SOLV.lig_0>
-23.9151

>  <SCORE.INTRA.VDW>
0

>  <SCORE.INTRA.VDW.0>
0

>  <SCORE.INTRA.norm>
0

>  <SCORE.RESTR>
0

>  <SCORE.RESTR.CAVITY>
0

>  <SCORE.RESTR.norm>
0

>  <SCORE.SYSTEM>
0

>  <SCORE.SYSTEM.CONST>
0

>  <SCORE.SYSTEM.DIHEDRAL>
0

>  <SCORE.SYSTEM.SOLV>
0

>  <SCORE.SYSTEM.norm>
0

>  <SCORE.heavy>
10

>  <SCORE.norm>
-1.25614

>  <RMSD>
2.391

$$$$
ligand
 OpenBabel11021811503D
libRbt.so/2013.1/901 2013/11/27
 10 11  0  0  0  0  0  0  0  0999 V2000
    3.6535  -20.5996   24.3513 N   0  0  0  0  0  0  0  0  0  0  0  0
    2.7934  -21.4114   23.7329 C   0  0  0  0  0  0  0  0  0  0  0  0
    1.5397  -21.7314   24.0763 N   0  0  0  0  0  0  0  0  0  0  0  0
    1.1935  -21.1159   25.2231 C   0  0  0  0  0  0  0  0  0  0  0  0
    1.9696  -20.2540   25.9745 C   0  0  0  0  0  0  0  0  0  0  0  0
    3.2696  -19.9893   25.5000 C   0  0  0  0  0  0  0  0  0  0  0  0
    4.1302  -19.1791   26.1372 N   0  0  0  0  0  0  0  0  0  0  0  0
    1.2802  -19.8071   27.0869 N   0  0  0  0  0  0  0  0  0  0  0  0
    0.1143  -20.3896   26.9902 C   0  0  0  0  0  0  0  0  0  0  0  0
   -0.0034  -21.2013   25.8933 N   0  0  0  0  0  0  0  0  0  0  0  0
  1  2  2  0  0  0  0
  1  6  1  0  0  0  0
  2  3  1  0  0  0  0
  3  4  2  0  0  0  0
  4  5  1  0  0  0  0
  4 10  1  0  0  0  0
  5  6  2  0  0  0  0
  5  8  1  0  0  0  0
  6  7  1  0  0  0  0
  8  9  1  0  0  0  0
  9 10  2  0  0  0  0
M  END
>  <CHROM.1>
2.00372583,-20.56293150,25.49752141,0.31731270,-0.35519682,-2.16756086

>  <Name>
ligand

>  <RI>
0

>  <Rbt.Current_Directory>
/home/itssahil/PROJECTS/Mol_Feturizer/New_Systems/rnas/4LW0

>  <Rbt.Executable>
rbdock ($Id: //depot/dev/client3/rdock/2013.1/src/exe/rbdock.cxx#4 $)

>  <Rbt.Library>
libRbt.so (2013.1, Build901 2013/11/27)

>  <Rbt.Parameter_File>
/export/apps/rDock/src/rDock_2013.1_src/data/scripts/dock_solv.prm

>  <Rbt.Receptor>
prm/pocket_docking_4.prm

>  <SCORE>
-12.6076

>  <SCORE.INTER>
-12.6076

>  <SCORE.INTER.CONST>
1

>  <SCORE.INTER.POLAR>
0

>  <SCORE.INTER.ROT>
0

>  <SCORE.INTER.SOLV>
3.99546

>  <SCORE.INTER.VDW>
-13.3369

>  <SCORE.INTER.norm>
-1.26076

>  <SCORE.INTRA>
0

>  <SCORE.INTRA.DIHEDRAL>
0

>  <SCORE.INTRA.DIHEDRAL.0>
0

>  <SCORE.INTRA.POLAR>
0

>  <SCORE.INTRA.POLAR.0>
0

>  <SCORE.INTRA.REPUL>
0

>  <SCORE.INTRA.REPUL.0>
0

>  <SCORE.INTRA.SOLV>
0

>  <SCORE.INTRA.SOLV.lig_0>
-23.9151

>  <SCORE.INTRA.VDW>
0

>  <SCORE.INTRA.VDW.0>
0

>  <SCORE.INTRA.norm>
0

>  <SCORE.RESTR>
0

>  <SCORE.RESTR.CAVITY>
0

>  <SCORE.RESTR.norm>
0

>  <SCORE.SYSTEM>
0

>  <SCORE.SYSTEM.CONST>
0

>  <SCORE.SYSTEM.DIHEDRAL>
0

>  <SCORE.SYSTEM.SOLV>
0

>  <SCORE.SYSTEM.norm>
0

>  <SCORE.heavy>
10

>  <SCORE.norm>
-1.26076

>  <RMSD>
2.391

$$$$
ligand
 OpenBabel11021811503D
libRbt.so/2013.1/901 2013/11/27
 10 11  0  0  0  0  0  0  0  0999 V2000
    3.6436  -20.6325   24.4000 N   0  0  0  0  0  0  0  0  0  0  0  0
    2.7857  -21.4447   23.7792 C   0  0  0  0  0  0  0  0  0  0  0  0
    1.5238  -21.7486   24.1072 N   0  0  0  0  0  0  0  0  0  0  0  0
    1.1656  -21.1145   25.2400 C   0  0  0  0  0  0  0  0  0  0  0  0
    1.9379  -20.2495   25.9917 C   0  0  0  0  0  0  0  0  0  0  0  0
    3.2476  -20.0031   25.5342 C   0  0  0  0  0  0  0  0  0  0  0  0
    4.1057  -19.1922   26.1738 N   0  0  0  0  0  0  0  0  0  0  0  0
    1.2354  -19.7812   27.0871 N   0  0  0  0  0  0  0  0  0  0  0  0
    0.0659  -20.3545   26.9800 C   0  0  0  0  0  0  0  0  0  0  0  0
   -0.0423  -21.1798   25.8924 N   0  0  0  0  0  0  0  0  0  0  0  0
  1  2  2  0  0  0  0
  1  6  1  0  0  0  0
  2  3  1  0  0  0  0
  3  4  2  0  0  0  0
  4  5  1  0  0  0  0
  4 10  1  0  0  0  0
  5  6  2  0  0  0  0
  5  8  1  0  0  0  0
  6  7  1  0  0  0  0
  8  9  1  0  0  0  0
  9 10  2  0  0  0  0
M  END
>  <CHROM.1>
1.97658566,-20.56520573,25.51959063,0.30921447,-0.33874797,-2.18384900

>  <Name>
ligand

>  <RI>
0

>  <Rbt.Current_Directory>
/home/itssahil/PROJECTS/Mol_Feturizer/New_Systems/rnas/4LW0

>  <Rbt.Executable>
rbdock ($Id: //depot/dev/client3/rdock/2013.1/src/exe/rbdock.cxx#4 $)

>  <Rbt.Library>
libRbt.so (2013.1, Build901 2013/11/27)

>  <Rbt.Parameter_File>
/export/apps/rDock/src/rDock_2013.1_src/data/scripts/dock_solv.prm

>  <Rbt.Receptor>
prm/pocket_docking_4.prm

>  <SCORE>
-12.5955

>  <SCORE.INTER>
-12.5955

>  <SCORE.INTER.CONST>
1

>  <SCORE.INTER.POLAR>
0

>  <SCORE.INTER.ROT>
0

>  <SCORE.INTER.SOLV>
4.13543

>  <SCORE.INTER.VDW>
-13.3755

>  <SCORE.INTER.norm>
-1.25955

>  <SCORE.INTRA>
0

>  <SCORE.INTRA.DIHEDRAL>
0

>  <SCORE.INTRA.DIHEDRAL.0>
0

>  <SCORE.INTRA.POLAR>
0

>  <SCORE.INTRA.POLAR.0>
0

>  <SCORE.INTRA.REPUL>
0

>  <SCORE.INTRA.REPUL.0>
0

>  <SCORE.INTRA.SOLV>
0

>  <SCORE.INTRA.SOLV.lig_0>
-23.9151

>  <SCORE.INTRA.VDW>
0

>  <SCORE.INTRA.VDW.0>
0

>  <SCORE.INTRA.norm>
0

>  <SCORE.RESTR>
0

>  <SCORE.RESTR.CAVITY>
0

>  <SCORE.RESTR.norm>
0

>  <SCORE.SYSTEM>
0

>  <SCORE.SYSTEM.CONST>
0

>  <SCORE.SYSTEM.DIHEDRAL>
0

>  <SCORE.SYSTEM.SOLV>
0

>  <SCORE.SYSTEM.norm>
0

>  <SCORE.heavy>
10

>  <SCORE.norm>
-1.25955

>  <RMSD>
2.391

$$$$
ligand
 OpenBabel11021811503D
libRbt.so/2013.1/901 2013/11/27
 10 11  0  0  0  0  0  0  0  0999 V2000
    3.6640  -20.6098   24.2990 N   0  0  0  0  0  0  0  0  0  0  0  0
    2.7981  -21.4328   23.7040 C   0  0  0  0  0  0  0  0  0  0  0  0
    1.5462  -21.7431   24.0630 N   0  0  0  0  0  0  0  0  0  0  0  0
    1.2094  -21.1027   25.1989 C   0  0  0  0  0  0  0  0  0  0  0  0
    1.9923  -20.2266   25.9263 C   0  0  0  0  0  0  0  0  0  0  0  0
    3.2894  -19.9745   25.4371 C   0  0  0  0  0  0  0  0  0  0  0  0
    4.1560  -19.1527   26.0508 N   0  0  0  0  0  0  0  0  0  0  0  0
    1.3116  -19.7549   27.0338 N   0  0  0  0  0  0  0  0  0  0  0  0
    0.1441  -20.3371   26.9578 C   0  0  0  0  0  0  0  0  0  0  0  0
    0.0171  -21.1716   25.8792 N   0  0  0  0  0  0  0  0  0  0  0  0
  1  2  2  0  0  0  0
  1  6  1  0  0  0  0
  2  3  1  0  0  0  0
  3  4  2  0  0  0  0
  4  5  1  0  0  0  0
  4 10  1  0  0  0  0
  5  6  2  0  0  0  0
  5  8  1  0  0  0  0
  6  7  1  0  0  0  0
  8  9  1  0  0  0  0
  9 10  2  0  0  0  0
M  END
>  <CHROM.1>
2.02250902,-20.54565541,25.45577581,0.32467095,-0.35771590,-2.18620750

>  <Name>
ligand

>  <RI>
0

>  <Rbt.Current_Directory>
/home/itssahil/PROJECTS/Mol_Feturizer/New_Systems/rnas/4LW0

>  <Rbt.Executable>
rbdock ($Id: //depot/dev/client3/rdock/2013.1/src/exe/rbdock.cxx#4 $)

>  <Rbt.Library>
libRbt.so (2013.1, Build901 2013/11/27)

>  <Rbt.Parameter_File>
/export/apps/rDock/src/rDock_2013.1_src/data/scripts/dock_solv.prm

>  <Rbt.Receptor>
prm/pocket_docking_4.prm

>  <SCORE>
-12.5431

>  <SCORE.INTER>
-12.5431

>  <SCORE.INTER.CONST>
1

>  <SCORE.INTER.POLAR>
0

>  <SCORE.INTER.ROT>
0

>  <SCORE.INTER.SOLV>
3.82679

>  <SCORE.INTER.VDW>
-13.2377

>  <SCORE.INTER.norm>
-1.25431

>  <SCORE.INTRA>
0

>  <SCORE.INTRA.DIHEDRAL>
0

>  <SCORE.INTRA.DIHEDRAL.0>
0

>  <SCORE.INTRA.POLAR>
0

>  <SCORE.INTRA.POLAR.0>
0

>  <SCORE.INTRA.REPUL>
0

>  <SCORE.INTRA.REPUL.0>
0

>  <SCORE.INTRA.SOLV>
0

>  <SCORE.INTRA.SOLV.lig_0>
-23.9151

>  <SCORE.INTRA.VDW>
0

>  <SCORE.INTRA.VDW.0>
0

>  <SCORE.INTRA.norm>
0

>  <SCORE.RESTR>
0

>  <SCORE.RESTR.CAVITY>
0

>  <SCORE.RESTR.norm>
0

>  <SCORE.SYSTEM>
0

>  <SCORE.SYSTEM.CONST>
0

>  <SCORE.SYSTEM.DIHEDRAL>
0

>  <SCORE.SYSTEM.SOLV>
0

>  <SCORE.SYSTEM.norm>
0

>  <SCORE.heavy>
10

>  <SCORE.norm>
-1.25431

>  <RMSD>
2.391

$$$$
ligand
 OpenBabel11021811503D
libRbt.so/2013.1/901 2013/11/27
 10 11  0  0  0  0  0  0  0  0999 V2000
    3.6578  -20.6120   24.3442 N   0  0  0  0  0  0  0  0  0  0  0  0
    2.8033  -21.4290   23.7249 C   0  0  0  0  0  0  0  0  0  0  0  0
    1.5475  -21.7484   24.0612 N   0  0  0  0  0  0  0  0  0  0  0  0
    1.1922  -21.1258   25.2013 C   0  0  0  0  0  0  0  0  0  0  0  0
    1.9616  -20.2580   25.9527 C   0  0  0  0  0  0  0  0  0  0  0  0
    3.2648  -19.9947   25.4860 C   0  0  0  0  0  0  0  0  0  0  0  0
    4.1196  -19.1792   26.1241 N   0  0  0  0  0  0  0  0  0  0  0  0
    1.2635  -19.8047   27.0570 N   0  0  0  0  0  0  0  0  0  0  0  0
    0.0992  -20.3894   26.9557 C   0  0  0  0  0  0  0  0  0  0  0  0
   -0.0095  -21.2084   25.8633 N   0  0  0  0  0  0  0  0  0  0  0  0
  1  2  2  0  0  0  0
  1  6  1  0  0  0  0
  2  3  1  0  0  0  0
  3  4  2  0  0  0  0
  4  5  1  0  0  0  0
  4 10  1  0  0  0  0
  5  6  2  0  0  0  0
  5  8  1  0  0  0  0
  6  7  1  0  0  0  0
  8  9  1  0  0  0  0
  9 10  2  0  0  0  0
M  END
>  <CHROM.1>
1.99964651,-20.57001505,25.47802900,0.31009415,-0.35214845,-2.17664277

>  <Name>
ligand

>  <RI>
0

>  <Rbt.Current_Directory>
/home/itssahil/PROJECTS/Mol_Feturizer/New_Systems/rnas/4LW0

>  <Rbt.Executable>
rbdock ($Id: //depot/dev/client3/rdock/2013.1/src/exe/rbdock.cxx#4 $)

>  <Rbt.Library>
libRbt.so (2013.1, Build901 2013/11/27)

>  <Rbt.Parameter_File>
/export/apps/rDock/src/rDock_2013.1_src/data/scripts/dock_solv.prm

>  <Rbt.Receptor>
prm/pocket_docking_5.prm

>  <SCORE>
-12.6632

>  <SCORE.INTER>
-12.6632

>  <SCORE.INTER.CONST>
1

>  <SCORE.INTER.POLAR>
0

>  <SCORE.INTER.ROT>
0

>  <SCORE.INTER.SOLV>
3.99231

>  <SCORE.INTER.VDW>
-13.3729

>  <SCORE.INTER.norm>
-1.26632

>  <SCORE.INTRA>
0

>  <SCORE.INTRA.DIHEDRAL>
0

>  <SCORE.INTRA.DIHEDRAL.0>
0

>  <SCORE.INTRA.POLAR>
0

>  <SCORE.INTRA.POLAR.0>
0

>  <SCORE.INTRA.REPUL>
0

>  <SCORE.INTRA.REPUL.0>
0

>  <SCORE.INTRA.SOLV>
0

>  <SCORE.INTRA.SOLV.lig_0>
-23.9151

>  <SCORE.INTRA.VDW>
0

>  <SCORE.INTRA.VDW.0>
0

>  <SCORE.INTRA.norm>
0

>  <SCORE.RESTR>
0

>  <SCORE.RESTR.CAVITY>
0

>  <SCORE.RESTR.norm>
0

>  <SCORE.SYSTEM>
0

>  <SCORE.SYSTEM.CONST>
0

>  <SCORE.SYSTEM.DIHEDRAL>
0

>  <SCORE.SYSTEM.SOLV>
0

>  <SCORE.SYSTEM.norm>
0

>  <SCORE.heavy>
10

>  <SCORE.norm>
-1.26632

>  <RMSD>
2.391

$$$$
ligand
 OpenBabel11021811503D
libRbt.so/2013.1/901 2013/11/27
 10 11  0  0  0  0  0  0  0  0999 V2000
    3.6553  -20.6115   24.3498 N   0  0  0  0  0  0  0  0  0  0  0  0
    2.7979  -21.4271   23.7327 C   0  0  0  0  0  0  0  0  0  0  0  0
    1.5426  -21.7448   24.0725 N   0  0  0  0  0  0  0  0  0  0  0  0
    1.1913  -21.1221   25.2137 C   0  0  0  0  0  0  0  0  0  0  0  0
    1.9641  -20.2555   25.9631 C   0  0  0  0  0  0  0  0  0  0  0  0
    3.2663  -19.9939   25.4929 C   0  0  0  0  0  0  0  0  0  0  0  0
    4.1241  -19.1798   26.1288 N   0  0  0  0  0  0  0  0  0  0  0  0
    1.2697  -19.8015   27.0696 N   0  0  0  0  0  0  0  0  0  0  0  0
    0.1043  -20.3846   26.9714 C   0  0  0  0  0  0  0  0  0  0  0  0
   -0.0086  -21.2032   25.8791 N   0  0  0  0  0  0  0  0  0  0  0  0
  1  2  2  0  0  0  0
  1  6  1  0  0  0  0
  2  3  1  0  0  0  0
  3  4  2  0  0  0  0
  4  5  1  0  0  0  0
  4 10  1  0  0  0  0
  5  6  2  0  0  0  0
  5  8  1  0  0  0  0
  6  7  1  0  0  0  0
  8  9  1  0  0  0  0
  9 10  2  0  0  0  0
M  END
>  <CHROM.1>
2.00034667,-20.56745977,25.48832299,0.31339540,-0.35258747,-2.17524037

>  <Name>
ligand

>  <RI>
0

>  <Rbt.Current_Directory>
/home/itssahil/PROJECTS/Mol_Feturizer/New_Systems/rnas/4LW0

>  <Rbt.Executable>
rbdock ($Id: //depot/dev/client3/rdock/2013.1/src/exe/rbdock.cxx#4 $)

>  <Rbt.Library>
libRbt.so (2013.1, Build901 2013/11/27)

>  <Rbt.Parameter_File>
/export/apps/rDock/src/rDock_2013.1_src/data/scripts/dock_solv.prm

>  <Rbt.Receptor>
prm/pocket_docking_5.prm

>  <SCORE>
-12.6406

>  <SCORE.INTER>
-12.6406

>  <SCORE.INTER.CONST>
1

>  <SCORE.INTER.POLAR>
0

>  <SCORE.INTER.ROT>
0

>  <SCORE.INTER.SOLV>
3.98858

>  <SCORE.INTER.VDW>
-13.3566

>  <SCORE.INTER.norm>
-1.26406

>  <SCORE.INTRA>
0

>  <SCORE.INTRA.DIHEDRAL>
0

>  <SCORE.INTRA.DIHEDRAL.0>
0

>  <SCORE.INTRA.POLAR>
0

>  <SCORE.INTRA.POLAR.0>
0

>  <SCORE.INTRA.REPUL>
0

>  <SCORE.INTRA.REPUL.0>
0

>  <SCORE.INTRA.SOLV>
0

>  <SCORE.INTRA.SOLV.lig_0>
-23.9151

>  <SCORE.INTRA.VDW>
0

>  <SCORE.INTRA.VDW.0>
0

>  <SCORE.INTRA.norm>
0

>  <SCORE.RESTR>
0

>  <SCORE.RESTR.CAVITY>
0

>  <SCORE.RESTR.norm>
0

>  <SCORE.SYSTEM>
0

>  <SCORE.SYSTEM.CONST>
0

>  <SCORE.SYSTEM.DIHEDRAL>
0

>  <SCORE.SYSTEM.SOLV>
0

>  <SCORE.SYSTEM.norm>
0

>  <SCORE.heavy>
10

>  <SCORE.norm>
-1.26406

>  <RMSD>
2.391

$$$$
ligand
 OpenBabel11021811503D
libRbt.so/2013.1/901 2013/11/27
 10 11  0  0  0  0  0  0  0  0999 V2000
    3.6571  -20.6086   24.3495 N   0  0  0  0  0  0  0  0  0  0  0  0
    2.8034  -21.4245   23.7277 C   0  0  0  0  0  0  0  0  0  0  0  0
    1.5471  -21.7444   24.0619 N   0  0  0  0  0  0  0  0  0  0  0  0
    1.1903  -21.1237   25.2025 C   0  0  0  0  0  0  0  0  0  0  0  0
    1.9587  -20.2571   25.9563 C   0  0  0  0  0  0  0  0  0  0  0  0
    3.2626  -19.9931   25.4917 C   0  0  0  0  0  0  0  0  0  0  0  0
    4.1166  -19.1787   26.1323 N   0  0  0  0  0  0  0  0  0  0  0  0
    1.2592  -19.8055   27.0605 N   0  0  0  0  0  0  0  0  0  0  0  0
    0.0950  -20.3900   26.9566 C   0  0  0  0  0  0  0  0  0  0  0  0
   -0.0123  -21.2072   25.8628 N   0  0  0  0  0  0  0  0  0  0  0  0
  1  2  2  0  0  0  0
  1  6  1  0  0  0  0
  2  3  1  0  0  0  0
  3  4  2  0  0  0  0
  4  5  1  0  0  0  0
  4 10  1  0  0  0  0
  5  6  2  0  0  0  0
  5  8  1  0  0  0  0
  6  7  1  0  0  0  0
  8  9  1  0  0  0  0
  9 10  2  0  0  0  0
M  END
>  <CHROM.1>
1.99741898,-20.56833831,25.48118992,0.30896694,-0.35133733,-2.17541131

>  <Name>
ligand

>  <RI>
0

>  <Rbt.Current_Directory>
/home/itssahil/PROJECTS/Mol_Feturizer/New_Systems/rnas/4LW0

>  <Rbt.Executable>
rbdock ($Id: //depot/dev/client3/rdock/2013.1/src/exe/rbdock.cxx#4 $)

>  <Rbt.Library>
libRbt.so (2013.1, Build901 2013/11/27)

>  <Rbt.Parameter_File>
/export/apps/rDock/src/rDock_2013.1_src/data/scripts/dock_solv.prm

>  <Rbt.Receptor>
prm/pocket_docking_5.prm

>  <SCORE>
-12.6639

>  <SCORE.INTER>
-12.6639

>  <SCORE.INTER.CONST>
1

>  <SCORE.INTER.POLAR>
0

>  <SCORE.INTER.ROT>
0

>  <SCORE.INTER.SOLV>
4.02633

>  <SCORE.INTER.VDW>
-13.3847

>  <SCORE.INTER.norm>
-1.26639

>  <SCORE.INTRA>
0

>  <SCORE.INTRA.DIHEDRAL>
0

>  <SCORE.INTRA.DIHEDRAL.0>
0

>  <SCORE.INTRA.POLAR>
0

>  <SCORE.INTRA.POLAR.0>
0

>  <SCORE.INTRA.REPUL>
0

>  <SCORE.INTRA.REPUL.0>
0

>  <SCORE.INTRA.SOLV>
0

>  <SCORE.INTRA.SOLV.lig_0>
-23.9151

>  <SCORE.INTRA.VDW>
0

>  <SCORE.INTRA.VDW.0>
0

>  <SCORE.INTRA.norm>
0

>  <SCORE.RESTR>
0

>  <SCORE.RESTR.CAVITY>
0

>  <SCORE.RESTR.norm>
0

>  <SCORE.SYSTEM>
0

>  <SCORE.SYSTEM.CONST>
0

>  <SCORE.SYSTEM.DIHEDRAL>
0

>  <SCORE.SYSTEM.SOLV>
0

>  <SCORE.SYSTEM.norm>
0

>  <SCORE.heavy>
10

>  <SCORE.norm>
-1.26639

>  <RMSD>
2.391

$$$$
ligand
 OpenBabel11021811503D
libRbt.so/2013.1/901 2013/11/27
 10 11  0  0  0  0  0  0  0  0999 V2000
    3.6531  -20.5980   24.3604 N   0  0  0  0  0  0  0  0  0  0  0  0
    2.8046  -21.4171   23.7358 C   0  0  0  0  0  0  0  0  0  0  0  0
    1.5485  -21.7420   24.0659 N   0  0  0  0  0  0  0  0  0  0  0  0
    1.1856  -21.1229   25.2055 C   0  0  0  0  0  0  0  0  0  0  0  0
    1.9483  -20.2534   25.9618 C   0  0  0  0  0  0  0  0  0  0  0  0
    3.2525  -19.9842   25.5015 C   0  0  0  0  0  0  0  0  0  0  0  0
    4.1013  -19.1666   26.1449 N   0  0  0  0  0  0  0  0  0  0  0  0
    1.2434  -19.8048   27.0638 N   0  0  0  0  0  0  0  0  0  0  0  0
    0.0819  -20.3938   26.9562 C   0  0  0  0  0  0  0  0  0  0  0  0
   -0.0187  -21.2113   25.8618 N   0  0  0  0  0  0  0  0  0  0  0  0
  1  2  2  0  0  0  0
  1  6  1  0  0  0  0
  2  3  1  0  0  0  0
  3  4  2  0  0  0  0
  4  5  1  0  0  0  0
  4 10  1  0  0  0  0
  5  6  2  0  0  0  0
  5  8  1  0  0  0  0
  6  7  1  0  0  0  0
  8  9  1  0  0  0  0
  9 10  2  0  0  0  0
M  END
>  <CHROM.1>
1.98969550,-20.56442899,25.48681423,0.30378107,-0.35272557,-2.17702970

>  <Name>
ligand

>  <RI>
0

>  <Rbt.Current_Directory>
/home/itssahil/PROJECTS/Mol_Feturizer/New_Systems/rnas/4LW0

>  <Rbt.Executable>
rbdock ($Id: //depot/dev/client3/rdock/2013.1/src/exe/rbdock.cxx#4 $)

>  <Rbt.Library>
libRbt.so (2013.1, Build901 2013/11/27)

>  <Rbt.Parameter_File>
/export/apps/rDock/src/rDock_2013.1_src/data/scripts/dock_solv.prm

>  <Rbt.Receptor>
prm/pocket_docking_5.prm

>  <SCORE>
-12.6554

>  <SCORE.INTER>
-12.6554

>  <SCORE.INTER.CONST>
1

>  <SCORE.INTER.POLAR>
0

>  <SCORE.INTER.ROT>
0

>  <SCORE.INTER.SOLV>
4.1471

>  <SCORE.INTER.VDW>
-13.4193

>  <SCORE.INTER.norm>
-1.26554

>  <SCORE.INTRA>
0

>  <SCORE.INTRA.DIHEDRAL>
0

>  <SCORE.INTRA.DIHEDRAL.0>
0

>  <SCORE.INTRA.POLAR>
0

>  <SCORE.INTRA.POLAR.0>
0

>  <SCORE.INTRA.REPUL>
0

>  <SCORE.INTRA.REPUL.0>
0

>  <SCORE.INTRA.SOLV>
0

>  <SCORE.INTRA.SOLV.lig_0>
-23.9151

>  <SCORE.INTRA.VDW>
0

>  <SCORE.INTRA.VDW.0>
0

>  <SCORE.INTRA.norm>
0

>  <SCORE.RESTR>
0

>  <SCORE.RESTR.CAVITY>
0

>  <SCORE.RESTR.norm>
0

>  <SCORE.SYSTEM>
0

>  <SCORE.SYSTEM.CONST>
0

>  <SCORE.SYSTEM.DIHEDRAL>
0

>  <SCORE.SYSTEM.SOLV>
0

>  <SCORE.SYSTEM.norm>
0

>  <SCORE.heavy>
10

>  <SCORE.norm>
-1.26554

>  <RMSD>
2.391

$$$$
ligand
 OpenBabel11021811503D
libRbt.so/2013.1/901 2013/11/27
 10 11  0  0  0  0  0  0  0  0999 V2000
    3.6540  -20.6028   24.3361 N   0  0  0  0  0  0  0  0  0  0  0  0
    2.7997  -21.4209   23.7181 C   0  0  0  0  0  0  0  0  0  0  0  0
    1.5454  -21.7434   24.0574 N   0  0  0  0  0  0  0  0  0  0  0  0
    1.1918  -21.1230   25.1991 C   0  0  0  0  0  0  0  0  0  0  0  0
    1.9613  -20.2543   25.9494 C   0  0  0  0  0  0  0  0  0  0  0  0
    3.2626  -19.9876   25.4796 C   0  0  0  0  0  0  0  0  0  0  0  0
    4.1174  -19.1710   26.1164 N   0  0  0  0  0  0  0  0  0  0  0  0
    1.2651  -19.8038   27.0562 N   0  0  0  0  0  0  0  0  0  0  0  0
    0.1018  -20.3910   26.9572 C   0  0  0  0  0  0  0  0  0  0  0  0
   -0.0080  -21.2090   25.8642 N   0  0  0  0  0  0  0  0  0  0  0  0
  1  2  2  0  0  0  0
  1  6  1  0  0  0  0
  2  3  1  0  0  0  0
  3  4  2  0  0  0  0
  4  5  1  0  0  0  0
  4 10  1  0  0  0  0
  5  6  2  0  0  0  0
  5  8  1  0  0  0  0
  6  7  1  0  0  0  0
  8  9  1  0  0  0  0
  9 10  2  0  0  0  0
M  END
>  <CHROM.1>
1.99874353,-20.56572061,25.47435167,0.31107613,-0.35542861,-2.17513060

>  <Name>
ligand

>  <RI>
0

>  <Rbt.Current_Directory>
/home/itssahil/PROJECTS/Mol_Feturizer/New_Systems/rnas/4LW0

>  <Rbt.Executable>
rbdock ($Id: //depot/dev/client3/rdock/2013.1/src/exe/rbdock.cxx#4 $)

>  <Rbt.Library>
libRbt.so (2013.1, Build901 2013/11/27)

>  <Rbt.Parameter_File>
/export/apps/rDock/src/rDock_2013.1_src/data/scripts/dock_solv.prm

>  <Rbt.Receptor>
prm/pocket_docking_5.prm

>  <SCORE>
-12.6673

>  <SCORE.INTER>
-12.6673

>  <SCORE.INTER.CONST>
1

>  <SCORE.INTER.POLAR>
0

>  <SCORE.INTER.ROT>
0

>  <SCORE.INTER.SOLV>
4.00722

>  <SCORE.INTER.VDW>
-13.3806

>  <SCORE.INTER.norm>
-1.26673

>  <SCORE.INTRA>
0

>  <SCORE.INTRA.DIHEDRAL>
0

>  <SCORE.INTRA.DIHEDRAL.0>
0

>  <SCORE.INTRA.POLAR>
0

>  <SCORE.INTRA.POLAR.0>
0

>  <SCORE.INTRA.REPUL>
0

>  <SCORE.INTRA.REPUL.0>
0

>  <SCORE.INTRA.SOLV>
0

>  <SCORE.INTRA.SOLV.lig_0>
-23.9151

>  <SCORE.INTRA.VDW>
0

>  <SCORE.INTRA.VDW.0>
0

>  <SCORE.INTRA.norm>
0

>  <SCORE.RESTR>
0

>  <SCORE.RESTR.CAVITY>
0

>  <SCORE.RESTR.norm>
0

>  <SCORE.SYSTEM>
0

>  <SCORE.SYSTEM.CONST>
0

>  <SCORE.SYSTEM.DIHEDRAL>
0

>  <SCORE.SYSTEM.SOLV>
0

>  <SCORE.SYSTEM.norm>
0

>  <SCORE.heavy>
10

>  <SCORE.norm>
-1.26673

>  <RMSD>
2.391

$$$$
ligand
 OpenBabel11021811503D
libRbt.so/2013.1/901 2013/11/27
 10 11  0  0  0  0  0  0  0  0999 V2000
    3.6590  -20.6098   24.3659 N   0  0  0  0  0  0  0  0  0  0  0  0
    2.8068  -21.4228   23.7383 C   0  0  0  0  0  0  0  0  0  0  0  0
    1.5486  -21.7418   24.0663 N   0  0  0  0  0  0  0  0  0  0  0  0
    1.1878  -21.1236   25.2070 C   0  0  0  0  0  0  0  0  0  0  0  0
    1.9543  -20.2601   25.9664 C   0  0  0  0  0  0  0  0  0  0  0  0
    3.2604  -19.9967   25.5081 C   0  0  0  0  0  0  0  0  0  0  0  0
    4.1129  -19.1853   26.1545 N   0  0  0  0  0  0  0  0  0  0  0  0
    1.2506  -19.8104   27.0687 N   0  0  0  0  0  0  0  0  0  0  0  0
    0.0860  -20.3930   26.9584 C   0  0  0  0  0  0  0  0  0  0  0  0
   -0.0177  -21.2071   25.8619 N   0  0  0  0  0  0  0  0  0  0  0  0
  1  2  2  0  0  0  0
  1  6  1  0  0  0  0
  2  3  1  0  0  0  0
  3  4  2  0  0  0  0
  4  5  1  0  0  0  0
  4 10  1  0  0  0  0
  5  6  2  0  0  0  0
  5  8  1  0  0  0  0
  6  7  1  0  0  0  0
  8  9  1  0  0  0  0
  9 10  2  0  0  0  0
M  END
>  <CHROM.1>
1.99452413,-20.57014740,25.49061528,0.30607943,-0.34771131,-2.17374675

>  <Name>
ligand

>  <RI>
0

>  <Rbt.Current_Directory>
/home/itssahil/PROJECTS/Mol_Feturizer/New_Systems/rnas/4LW0

>  <Rbt.Executable>
rbdock ($Id: //depot/dev/client3/rdock/2013.1/src/exe/rbdock.cxx#4 $)

>  <Rbt.Library>
libRbt.so (2013.1, Build901 2013/11/27)

>  <Rbt.Parameter_File>
/export/apps/rDock/src/rDock_2013.1_src/data/scripts/dock_solv.prm

>  <Rbt.Receptor>
prm/pocket_docking_5.prm

>  <SCORE>
-12.6572

>  <SCORE.INTER>
-12.6572

>  <SCORE.INTER.CONST>
1

>  <SCORE.INTER.POLAR>
0

>  <SCORE.INTER.ROT>
0

>  <SCORE.INTER.SOLV>
4.07424

>  <SCORE.INTER.VDW>
-13.3962

>  <SCORE.INTER.norm>
-1.26572

>  <SCORE.INTRA>
0

>  <SCORE.INTRA.DIHEDRAL>
0

>  <SCORE.INTRA.DIHEDRAL.0>
0

>  <SCORE.INTRA.POLAR>
0

>  <SCORE.INTRA.POLAR.0>
0

>  <SCORE.INTRA.REPUL>
0

>  <SCORE.INTRA.REPUL.0>
0

>  <SCORE.INTRA.SOLV>
0

>  <SCORE.INTRA.SOLV.lig_0>
-23.9151

>  <SCORE.INTRA.VDW>
0

>  <SCORE.INTRA.VDW.0>
0

>  <SCORE.INTRA.norm>
0

>  <SCORE.RESTR>
0

>  <SCORE.RESTR.CAVITY>
0

>  <SCORE.RESTR.norm>
0

>  <SCORE.SYSTEM>
0

>  <SCORE.SYSTEM.CONST>
0

>  <SCORE.SYSTEM.DIHEDRAL>
0

>  <SCORE.SYSTEM.SOLV>
0

>  <SCORE.SYSTEM.norm>
0

>  <SCORE.heavy>
10

>  <SCORE.norm>
-1.26572

>  <RMSD>
2.391

$$$$
ligand
 OpenBabel11021811503D
libRbt.so/2013.1/901 2013/11/27
 10 11  0  0  0  0  0  0  0  0999 V2000
    3.6576  -20.6126   24.3561 N   0  0  0  0  0  0  0  0  0  0  0  0
    2.8014  -21.4262   23.7348 C   0  0  0  0  0  0  0  0  0  0  0  0
    1.5447  -21.7434   24.0702 N   0  0  0  0  0  0  0  0  0  0  0  0
    1.1906  -21.1225   25.2116 C   0  0  0  0  0  0  0  0  0  0  0  0
    1.9619  -20.2581   25.9650 C   0  0  0  0  0  0  0  0  0  0  0  0
    3.2658  -19.9968   25.4992 C   0  0  0  0  0  0  0  0  0  0  0  0
    4.1224  -19.1847   26.1393 N   0  0  0  0  0  0  0  0  0  0  0  0
    1.2646  -19.8056   27.0702 N   0  0  0  0  0  0  0  0  0  0  0  0
    0.0990  -20.3874   26.9674 C   0  0  0  0  0  0  0  0  0  0  0  0
   -0.0114  -21.2037   25.8732 N   0  0  0  0  0  0  0  0  0  0  0  0
  1  2  2  0  0  0  0
  1  6  1  0  0  0  0
  2  3  1  0  0  0  0
  3  4  2  0  0  0  0
  4  5  1  0  0  0  0
  4 10  1  0  0  0  0
  5  6  2  0  0  0  0
  5  8  1  0  0  0  0
  6  7  1  0  0  0  0
  8  9  1  0  0  0  0
  9 10  2  0  0  0  0
M  END
>  <CHROM.1>
1.99931969,-20.56917115,25.48971493,0.31132554,-0.35008979,-2.17402084

>  <Name>
ligand

>  <RI>
0

>  <Rbt.Current_Directory>
/home/itssahil/PROJECTS/Mol_Feturizer/New_Systems/rnas/4LW0

>  <Rbt.Executable>
rbdock ($Id: //depot/dev/client3/rdock/2013.1/src/exe/rbdock.cxx#4 $)

>  <Rbt.Library>
libRbt.so (2013.1, Build901 2013/11/27)

>  <Rbt.Parameter_File>
/export/apps/rDock/src/rDock_2013.1_src/data/scripts/dock_solv.prm

>  <Rbt.Receptor>
prm/pocket_docking_5.prm

>  <SCORE>
-12.6384

>  <SCORE.INTER>
-12.6384

>  <SCORE.INTER.CONST>
1

>  <SCORE.INTER.POLAR>
0

>  <SCORE.INTER.ROT>
0

>  <SCORE.INTER.SOLV>
4.00563

>  <SCORE.INTER.VDW>
-13.3608

>  <SCORE.INTER.norm>
-1.26384

>  <SCORE.INTRA>
0

>  <SCORE.INTRA.DIHEDRAL>
0

>  <SCORE.INTRA.DIHEDRAL.0>
0

>  <SCORE.INTRA.POLAR>
0

>  <SCORE.INTRA.POLAR.0>
0

>  <SCORE.INTRA.REPUL>
0

>  <SCORE.INTRA.REPUL.0>
0

>  <SCORE.INTRA.SOLV>
0

>  <SCORE.INTRA.SOLV.lig_0>
-23.9151

>  <SCORE.INTRA.VDW>
0

>  <SCORE.INTRA.VDW.0>
0

>  <SCORE.INTRA.norm>
0

>  <SCORE.RESTR>
0

>  <SCORE.RESTR.CAVITY>
0

>  <SCORE.RESTR.norm>
0

>  <SCORE.SYSTEM>
0

>  <SCORE.SYSTEM.CONST>
0

>  <SCORE.SYSTEM.DIHEDRAL>
0

>  <SCORE.SYSTEM.SOLV>
0

>  <SCORE.SYSTEM.norm>
0

>  <SCORE.heavy>
10

>  <SCORE.norm>
-1.26384

>  <RMSD>
2.391

$$$$
ligand
 OpenBabel11021811503D
libRbt.so/2013.1/901 2013/11/27
 10 11  0  0  0  0  0  0  0  0999 V2000
    3.6610  -20.6018   24.3625 N   0  0  0  0  0  0  0  0  0  0  0  0
    2.8025  -21.4131   23.7413 C   0  0  0  0  0  0  0  0  0  0  0  0
    1.5445  -21.7259   24.0762 N   0  0  0  0  0  0  0  0  0  0  0  0
    1.1918  -21.1028   25.2168 C   0  0  0  0  0  0  0  0  0  0  0  0
    1.9654  -20.2403   25.9699 C   0  0  0  0  0  0  0  0  0  0  0  0
    3.2704  -19.9837   25.5047 C   0  0  0  0  0  0  0  0  0  0  0  0
    4.1293  -19.1739   26.1446 N   0  0  0  0  0  0  0  0  0  0  0  0
    1.2689  -19.7845   27.0743 N   0  0  0  0  0  0  0  0  0  0  0  0
    0.1014  -20.3625   26.9712 C   0  0  0  0  0  0  0  0  0  0  0  0
   -0.0109  -21.1795   25.8777 N   0  0  0  0  0  0  0  0  0  0  0  0
  1  2  2  0  0  0  0
  1  6  1  0  0  0  0
  2  3  1  0  0  0  0
  3  4  2  0  0  0  0
  4  5  1  0  0  0  0
  4 10  1  0  0  0  0
  5  6  2  0  0  0  0
  5  8  1  0  0  0  0
  6  7  1  0  0  0  0
  8  9  1  0  0  0  0
  9 10  2  0  0  0  0
M  END
>  <CHROM.1>
2.00210702,-20.55191479,25.49494169,0.31275243,-0.34700966,-2.17442601

>  <Name>
ligand

>  <RI>
0

>  <Rbt.Current_Directory>
/home/itssahil/PROJECTS/Mol_Feturizer/New_Systems/rnas/4LW0

>  <Rbt.Executable>
rbdock ($Id: //depot/dev/client3/rdock/2013.1/src/exe/rbdock.cxx#4 $)

>  <Rbt.Library>
libRbt.so (2013.1, Build901 2013/11/27)

>  <Rbt.Parameter_File>
/export/apps/rDock/src/rDock_2013.1_src/data/scripts/dock_solv.prm

>  <Rbt.Receptor>
prm/pocket_docking_5.prm

>  <SCORE>
-12.6048

>  <SCORE.INTER>
-12.6048

>  <SCORE.INTER.CONST>
1

>  <SCORE.INTER.POLAR>
0

>  <SCORE.INTER.ROT>
0

>  <SCORE.INTER.SOLV>
4.04609

>  <SCORE.INTER.VDW>
-13.3519

>  <SCORE.INTER.norm>
-1.26048

>  <SCORE.INTRA>
0

>  <SCORE.INTRA.DIHEDRAL>
0

>  <SCORE.INTRA.DIHEDRAL.0>
0

>  <SCORE.INTRA.POLAR>
0

>  <SCORE.INTRA.POLAR.0>
0

>  <SCORE.INTRA.REPUL>
0

>  <SCORE.INTRA.REPUL.0>
0

>  <SCORE.INTRA.SOLV>
0

>  <SCORE.INTRA.SOLV.lig_0>
-23.9151

>  <SCORE.INTRA.VDW>
0

>  <SCORE.INTRA.VDW.0>
0

>  <SCORE.INTRA.norm>
0

>  <SCORE.RESTR>
0

>  <SCORE.RESTR.CAVITY>
0

>  <SCORE.RESTR.norm>
0

>  <SCORE.SYSTEM>
0

>  <SCORE.SYSTEM.CONST>
0

>  <SCORE.SYSTEM.DIHEDRAL>
0

>  <SCORE.SYSTEM.SOLV>
0

>  <SCORE.SYSTEM.norm>
0

>  <SCORE.heavy>
10

>  <SCORE.norm>
-1.26048

>  <RMSD>
2.391

$$$$
ligand
 OpenBabel11021811503D
libRbt.so/2013.1/901 2013/11/27
 10 11  0  0  0  0  0  0  0  0999 V2000
    3.6577  -20.6026   24.3474 N   0  0  0  0  0  0  0  0  0  0  0  0
    2.8052  -21.4202   23.7264 C   0  0  0  0  0  0  0  0  0  0  0  0
    1.5498  -21.7426   24.0616 N   0  0  0  0  0  0  0  0  0  0  0  0
    1.1927  -21.1226   25.2025 C   0  0  0  0  0  0  0  0  0  0  0  0
    1.9600  -20.2543   25.9556 C   0  0  0  0  0  0  0  0  0  0  0  0
    3.2629  -19.9877   25.4900 C   0  0  0  0  0  0  0  0  0  0  0  0
    4.1158  -19.1716   26.1298 N   0  0  0  0  0  0  0  0  0  0  0  0
    1.2605  -19.8042   27.0603 N   0  0  0  0  0  0  0  0  0  0  0  0
    0.0974  -20.3911   26.9575 C   0  0  0  0  0  0  0  0  0  0  0  0
   -0.0091  -21.2085   25.8638 N   0  0  0  0  0  0  0  0  0  0  0  0
  1  2  2  0  0  0  0
  1  6  1  0  0  0  0
  2  3  1  0  0  0  0
  3  4  2  0  0  0  0
  4  5  1  0  0  0  0
  4 10  1  0  0  0  0
  5  6  2  0  0  0  0
  5  8  1  0  0  0  0
  6  7  1  0  0  0  0
  8  9  1  0  0  0  0
  9 10  2  0  0  0  0
M  END
>  <CHROM.1>
1.99893087,-20.56557963,25.48050370,0.30845651,-0.35347312,-2.17564995

>  <Name>
ligand

>  <RI>
0

>  <Rbt.Current_Directory>
/home/itssahil/PROJECTS/Mol_Feturizer/New_Systems/rnas/4LW0

>  <Rbt.Executable>
rbdock ($Id: //depot/dev/client3/rdock/2013.1/src/exe/rbdock.cxx#4 $)

>  <Rbt.Library>
libRbt.so (2013.1, Build901 2013/11/27)

>  <Rbt.Parameter_File>
/export/apps/rDock/src/rDock_2013.1_src/data/scripts/dock_solv.prm

>  <Rbt.Receptor>
prm/pocket_docking_5.prm

>  <SCORE>
-12.6687

>  <SCORE.INTER>
-12.6687

>  <SCORE.INTER.CONST>
1

>  <SCORE.INTER.POLAR>
0

>  <SCORE.INTER.ROT>
0

>  <SCORE.INTER.SOLV>
4.04491

>  <SCORE.INTER.VDW>
-13.3941

>  <SCORE.INTER.norm>
-1.26687

>  <SCORE.INTRA>
0

>  <SCORE.INTRA.DIHEDRAL>
0

>  <SCORE.INTRA.DIHEDRAL.0>
0

>  <SCORE.INTRA.POLAR>
0

>  <SCORE.INTRA.POLAR.0>
0

>  <SCORE.INTRA.REPUL>
0

>  <SCORE.INTRA.REPUL.0>
0

>  <SCORE.INTRA.SOLV>
0

>  <SCORE.INTRA.SOLV.lig_0>
-23.9151

>  <SCORE.INTRA.VDW>
0

>  <SCORE.INTRA.VDW.0>
0

>  <SCORE.INTRA.norm>
0

>  <SCORE.RESTR>
0

>  <SCORE.RESTR.CAVITY>
0

>  <SCORE.RESTR.norm>
0

>  <SCORE.SYSTEM>
0

>  <SCORE.SYSTEM.CONST>
0

>  <SCORE.SYSTEM.DIHEDRAL>
0

>  <SCORE.SYSTEM.SOLV>
0

>  <SCORE.SYSTEM.norm>
0

>  <SCORE.heavy>
10

>  <SCORE.norm>
-1.26687

>  <RMSD>
2.391

$$$$
ligand
 OpenBabel11021811503D
libRbt.so/2013.1/901 2013/11/27
 10 11  0  0  0  0  0  0  0  0999 V2000
    3.6558  -20.6033   24.3889 N   0  0  0  0  0  0  0  0  0  0  0  0
    2.8010  -21.4110   23.7580 C   0  0  0  0  0  0  0  0  0  0  0  0
    1.5416  -21.7269   24.0844 N   0  0  0  0  0  0  0  0  0  0  0  0
    1.1827  -21.1118   25.2274 C   0  0  0  0  0  0  0  0  0  0  0  0
    1.9519  -20.2539   25.9902 C   0  0  0  0  0  0  0  0  0  0  0  0
    3.2591  -19.9933   25.5333 C   0  0  0  0  0  0  0  0  0  0  0  0
    4.1141  -19.1872   26.1830 N   0  0  0  0  0  0  0  0  0  0  0  0
    1.2495  -19.8060   27.0941 N   0  0  0  0  0  0  0  0  0  0  0  0
    0.0830  -20.3842   26.9813 C   0  0  0  0  0  0  0  0  0  0  0  0
   -0.0233  -21.1938   25.8817 N   0  0  0  0  0  0  0  0  0  0  0  0
  1  2  2  0  0  0  0
  1  6  1  0  0  0  0
  2  3  1  0  0  0  0
  3  4  2  0  0  0  0
  4  5  1  0  0  0  0
  4 10  1  0  0  0  0
  5  6  2  0  0  0  0
  5  8  1  0  0  0  0
  6  7  1  0  0  0  0
  8  9  1  0  0  0  0
  9 10  2  0  0  0  0
M  END
>  <CHROM.1>
1.99120854,-20.56226182,25.51333764,0.30791151,-0.34475243,-2.16930780

>  <Name>
ligand

>  <RI>
0

>  <Rbt.Current_Directory>
/home/itssahil/PROJECTS/Mol_Feturizer/New_Systems/rnas/4LW0

>  <Rbt.Executable>
rbdock ($Id: //depot/dev/client3/rdock/2013.1/src/exe/rbdock.cxx#4 $)

>  <Rbt.Library>
libRbt.so (2013.1, Build901 2013/11/27)

>  <Rbt.Parameter_File>
/export/apps/rDock/src/rDock_2013.1_src/data/scripts/dock_solv.prm

>  <Rbt.Receptor>
prm/pocket_docking_6.prm

>  <SCORE>
-12.5929

>  <SCORE.INTER>
-12.5929

>  <SCORE.INTER.CONST>
1

>  <SCORE.INTER.POLAR>
0

>  <SCORE.INTER.ROT>
0

>  <SCORE.INTER.SOLV>
4.14286

>  <SCORE.INTER.VDW>
-13.3762

>  <SCORE.INTER.norm>
-1.25929

>  <SCORE.INTRA>
0

>  <SCORE.INTRA.DIHEDRAL>
0

>  <SCORE.INTRA.DIHEDRAL.0>
0

>  <SCORE.INTRA.POLAR>
0

>  <SCORE.INTRA.POLAR.0>
0

>  <SCORE.INTRA.REPUL>
0

>  <SCORE.INTRA.REPUL.0>
0

>  <SCORE.INTRA.SOLV>
0

>  <SCORE.INTRA.SOLV.lig_0>
-23.9151

>  <SCORE.INTRA.VDW>
0

>  <SCORE.INTRA.VDW.0>
0

>  <SCORE.INTRA.norm>
0

>  <SCORE.RESTR>
0

>  <SCORE.RESTR.CAVITY>
0

>  <SCORE.RESTR.norm>
0

>  <SCORE.SYSTEM>
0

>  <SCORE.SYSTEM.CONST>
0

>  <SCORE.SYSTEM.DIHEDRAL>
0

>  <SCORE.SYSTEM.SOLV>
0

>  <SCORE.SYSTEM.norm>
0

>  <SCORE.heavy>
10

>  <SCORE.norm>
-1.25929

>  <RMSD>
2.391

$$$$
ligand
 OpenBabel11021811503D
libRbt.so/2013.1/901 2013/11/27
 10 11  0  0  0  0  0  0  0  0999 V2000
    3.6571  -20.6052   24.3857 N   0  0  0  0  0  0  0  0  0  0  0  0
    2.8014  -21.4134   23.7566 C   0  0  0  0  0  0  0  0  0  0  0  0
    1.5425  -21.7290   24.0851 N   0  0  0  0  0  0  0  0  0  0  0  0
    1.1852  -21.1132   25.2281 C   0  0  0  0  0  0  0  0  0  0  0  0
    1.9555  -20.2546   25.9892 C   0  0  0  0  0  0  0  0  0  0  0  0
    3.2620  -19.9943   25.5303 C   0  0  0  0  0  0  0  0  0  0  0  0
    4.1180  -19.1878   26.1781 N   0  0  0  0  0  0  0  0  0  0  0  0
    1.2547  -19.8060   27.0938 N   0  0  0  0  0  0  0  0  0  0  0  0
    0.0880  -20.3843   26.9831 C   0  0  0  0  0  0  0  0  0  0  0  0
   -0.0198  -21.1947   25.8842 N   0  0  0  0  0  0  0  0  0  0  0  0
  1  2  2  0  0  0  0
  1  6  1  0  0  0  0
  2  3  1  0  0  0  0
  3  4  2  0  0  0  0
  4  5  1  0  0  0  0
  4 10  1  0  0  0  0
  5  6  2  0  0  0  0
  5  8  1  0  0  0  0
  6  7  1  0  0  0  0
  8  9  1  0  0  0  0
  9 10  2  0  0  0  0
M  END
>  <CHROM.1>
1.99413788,-20.56335923,25.51250114,0.30915742,-0.34557939,-2.16960504

>  <Name>
ligand

>  <RI>
0

>  <Rbt.Current_Directory>
/home/itssahil/PROJECTS/Mol_Feturizer/New_Systems/rnas/4LW0

>  <Rbt.Executable>
rbdock ($Id: //depot/dev/client3/rdock/2013.1/src/exe/rbdock.cxx#4 $)

>  <Rbt.Library>
libRbt.so (2013.1, Build901 2013/11/27)

>  <Rbt.Parameter_File>
/export/apps/rDock/src/rDock_2013.1_src/data/scripts/dock_solv.prm

>  <Rbt.Receptor>
prm/pocket_docking_6.prm

>  <SCORE>
-12.5948

>  <SCORE.INTER>
-12.5948

>  <SCORE.INTER.CONST>
1

>  <SCORE.INTER.POLAR>
0

>  <SCORE.INTER.ROT>
0

>  <SCORE.INTER.SOLV>
4.11485

>  <SCORE.INTER.VDW>
-13.3682

>  <SCORE.INTER.norm>
-1.25948

>  <SCORE.INTRA>
0

>  <SCORE.INTRA.DIHEDRAL>
0

>  <SCORE.INTRA.DIHEDRAL.0>
0

>  <SCORE.INTRA.POLAR>
0

>  <SCORE.INTRA.POLAR.0>
0

>  <SCORE.INTRA.REPUL>
0

>  <SCORE.INTRA.REPUL.0>
0

>  <SCORE.INTRA.SOLV>
0

>  <SCORE.INTRA.SOLV.lig_0>
-23.9151

>  <SCORE.INTRA.VDW>
0

>  <SCORE.INTRA.VDW.0>
0

>  <SCORE.INTRA.norm>
0

>  <SCORE.RESTR>
0

>  <SCORE.RESTR.CAVITY>
0

>  <SCORE.RESTR.norm>
0

>  <SCORE.SYSTEM>
0

>  <SCORE.SYSTEM.CONST>
0

>  <SCORE.SYSTEM.DIHEDRAL>
0

>  <SCORE.SYSTEM.SOLV>
0

>  <SCORE.SYSTEM.norm>
0

>  <SCORE.heavy>
10

>  <SCORE.norm>
-1.25948

>  <RMSD>
2.391

$$$$
ligand
 OpenBabel11021811503D
libRbt.so/2013.1/901 2013/11/27
 10 11  0  0  0  0  0  0  0  0999 V2000
    3.6446  -20.6190   24.3418 N   0  0  0  0  0  0  0  0  0  0  0  0
    2.7842  -21.4346   23.7289 C   0  0  0  0  0  0  0  0  0  0  0  0
    1.5288  -21.7484   24.0722 N   0  0  0  0  0  0  0  0  0  0  0  0
    1.1813  -21.1214   25.2122 C   0  0  0  0  0  0  0  0  0  0  0  0
    1.9574  -20.2542   25.9574 C   0  0  0  0  0  0  0  0  0  0  0  0
    3.2593  -19.9970   25.4837 C   0  0  0  0  0  0  0  0  0  0  0  0
    4.1202  -19.1828   26.1154 N   0  0  0  0  0  0  0  0  0  0  0  0
    1.2663  -19.7952   27.0638 N   0  0  0  0  0  0  0  0  0  0  0  0
    0.0994  -20.3760   26.9697 C   0  0  0  0  0  0  0  0  0  0  0  0
   -0.0175  -21.1977   25.8802 N   0  0  0  0  0  0  0  0  0  0  0  0
  1  2  2  0  0  0  0
  1  6  1  0  0  0  0
  2  3  1  0  0  0  0
  3  4  2  0  0  0  0
  4  5  1  0  0  0  0
  4 10  1  0  0  0  0
  5  6  2  0  0  0  0
  5  8  1  0  0  0  0
  6  7  1  0  0  0  0
  8  9  1  0  0  0  0
  9 10  2  0  0  0  0
M  END
>  <CHROM.1>
1.99208516,-20.56772191,25.48345154,0.31650176,-0.35186620,-2.17728130

>  <Name>
ligand

>  <RI>
0

>  <Rbt.Current_Directory>
/home/itssahil/PROJECTS/Mol_Feturizer/New_Systems/rnas/4LW0

>  <Rbt.Executable>
rbdock ($Id: //depot/dev/client3/rdock/2013.1/src/exe/rbdock.cxx#4 $)

>  <Rbt.Library>
libRbt.so (2013.1, Build901 2013/11/27)

>  <Rbt.Parameter_File>
/export/apps/rDock/src/rDock_2013.1_src/data/scripts/dock_solv.prm

>  <Rbt.Receptor>
prm/pocket_docking_6.prm

>  <SCORE>
-12.6307

>  <SCORE.INTER>
-12.6307

>  <SCORE.INTER.CONST>
1

>  <SCORE.INTER.POLAR>
0

>  <SCORE.INTER.ROT>
0

>  <SCORE.INTER.SOLV>
3.95888

>  <SCORE.INTER.VDW>
-13.3401

>  <SCORE.INTER.norm>
-1.26307

>  <SCORE.INTRA>
0

>  <SCORE.INTRA.DIHEDRAL>
0

>  <SCORE.INTRA.DIHEDRAL.0>
0

>  <SCORE.INTRA.POLAR>
0

>  <SCORE.INTRA.POLAR.0>
0

>  <SCORE.INTRA.REPUL>
0

>  <SCORE.INTRA.REPUL.0>
0

>  <SCORE.INTRA.SOLV>
0

>  <SCORE.INTRA.SOLV.lig_0>
-23.9151

>  <SCORE.INTRA.VDW>
0

>  <SCORE.INTRA.VDW.0>
0

>  <SCORE.INTRA.norm>
0

>  <SCORE.RESTR>
0

>  <SCORE.RESTR.CAVITY>
0

>  <SCORE.RESTR.norm>
0

>  <SCORE.SYSTEM>
0

>  <SCORE.SYSTEM.CONST>
0

>  <SCORE.SYSTEM.DIHEDRAL>
0

>  <SCORE.SYSTEM.SOLV>
0

>  <SCORE.SYSTEM.norm>
0

>  <SCORE.heavy>
10

>  <SCORE.norm>
-1.26307

>  <RMSD>
2.391

$$$$
ligand
 OpenBabel11021811503D
libRbt.so/2013.1/901 2013/11/27
 10 11  0  0  0  0  0  0  0  0999 V2000
    3.6364  -20.6230   24.3850 N   0  0  0  0  0  0  0  0  0  0  0  0
    2.7789  -21.4387   23.7683 C   0  0  0  0  0  0  0  0  0  0  0  0
    1.5193  -21.7466   24.1016 N   0  0  0  0  0  0  0  0  0  0  0  0
    1.1634  -21.1125   25.2352 C   0  0  0  0  0  0  0  0  0  0  0  0
    1.9356  -20.2441   25.9830 C   0  0  0  0  0  0  0  0  0  0  0  0
    3.2427  -19.9938   25.5201 C   0  0  0  0  0  0  0  0  0  0  0  0
    4.1005  -19.1793   26.1555 N   0  0  0  0  0  0  0  0  0  0  0  0
    1.2359  -19.7771   27.0806 N   0  0  0  0  0  0  0  0  0  0  0  0
    0.0680  -20.3544   26.9788 C   0  0  0  0  0  0  0  0  0  0  0  0
   -0.0417  -21.1813   25.8924 N   0  0  0  0  0  0  0  0  0  0  0  0
  1  2  2  0  0  0  0
  1  6  1  0  0  0  0
  2  3  1  0  0  0  0
  3  4  2  0  0  0  0
  4  5  1  0  0  0  0
  4 10  1  0  0  0  0
  5  6  2  0  0  0  0
  5  8  1  0  0  0  0
  6  7  1  0  0  0  0
  8  9  1  0  0  0  0
  9 10  2  0  0  0  0
M  END
>  <CHROM.1>
1.97357602,-20.56020289,25.51103607,0.31055158,-0.34378906,-2.18442639

>  <Name>
ligand

>  <RI>
0

>  <Rbt.Current_Directory>
/home/itssahil/PROJECTS/Mol_Feturizer/New_Systems/rnas/4LW0

>  <Rbt.Executable>
rbdock ($Id: //depot/dev/client3/rdock/2013.1/src/exe/rbdock.cxx#4 $)

>  <Rbt.Library>
libRbt.so (2013.1, Build901 2013/11/27)

>  <Rbt.Parameter_File>
/export/apps/rDock/src/rDock_2013.1_src/data/scripts/dock_solv.prm

>  <Rbt.Receptor>
prm/pocket_docking_6.prm

>  <SCORE>
-12.5676

>  <SCORE.INTER>
-12.5676

>  <SCORE.INTER.CONST>
1

>  <SCORE.INTER.POLAR>
0

>  <SCORE.INTER.ROT>
0

>  <SCORE.INTER.SOLV>
4.14829

>  <SCORE.INTER.VDW>
-13.3611

>  <SCORE.INTER.norm>
-1.25676

>  <SCORE.INTRA>
0

>  <SCORE.INTRA.DIHEDRAL>
0

>  <SCORE.INTRA.DIHEDRAL.0>
0

>  <SCORE.INTRA.POLAR>
0

>  <SCORE.INTRA.POLAR.0>
0

>  <SCORE.INTRA.REPUL>
0

>  <SCORE.INTRA.REPUL.0>
0

>  <SCORE.INTRA.SOLV>
0

>  <SCORE.INTRA.SOLV.lig_0>
-23.9151

>  <SCORE.INTRA.VDW>
0

>  <SCORE.INTRA.VDW.0>
0

>  <SCORE.INTRA.norm>
0

>  <SCORE.RESTR>
0

>  <SCORE.RESTR.CAVITY>
0

>  <SCORE.RESTR.norm>
0

>  <SCORE.SYSTEM>
0

>  <SCORE.SYSTEM.CONST>
0

>  <SCORE.SYSTEM.DIHEDRAL>
0

>  <SCORE.SYSTEM.SOLV>
0

>  <SCORE.SYSTEM.norm>
0

>  <SCORE.heavy>
10

>  <SCORE.norm>
-1.25676

>  <RMSD>
2.391

$$$$
ligand
 OpenBabel11021811503D
libRbt.so/2013.1/901 2013/11/27
 10 11  0  0  0  0  0  0  0  0999 V2000
    3.6580  -20.6068   24.4102 N   0  0  0  0  0  0  0  0  0  0  0  0
    2.8047  -21.4111   23.7730 C   0  0  0  0  0  0  0  0  0  0  0  0
    1.5426  -21.7241   24.0915 N   0  0  0  0  0  0  0  0  0  0  0  0
    1.1786  -21.1099   25.2334 C   0  0  0  0  0  0  0  0  0  0  0  0
    1.9456  -20.2552   26.0021 C   0  0  0  0  0  0  0  0  0  0  0  0
    3.2562  -19.9975   25.5533 C   0  0  0  0  0  0  0  0  0  0  0  0
    4.1096  -19.1948   26.2093 N   0  0  0  0  0  0  0  0  0  0  0  0
    1.2380  -19.8073   27.1026 N   0  0  0  0  0  0  0  0  0  0  0  0
    0.0705  -20.3821   26.9819 C   0  0  0  0  0  0  0  0  0  0  0  0
   -0.0314  -21.1896   25.8804 N   0  0  0  0  0  0  0  0  0  0  0  0
  1  2  2  0  0  0  0
  1  6  1  0  0  0  0
  2  3  1  0  0  0  0
  3  4  2  0  0  0  0
  4  5  1  0  0  0  0
  4 10  1  0  0  0  0
  5  6  2  0  0  0  0
  5  8  1  0  0  0  0
  6  7  1  0  0  0  0
  8  9  1  0  0  0  0
  9 10  2  0  0  0  0
M  END
>  <CHROM.1>
1.98689937,-20.56297595,25.52491249,0.30437838,-0.33917905,-2.16886906

>  <Name>
ligand

>  <RI>
0

>  <Rbt.Current_Directory>
/home/itssahil/PROJECTS/Mol_Feturizer/New_Systems/rnas/4LW0

>  <Rbt.Executable>
rbdock ($Id: //depot/dev/client3/rdock/2013.1/src/exe/rbdock.cxx#4 $)

>  <Rbt.Library>
libRbt.so (2013.1, Build901 2013/11/27)

>  <Rbt.Parameter_File>
/export/apps/rDock/src/rDock_2013.1_src/data/scripts/dock_solv.prm

>  <Rbt.Receptor>
prm/pocket_docking_6.prm

>  <SCORE>
-12.5779

>  <SCORE.INTER>
-12.5779

>  <SCORE.INTER.CONST>
1

>  <SCORE.INTER.POLAR>
0

>  <SCORE.INTER.ROT>
0

>  <SCORE.INTER.SOLV>
4.20165

>  <SCORE.INTER.VDW>
-13.3858

>  <SCORE.INTER.norm>
-1.25779

>  <SCORE.INTRA>
0

>  <SCORE.INTRA.DIHEDRAL>
0

>  <SCORE.INTRA.DIHEDRAL.0>
0

>  <SCORE.INTRA.POLAR>
0

>  <SCORE.INTRA.POLAR.0>
0

>  <SCORE.INTRA.REPUL>
0

>  <SCORE.INTRA.REPUL.0>
0

>  <SCORE.INTRA.SOLV>
0

>  <SCORE.INTRA.SOLV.lig_0>
-23.9151

>  <SCORE.INTRA.VDW>
0

>  <SCORE.INTRA.VDW.0>
0

>  <SCORE.INTRA.norm>
0

>  <SCORE.RESTR>
0

>  <SCORE.RESTR.CAVITY>
0

>  <SCORE.RESTR.norm>
0

>  <SCORE.SYSTEM>
0

>  <SCORE.SYSTEM.CONST>
0

>  <SCORE.SYSTEM.DIHEDRAL>
0

>  <SCORE.SYSTEM.SOLV>
0

>  <SCORE.SYSTEM.norm>
0

>  <SCORE.heavy>
10

>  <SCORE.norm>
-1.25779

>  <RMSD>
2.391

$$$$
ligand
 OpenBabel11021811503D
libRbt.so/2013.1/901 2013/11/27
 10 11  0  0  0  0  0  0  0  0999 V2000
    3.6504  -20.6163   24.3481 N   0  0  0  0  0  0  0  0  0  0  0  0
    2.7919  -21.4330   23.7341 C   0  0  0  0  0  0  0  0  0  0  0  0
    1.5365  -21.7485   24.0758 N   0  0  0  0  0  0  0  0  0  0  0  0
    1.1866  -21.1219   25.2153 C   0  0  0  0  0  0  0  0  0  0  0  0
    1.9606  -20.2536   25.9614 C   0  0  0  0  0  0  0  0  0  0  0  0
    3.2628  -19.9947   25.4895 C   0  0  0  0  0  0  0  0  0  0  0  0
    4.1218  -19.1794   26.1222 N   0  0  0  0  0  0  0  0  0  0  0  0
    1.2675  -19.7955   27.0669 N   0  0  0  0  0  0  0  0  0  0  0  0
    0.1014  -20.3779   26.9714 C   0  0  0  0  0  0  0  0  0  0  0  0
   -0.0129  -21.1997   25.8817 N   0  0  0  0  0  0  0  0  0  0  0  0
  1  2  2  0  0  0  0
  1  6  1  0  0  0  0
  2  3  1  0  0  0  0
  3  4  2  0  0  0  0
  4  5  1  0  0  0  0
  4 10  1  0  0  0  0
  5  6  2  0  0  0  0
  5  8  1  0  0  0  0
  6  7  1  0  0  0  0
  8  9  1  0  0  0  0
  9 10  2  0  0  0  0
M  END
>  <CHROM.1>
1.99631318,-20.56712420,25.48759062,0.31455765,-0.35222445,-2.17799115

>  <Name>
ligand

>  <RI>
0

>  <Rbt.Current_Directory>
/home/itssahil/PROJECTS/Mol_Feturizer/New_Systems/rnas/4LW0

>  <Rbt.Executable>
rbdock ($Id: //depot/dev/client3/rdock/2013.1/src/exe/rbdock.cxx#4 $)

>  <Rbt.Library>
libRbt.so (2013.1, Build901 2013/11/27)

>  <Rbt.Parameter_File>
/export/apps/rDock/src/rDock_2013.1_src/data/scripts/dock_solv.prm

>  <Rbt.Receptor>
prm/pocket_docking_6.prm

>  <SCORE>
-12.6363

>  <SCORE.INTER>
-12.6363

>  <SCORE.INTER.CONST>
1

>  <SCORE.INTER.POLAR>
0

>  <SCORE.INTER.ROT>
0

>  <SCORE.INTER.SOLV>
3.98121

>  <SCORE.INTER.VDW>
-13.3513

>  <SCORE.INTER.norm>
-1.26363

>  <SCORE.INTRA>
0

>  <SCORE.INTRA.DIHEDRAL>
0

>  <SCORE.INTRA.DIHEDRAL.0>
0

>  <SCORE.INTRA.POLAR>
0

>  <SCORE.INTRA.POLAR.0>
0

>  <SCORE.INTRA.REPUL>
0

>  <SCORE.INTRA.REPUL.0>
0

>  <SCORE.INTRA.SOLV>
0

>  <SCORE.INTRA.SOLV.lig_0>
-23.9151

>  <SCORE.INTRA.VDW>
0

>  <SCORE.INTRA.VDW.0>
0

>  <SCORE.INTRA.norm>
0

>  <SCORE.RESTR>
0

>  <SCORE.RESTR.CAVITY>
0

>  <SCORE.RESTR.norm>
0

>  <SCORE.SYSTEM>
0

>  <SCORE.SYSTEM.CONST>
0

>  <SCORE.SYSTEM.DIHEDRAL>
0

>  <SCORE.SYSTEM.SOLV>
0

>  <SCORE.SYSTEM.norm>
0

>  <SCORE.heavy>
10

>  <SCORE.norm>
-1.26363

>  <RMSD>
2.391

$$$$
ligand
 OpenBabel11021811503D
libRbt.so/2013.1/901 2013/11/27
 10 11  0  0  0  0  0  0  0  0999 V2000
    3.6550  -20.6002   24.3916 N   0  0  0  0  0  0  0  0  0  0  0  0
    2.7979  -21.4058   23.7613 C   0  0  0  0  0  0  0  0  0  0  0  0
    1.5392  -21.7216   24.0904 N   0  0  0  0  0  0  0  0  0  0  0  0
    1.1838  -21.1088   25.2358 C   0  0  0  0  0  0  0  0  0  0  0  0
    1.9557  -20.2531   25.9984 C   0  0  0  0  0  0  0  0  0  0  0  0
    3.2618  -19.9924   25.5385 C   0  0  0  0  0  0  0  0  0  0  0  0
    4.1193  -19.1884   26.1877 N   0  0  0  0  0  0  0  0  0  0  0  0
    1.2567  -19.8073   27.1052 N   0  0  0  0  0  0  0  0  0  0  0  0
    0.0894  -20.3843   26.9942 C   0  0  0  0  0  0  0  0  0  0  0  0
   -0.0204  -21.1914   25.8931 N   0  0  0  0  0  0  0  0  0  0  0  0
  1  2  2  0  0  0  0
  1  6  1  0  0  0  0
  2  3  1  0  0  0  0
  3  4  2  0  0  0  0
  4  5  1  0  0  0  0
  4 10  1  0  0  0  0
  5  6  2  0  0  0  0
  5  8  1  0  0  0  0
  6  7  1  0  0  0  0
  8  9  1  0  0  0  0
  9 10  2  0  0  0  0
M  END
>  <CHROM.1>
1.99351693,-20.56046098,25.52068682,0.31074140,-0.34569189,-2.16609958

>  <Name>
ligand

>  <RI>
0

>  <Rbt.Current_Directory>
/home/itssahil/PROJECTS/Mol_Feturizer/New_Systems/rnas/4LW0

>  <Rbt.Executable>
rbdock ($Id: //depot/dev/client3/rdock/2013.1/src/exe/rbdock.cxx#4 $)

>  <Rbt.Library>
libRbt.so (2013.1, Build901 2013/11/27)

>  <Rbt.Parameter_File>
/export/apps/rDock/src/rDock_2013.1_src/data/scripts/dock_solv.prm

>  <Rbt.Receptor>
prm/pocket_docking_6.prm

>  <SCORE>
-12.5875

>  <SCORE.INTER>
-12.5875

>  <SCORE.INTER.CONST>
1

>  <SCORE.INTER.POLAR>
0

>  <SCORE.INTER.ROT>
0

>  <SCORE.INTER.SOLV>
4.13535

>  <SCORE.INTER.VDW>
-13.3701

>  <SCORE.INTER.norm>
-1.25875

>  <SCORE.INTRA>
0

>  <SCORE.INTRA.DIHEDRAL>
0

>  <SCORE.INTRA.DIHEDRAL.0>
0

>  <SCORE.INTRA.POLAR>
0

>  <SCORE.INTRA.POLAR.0>
0

>  <SCORE.INTRA.REPUL>
0

>  <SCORE.INTRA.REPUL.0>
0

>  <SCORE.INTRA.SOLV>
0

>  <SCORE.INTRA.SOLV.lig_0>
-23.9151

>  <SCORE.INTRA.VDW>
0

>  <SCORE.INTRA.VDW.0>
0

>  <SCORE.INTRA.norm>
0

>  <SCORE.RESTR>
0

>  <SCORE.RESTR.CAVITY>
0

>  <SCORE.RESTR.norm>
0

>  <SCORE.SYSTEM>
0

>  <SCORE.SYSTEM.CONST>
0

>  <SCORE.SYSTEM.DIHEDRAL>
0

>  <SCORE.SYSTEM.SOLV>
0

>  <SCORE.SYSTEM.norm>
0

>  <SCORE.heavy>
10

>  <SCORE.norm>
-1.25875

>  <RMSD>
2.391

$$$$
ligand
 OpenBabel11021811503D
libRbt.so/2013.1/901 2013/11/27
 10 11  0  0  0  0  0  0  0  0999 V2000
    3.6453  -20.5925   24.3243 N   0  0  0  0  0  0  0  0  0  0  0  0
    2.7944  -21.4179   23.7114 C   0  0  0  0  0  0  0  0  0  0  0  0
    1.5421  -21.7448   24.0536 N   0  0  0  0  0  0  0  0  0  0  0  0
    1.1866  -21.1203   25.1926 C   0  0  0  0  0  0  0  0  0  0  0  0
    1.9526  -20.2441   25.9377 C   0  0  0  0  0  0  0  0  0  0  0  0
    3.2521  -19.9734   25.4651 C   0  0  0  0  0  0  0  0  0  0  0  0
    4.1035  -19.1494   26.0969 N   0  0  0  0  0  0  0  0  0  0  0  0
    1.2553  -19.7914   27.0428 N   0  0  0  0  0  0  0  0  0  0  0  0
    0.0948  -20.3848   26.9481 C   0  0  0  0  0  0  0  0  0  0  0  0
   -0.0120  -21.2088   25.8594 N   0  0  0  0  0  0  0  0  0  0  0  0
  1  2  2  0  0  0  0
  1  6  1  0  0  0  0
  2  3  1  0  0  0  0
  3  4  2  0  0  0  0
  4  5  1  0  0  0  0
  4 10  1  0  0  0  0
  5  6  2  0  0  0  0
  5  8  1  0  0  0  0
  6  7  1  0  0  0  0
  8  9  1  0  0  0  0
  9 10  2  0  0  0  0
M  END
>  <CHROM.1>
1.99108820,-20.55772052,25.46412145,0.30901289,-0.36005956,-2.18094245

>  <Name>
ligand

>  <RI>
0

>  <Rbt.Current_Directory>
/home/itssahil/PROJECTS/Mol_Feturizer/New_Systems/rnas/4LW0

>  <Rbt.Executable>
rbdock ($Id: //depot/dev/client3/rdock/2013.1/src/exe/rbdock.cxx#4 $)

>  <Rbt.Library>
libRbt.so (2013.1, Build901 2013/11/27)

>  <Rbt.Parameter_File>
/export/apps/rDock/src/rDock_2013.1_src/data/scripts/dock_solv.prm

>  <Rbt.Receptor>
prm/pocket_docking_6.prm

>  <SCORE>
-12.6268

>  <SCORE.INTER>
-12.6268

>  <SCORE.INTER.CONST>
1

>  <SCORE.INTER.POLAR>
0

>  <SCORE.INTER.ROT>
0

>  <SCORE.INTER.SOLV>
4.07964

>  <SCORE.INTER.VDW>
-13.3778

>  <SCORE.INTER.norm>
-1.26268

>  <SCORE.INTRA>
0

>  <SCORE.INTRA.DIHEDRAL>
0

>  <SCORE.INTRA.DIHEDRAL.0>
0

>  <SCORE.INTRA.POLAR>
0

>  <SCORE.INTRA.POLAR.0>
0

>  <SCORE.INTRA.REPUL>
0

>  <SCORE.INTRA.REPUL.0>
0

>  <SCORE.INTRA.SOLV>
0

>  <SCORE.INTRA.SOLV.lig_0>
-23.9151

>  <SCORE.INTRA.VDW>
0

>  <SCORE.INTRA.VDW.0>
0

>  <SCORE.INTRA.norm>
0

>  <SCORE.RESTR>
0

>  <SCORE.RESTR.CAVITY>
0

>  <SCORE.RESTR.norm>
0

>  <SCORE.SYSTEM>
0

>  <SCORE.SYSTEM.CONST>
0

>  <SCORE.SYSTEM.DIHEDRAL>
0

>  <SCORE.SYSTEM.SOLV>
0

>  <SCORE.SYSTEM.norm>
0

>  <SCORE.heavy>
10

>  <SCORE.norm>
-1.26268

>  <RMSD>
2.391

$$$$
ligand
 OpenBabel11021811503D
libRbt.so/2013.1/901 2013/11/27
 10 11  0  0  0  0  0  0  0  0999 V2000
    3.6574  -20.6080   24.3492 N   0  0  0  0  0  0  0  0  0  0  0  0
    2.8005  -21.4233   23.7310 C   0  0  0  0  0  0  0  0  0  0  0  0
    1.5455  -21.7427   24.0709 N   0  0  0  0  0  0  0  0  0  0  0  0
    1.1943  -21.1222   25.2134 C   0  0  0  0  0  0  0  0  0  0  0  0
    1.9667  -20.2562   25.9639 C   0  0  0  0  0  0  0  0  0  0  0  0
    3.2685  -19.9927   25.4935 C   0  0  0  0  0  0  0  0  0  0  0  0
    4.1259  -19.1790   26.1304 N   0  0  0  0  0  0  0  0  0  0  0  0
    1.2725  -19.8048   27.0714 N   0  0  0  0  0  0  0  0  0  0  0  0
    0.1075  -20.3887   26.9728 C   0  0  0  0  0  0  0  0  0  0  0  0
   -0.0052  -21.2054   25.8791 N   0  0  0  0  0  0  0  0  0  0  0  0
  1  2  2  0  0  0  0
  1  6  1  0  0  0  0
  2  3  1  0  0  0  0
  3  4  2  0  0  0  0
  4  5  1  0  0  0  0
  4 10  1  0  0  0  0
  5  6  2  0  0  0  0
  5  8  1  0  0  0  0
  6  7  1  0  0  0  0
  8  9  1  0  0  0  0
  9 10  2  0  0  0  0
M  END
>  <CHROM.1>
2.00299755,-20.56735902,25.48851896,0.31330627,-0.35354552,-2.17354480

>  <Name>
ligand

>  <RI>
0

>  <Rbt.Current_Directory>
/home/itssahil/PROJECTS/Mol_Feturizer/New_Systems/rnas/4LW0

>  <Rbt.Executable>
rbdock ($Id: //depot/dev/client3/rdock/2013.1/src/exe/rbdock.cxx#4 $)

>  <Rbt.Library>
libRbt.so (2013.1, Build901 2013/11/27)

>  <Rbt.Parameter_File>
/export/apps/rDock/src/rDock_2013.1_src/data/scripts/dock_solv.prm

>  <Rbt.Receptor>
prm/pocket_docking_6.prm

>  <SCORE>
-12.6427

>  <SCORE.INTER>
-12.6427

>  <SCORE.INTER.CONST>
1

>  <SCORE.INTER.POLAR>
0

>  <SCORE.INTER.ROT>
0

>  <SCORE.INTER.SOLV>
3.98861

>  <SCORE.INTER.VDW>
-13.358

>  <SCORE.INTER.norm>
-1.26427

>  <SCORE.INTRA>
0

>  <SCORE.INTRA.DIHEDRAL>
0

>  <SCORE.INTRA.DIHEDRAL.0>
0

>  <SCORE.INTRA.POLAR>
0

>  <SCORE.INTRA.POLAR.0>
0

>  <SCORE.INTRA.REPUL>
0

>  <SCORE.INTRA.REPUL.0>
0

>  <SCORE.INTRA.SOLV>
0

>  <SCORE.INTRA.SOLV.lig_0>
-23.9151

>  <SCORE.INTRA.VDW>
0

>  <SCORE.INTRA.VDW.0>
0

>  <SCORE.INTRA.norm>
0

>  <SCORE.RESTR>
0

>  <SCORE.RESTR.CAVITY>
0

>  <SCORE.RESTR.norm>
0

>  <SCORE.SYSTEM>
0

>  <SCORE.SYSTEM.CONST>
0

>  <SCORE.SYSTEM.DIHEDRAL>
0

>  <SCORE.SYSTEM.SOLV>
0

>  <SCORE.SYSTEM.norm>
0

>  <SCORE.heavy>
10

>  <SCORE.norm>
-1.26427

>  <RMSD>
2.391

$$$$
ligand
 OpenBabel11021811503D
libRbt.so/2013.1/901 2013/11/27
 10 11  0  0  0  0  0  0  0  0999 V2000
    3.6563  -20.5988   24.3385 N   0  0  0  0  0  0  0  0  0  0  0  0
    2.8039  -21.4185   23.7200 C   0  0  0  0  0  0  0  0  0  0  0  0
    1.5498  -21.7430   24.0583 N   0  0  0  0  0  0  0  0  0  0  0  0
    1.1942  -21.1227   25.1996 C   0  0  0  0  0  0  0  0  0  0  0  0
    1.9615  -20.2525   25.9502 C   0  0  0  0  0  0  0  0  0  0  0  0
    3.2629  -19.9838   25.4814 C   0  0  0  0  0  0  0  0  0  0  0  0
    4.1157  -19.1656   26.1187 N   0  0  0  0  0  0  0  0  0  0  0  0
    1.2637  -19.8028   27.0562 N   0  0  0  0  0  0  0  0  0  0  0  0
    0.1014  -20.3919   26.9564 C   0  0  0  0  0  0  0  0  0  0  0  0
   -0.0060  -21.2104   25.8636 N   0  0  0  0  0  0  0  0  0  0  0  0
  1  2  2  0  0  0  0
  1  6  1  0  0  0  0
  2  3  1  0  0  0  0
  3  4  2  0  0  0  0
  4  5  1  0  0  0  0
  4 10  1  0  0  0  0
  5  6  2  0  0  0  0
  5  8  1  0  0  0  0
  6  7  1  0  0  0  0
  8  9  1  0  0  0  0
  9 10  2  0  0  0  0
M  END
>  <CHROM.1>
1.99996460,-20.56402408,25.47527466,0.30930592,-0.35630132,-2.17611990

>  <Name>
ligand

>  <RI>
0

>  <Rbt.Current_Directory>
/home/itssahil/PROJECTS/Mol_Feturizer/New_Systems/rnas/4LW0

>  <Rbt.Executable>
rbdock ($Id: //depot/dev/client3/rdock/2013.1/src/exe/rbdock.cxx#4 $)

>  <Rbt.Library>
libRbt.so (2013.1, Build901 2013/11/27)

>  <Rbt.Parameter_File>
/export/apps/rDock/src/rDock_2013.1_src/data/scripts/dock_solv.prm

>  <Rbt.Receptor>
prm/pocket_docking_6.prm

>  <SCORE>
-12.6708

>  <SCORE.INTER>
-12.6708

>  <SCORE.INTER.CONST>
1

>  <SCORE.INTER.POLAR>
0

>  <SCORE.INTER.ROT>
0

>  <SCORE.INTER.SOLV>
4.03532

>  <SCORE.INTER.VDW>
-13.3923

>  <SCORE.INTER.norm>
-1.26708

>  <SCORE.INTRA>
0

>  <SCORE.INTRA.DIHEDRAL>
0

>  <SCORE.INTRA.DIHEDRAL.0>
0

>  <SCORE.INTRA.POLAR>
0

>  <SCORE.INTRA.POLAR.0>
0

>  <SCORE.INTRA.REPUL>
0

>  <SCORE.INTRA.REPUL.0>
0

>  <SCORE.INTRA.SOLV>
0

>  <SCORE.INTRA.SOLV.lig_0>
-23.9151

>  <SCORE.INTRA.VDW>
0

>  <SCORE.INTRA.VDW.0>
0

>  <SCORE.INTRA.norm>
0

>  <SCORE.RESTR>
0

>  <SCORE.RESTR.CAVITY>
0

>  <SCORE.RESTR.norm>
0

>  <SCORE.SYSTEM>
0

>  <SCORE.SYSTEM.CONST>
0

>  <SCORE.SYSTEM.DIHEDRAL>
0

>  <SCORE.SYSTEM.SOLV>
0

>  <SCORE.SYSTEM.norm>
0

>  <SCORE.heavy>
10

>  <SCORE.norm>
-1.26708

>  <RMSD>
2.391

$$$$
ligand
 OpenBabel11021811503D
libRbt.so/2013.1/901 2013/11/27
 10 11  0  0  0  0  0  0  0  0999 V2000
    3.6338  -20.6057   24.3580 N   0  0  0  0  0  0  0  0  0  0  0  0
    2.7791  -21.4284   23.7467 C   0  0  0  0  0  0  0  0  0  0  0  0
    1.5250  -21.7480   24.0890 N   0  0  0  0  0  0  0  0  0  0  0  0
    1.1719  -21.1187   25.2260 C   0  0  0  0  0  0  0  0  0  0  0  0
    1.9418  -20.2443   25.9693 C   0  0  0  0  0  0  0  0  0  0  0  0
    3.2430  -19.9815   25.4969 C   0  0  0  0  0  0  0  0  0  0  0  0
    4.0982  -19.1602   26.1270 N   0  0  0  0  0  0  0  0  0  0  0  0
    1.2462  -19.7851   27.0727 N   0  0  0  0  0  0  0  0  0  0  0  0
    0.0827  -20.3729   26.9788 C   0  0  0  0  0  0  0  0  0  0  0  0
   -0.0276  -21.1993   25.8922 N   0  0  0  0  0  0  0  0  0  0  0  0
  1  2  2  0  0  0  0
  1  6  1  0  0  0  0
  2  3  1  0  0  0  0
  3  4  2  0  0  0  0
  4  5  1  0  0  0  0
  4 10  1  0  0  0  0
  5  6  2  0  0  0  0
  5  8  1  0  0  0  0
  6  7  1  0  0  0  0
  8  9  1  0  0  0  0
  9 10  2  0  0  0  0
M  END
>  <CHROM.1>
1.97905033,-20.55943452,25.49658639,0.31153643,-0.35551602,-2.18274452

>  <Name>
ligand

>  <RI>
0

>  <Rbt.Current_Directory>
/home/itssahil/PROJECTS/Mol_Feturizer/New_Systems/rnas/4LW0

>  <Rbt.Executable>
rbdock ($Id: //depot/dev/client3/rdock/2013.1/src/exe/rbdock.cxx#4 $)

>  <Rbt.Library>
libRbt.so (2013.1, Build901 2013/11/27)

>  <Rbt.Parameter_File>
/export/apps/rDock/src/rDock_2013.1_src/data/scripts/dock_solv.prm

>  <Rbt.Receptor>
prm/pocket_docking_7.prm

>  <SCORE>
-12.6141

>  <SCORE.INTER>
-12.6141

>  <SCORE.INTER.CONST>
1

>  <SCORE.INTER.POLAR>
0

>  <SCORE.INTER.ROT>
0

>  <SCORE.INTER.SOLV>
4.1343

>  <SCORE.INTER.VDW>
-13.3875

>  <SCORE.INTER.norm>
-1.26141

>  <SCORE.INTRA>
0

>  <SCORE.INTRA.DIHEDRAL>
0

>  <SCORE.INTRA.DIHEDRAL.0>
0

>  <SCORE.INTRA.POLAR>
0

>  <SCORE.INTRA.POLAR.0>
0

>  <SCORE.INTRA.REPUL>
0

>  <SCORE.INTRA.REPUL.0>
0

>  <SCORE.INTRA.SOLV>
0

>  <SCORE.INTRA.SOLV.lig_0>
-23.9151

>  <SCORE.INTRA.VDW>
0

>  <SCORE.INTRA.VDW.0>
0

>  <SCORE.INTRA.norm>
0

>  <SCORE.RESTR>
0

>  <SCORE.RESTR.CAVITY>
0

>  <SCORE.RESTR.norm>
0

>  <SCORE.SYSTEM>
0

>  <SCORE.SYSTEM.CONST>
0

>  <SCORE.SYSTEM.DIHEDRAL>
0

>  <SCORE.SYSTEM.SOLV>
0

>  <SCORE.SYSTEM.norm>
0

>  <SCORE.heavy>
10

>  <SCORE.norm>
-1.26141

>  <RMSD>
2.391

$$$$
ligand
 OpenBabel11021811503D
libRbt.so/2013.1/901 2013/11/27
 10 11  0  0  0  0  0  0  0  0999 V2000
    3.6446  -20.6208   24.3562 N   0  0  0  0  0  0  0  0  0  0  0  0
    2.7857  -21.4358   23.7404 C   0  0  0  0  0  0  0  0  0  0  0  0
    1.5285  -21.7478   24.0787 N   0  0  0  0  0  0  0  0  0  0  0  0
    1.1770  -21.1194   25.2168 C   0  0  0  0  0  0  0  0  0  0  0  0
    1.9512  -20.2527   25.9645 C   0  0  0  0  0  0  0  0  0  0  0  0
    3.2553  -19.9975   25.4960 C   0  0  0  0  0  0  0  0  0  0  0  0
    4.1146  -19.1839   26.1307 N   0  0  0  0  0  0  0  0  0  0  0  0
    1.2561  -19.7920   27.0677 N   0  0  0  0  0  0  0  0  0  0  0  0
    0.0889  -20.3714   26.9693 C   0  0  0  0  0  0  0  0  0  0  0  0
   -0.0246  -21.1937   25.8799 N   0  0  0  0  0  0  0  0  0  0  0  0
  1  2  2  0  0  0  0
  1  6  1  0  0  0  0
  2  3  1  0  0  0  0
  3  4  2  0  0  0  0
  4  5  1  0  0  0  0
  4 10  1  0  0  0  0
  5  6  2  0  0  0  0
  5  8  1  0  0  0  0
  6  7  1  0  0  0  0
  8  9  1  0  0  0  0
  9 10  2  0  0  0  0
M  END
>  <CHROM.1>
1.98741499,-20.56661447,25.49098899,0.31366048,-0.34848338,-2.17899356

>  <Name>
ligand

>  <RI>
0

>  <Rbt.Current_Directory>
/home/itssahil/PROJECTS/Mol_Feturizer/New_Systems/rnas/4LW0

>  <Rbt.Executable>
rbdock ($Id: //depot/dev/client3/rdock/2013.1/src/exe/rbdock.cxx#4 $)

>  <Rbt.Library>
libRbt.so (2013.1, Build901 2013/11/27)

>  <Rbt.Parameter_File>
/export/apps/rDock/src/rDock_2013.1_src/data/scripts/dock_solv.prm

>  <Rbt.Receptor>
prm/pocket_docking_7.prm

>  <SCORE>
-12.6269

>  <SCORE.INTER>
-12.6269

>  <SCORE.INTER.CONST>
1

>  <SCORE.INTER.POLAR>
0

>  <SCORE.INTER.ROT>
0

>  <SCORE.INTER.SOLV>
4.01545

>  <SCORE.INTER.VDW>
-13.3564

>  <SCORE.INTER.norm>
-1.26269

>  <SCORE.INTRA>
0

>  <SCORE.INTRA.DIHEDRAL>
0

>  <SCORE.INTRA.DIHEDRAL.0>
0

>  <SCORE.INTRA.POLAR>
0

>  <SCORE.INTRA.POLAR.0>
0

>  <SCORE.INTRA.REPUL>
0

>  <SCORE.INTRA.REPUL.0>
0

>  <SCORE.INTRA.SOLV>
0

>  <SCORE.INTRA.SOLV.lig_0>
-23.9151

>  <SCORE.INTRA.VDW>
0

>  <SCORE.INTRA.VDW.0>
0

>  <SCORE.INTRA.norm>
0

>  <SCORE.RESTR>
0

>  <SCORE.RESTR.CAVITY>
0

>  <SCORE.RESTR.norm>
0

>  <SCORE.SYSTEM>
0

>  <SCORE.SYSTEM.CONST>
0

>  <SCORE.SYSTEM.DIHEDRAL>
0

>  <SCORE.SYSTEM.SOLV>
0

>  <SCORE.SYSTEM.norm>
0

>  <SCORE.heavy>
10

>  <SCORE.norm>
-1.26269

>  <RMSD>
2.391

$$$$
ligand
 OpenBabel11021811503D
libRbt.so/2013.1/901 2013/11/27
 10 11  0  0  0  0  0  0  0  0999 V2000
    3.6559  -20.5988   24.3431 N   0  0  0  0  0  0  0  0  0  0  0  0
    2.8050  -21.4188   23.7230 C   0  0  0  0  0  0  0  0  0  0  0  0
    1.5502  -21.7432   24.0586 N   0  0  0  0  0  0  0  0  0  0  0  0
    1.1919  -21.1225   25.1988 C   0  0  0  0  0  0  0  0  0  0  0  0
    1.9575  -20.2519   25.9509 C   0  0  0  0  0  0  0  0  0  0  0  0
    3.2599  -19.9834   25.4849 C   0  0  0  0  0  0  0  0  0  0  0  0
    4.1113  -19.1649   26.1238 N   0  0  0  0  0  0  0  0  0  0  0  0
    1.2571  -19.8018   27.0550 N   0  0  0  0  0  0  0  0  0  0  0  0
    0.0951  -20.3910   26.9529 C   0  0  0  0  0  0  0  0  0  0  0  0
   -0.0098  -21.2100   25.8601 N   0  0  0  0  0  0  0  0  0  0  0  0
  1  2  2  0  0  0  0
  1  6  1  0  0  0  0
  2  3  1  0  0  0  0
  3  4  2  0  0  0  0
  4  5  1  0  0  0  0
  4 10  1  0  0  0  0
  5  6  2  0  0  0  0
  5  8  1  0  0  0  0
  6  7  1  0  0  0  0
  8  9  1  0  0  0  0
  9 10  2  0  0  0  0
M  END
>  <CHROM.1>
1.99703791,-20.56365087,25.47611657,0.30729032,-0.35503211,-2.17721755

>  <Name>
ligand

>  <RI>
0

>  <Rbt.Current_Directory>
/home/itssahil/PROJECTS/Mol_Feturizer/New_Systems/rnas/4LW0

>  <Rbt.Executable>
rbdock ($Id: //depot/dev/client3/rdock/2013.1/src/exe/rbdock.cxx#4 $)

>  <Rbt.Library>
libRbt.so (2013.1, Build901 2013/11/27)

>  <Rbt.Parameter_File>
/export/apps/rDock/src/rDock_2013.1_src/data/scripts/dock_solv.prm

>  <Rbt.Receptor>
prm/pocket_docking_7.prm

>  <SCORE>
-12.6685

>  <SCORE.INTER>
-12.6685

>  <SCORE.INTER.CONST>
1

>  <SCORE.INTER.POLAR>
0

>  <SCORE.INTER.ROT>
0

>  <SCORE.INTER.SOLV>
4.06599

>  <SCORE.INTER.VDW>
-13.401

>  <SCORE.INTER.norm>
-1.26685

>  <SCORE.INTRA>
0

>  <SCORE.INTRA.DIHEDRAL>
0

>  <SCORE.INTRA.DIHEDRAL.0>
0

>  <SCORE.INTRA.POLAR>
0

>  <SCORE.INTRA.POLAR.0>
0

>  <SCORE.INTRA.REPUL>
0

>  <SCORE.INTRA.REPUL.0>
0

>  <SCORE.INTRA.SOLV>
0

>  <SCORE.INTRA.SOLV.lig_0>
-23.9151

>  <SCORE.INTRA.VDW>
0

>  <SCORE.INTRA.VDW.0>
0

>  <SCORE.INTRA.norm>
0

>  <SCORE.RESTR>
0

>  <SCORE.RESTR.CAVITY>
0

>  <SCORE.RESTR.norm>
0

>  <SCORE.SYSTEM>
0

>  <SCORE.SYSTEM.CONST>
0

>  <SCORE.SYSTEM.DIHEDRAL>
0

>  <SCORE.SYSTEM.SOLV>
0

>  <SCORE.SYSTEM.norm>
0

>  <SCORE.heavy>
10

>  <SCORE.norm>
-1.26685

>  <RMSD>
2.391

$$$$
ligand
 OpenBabel11021811503D
libRbt.so/2013.1/901 2013/11/27
 10 11  0  0  0  0  0  0  0  0999 V2000
    3.6550  -20.5986   24.3350 N   0  0  0  0  0  0  0  0  0  0  0  0
    2.8022  -21.4184   23.7171 C   0  0  0  0  0  0  0  0  0  0  0  0
    1.5486  -21.7432   24.0564 N   0  0  0  0  0  0  0  0  0  0  0  0
    1.1938  -21.1234   25.1982 C   0  0  0  0  0  0  0  0  0  0  0  0
    1.9617  -20.2532   25.9484 C   0  0  0  0  0  0  0  0  0  0  0  0
    3.2625  -19.9841   25.4785 C   0  0  0  0  0  0  0  0  0  0  0  0
    4.1157  -19.1658   26.1152 N   0  0  0  0  0  0  0  0  0  0  0  0
    1.2647  -19.8039   27.0551 N   0  0  0  0  0  0  0  0  0  0  0  0
    0.1025  -20.3933   26.9563 C   0  0  0  0  0  0  0  0  0  0  0  0
   -0.0058  -21.2115   25.8633 N   0  0  0  0  0  0  0  0  0  0  0  0
  1  2  2  0  0  0  0
  1  6  1  0  0  0  0
  2  3  1  0  0  0  0
  3  4  2  0  0  0  0
  4  5  1  0  0  0  0
  4 10  1  0  0  0  0
  5  6  2  0  0  0  0
  5  8  1  0  0  0  0
  6  7  1  0  0  0  0
  8  9  1  0  0  0  0
  9 10  2  0  0  0  0
M  END
>  <CHROM.1>
1.99971152,-20.56456548,25.47330545,0.30996932,-0.35700713,-2.17560779

>  <Name>
ligand

>  <RI>
0

>  <Rbt.Current_Directory>
/home/itssahil/PROJECTS/Mol_Feturizer/New_Systems/rnas/4LW0

>  <Rbt.Executable>
rbdock ($Id: //depot/dev/client3/rdock/2013.1/src/exe/rbdock.cxx#4 $)

>  <Rbt.Library>
libRbt.so (2013.1, Build901 2013/11/27)

>  <Rbt.Parameter_File>
/export/apps/rDock/src/rDock_2013.1_src/data/scripts/dock_solv.prm

>  <Rbt.Receptor>
prm/pocket_docking_7.prm

>  <SCORE>
-12.6689

>  <SCORE.INTER>
-12.6689

>  <SCORE.INTER.CONST>
1

>  <SCORE.INTER.POLAR>
0

>  <SCORE.INTER.ROT>
0

>  <SCORE.INTER.SOLV>
4.02507

>  <SCORE.INTER.VDW>
-13.3876

>  <SCORE.INTER.norm>
-1.26689

>  <SCORE.INTRA>
0

>  <SCORE.INTRA.DIHEDRAL>
0

>  <SCORE.INTRA.DIHEDRAL.0>
0

>  <SCORE.INTRA.POLAR>
0

>  <SCORE.INTRA.POLAR.0>
0

>  <SCORE.INTRA.REPUL>
0

>  <SCORE.INTRA.REPUL.0>
0

>  <SCORE.INTRA.SOLV>
0

>  <SCORE.INTRA.SOLV.lig_0>
-23.9151

>  <SCORE.INTRA.VDW>
0

>  <SCORE.INTRA.VDW.0>
0

>  <SCORE.INTRA.norm>
0

>  <SCORE.RESTR>
0

>  <SCORE.RESTR.CAVITY>
0

>  <SCORE.RESTR.norm>
0

>  <SCORE.SYSTEM>
0

>  <SCORE.SYSTEM.CONST>
0

>  <SCORE.SYSTEM.DIHEDRAL>
0

>  <SCORE.SYSTEM.SOLV>
0

>  <SCORE.SYSTEM.norm>
0

>  <SCORE.heavy>
10

>  <SCORE.norm>
-1.26689

>  <RMSD>
2.391

$$$$
ligand
 OpenBabel11021811503D
libRbt.so/2013.1/901 2013/11/27
 10 11  0  0  0  0  0  0  0  0999 V2000
    3.6657  -20.6217   24.3926 N   0  0  0  0  0  0  0  0  0  0  0  0
    2.7936  -21.4180   23.7709 C   0  0  0  0  0  0  0  0  0  0  0  0
    1.5299  -21.7080   24.1042 N   0  0  0  0  0  0  0  0  0  0  0  0
    1.1867  -21.0779   25.2439 C   0  0  0  0  0  0  0  0  0  0  0  0
    1.9747  -20.2288   25.9975 C   0  0  0  0  0  0  0  0  0  0  0  0
    3.2847  -19.9960   25.5339 C   0  0  0  0  0  0  0  0  0  0  0  0
    4.1571  -19.2012   26.1744 N   0  0  0  0  0  0  0  0  0  0  0  0
    1.2849  -19.7599   27.1006 N   0  0  0  0  0  0  0  0  0  0  0  0
    0.1074  -20.3170   26.9963 C   0  0  0  0  0  0  0  0  0  0  0  0
   -0.0180  -21.1326   25.9032 N   0  0  0  0  0  0  0  0  0  0  0  0
  1  2  2  0  0  0  0
  1  6  1  0  0  0  0
  2  3  1  0  0  0  0
  3  4  2  0  0  0  0
  4  5  1  0  0  0  0
  4 10  1  0  0  0  0
  5  6  2  0  0  0  0
  5  8  1  0  0  0  0
  6  7  1  0  0  0  0
  8  9  1  0  0  0  0
  9 10  2  0  0  0  0
M  END
>  <CHROM.1>
2.00642949,-20.54138676,25.52277021,0.32231178,-0.33150659,-2.17193709

>  <Name>
ligand

>  <RI>
0

>  <Rbt.Current_Directory>
/home/itssahil/PROJECTS/Mol_Feturizer/New_Systems/rnas/4LW0

>  <Rbt.Executable>
rbdock ($Id: //depot/dev/client3/rdock/2013.1/src/exe/rbdock.cxx#4 $)

>  <Rbt.Library>
libRbt.so (2013.1, Build901 2013/11/27)

>  <Rbt.Parameter_File>
/export/apps/rDock/src/rDock_2013.1_src/data/scripts/dock_solv.prm

>  <Rbt.Receptor>
prm/pocket_docking_8.prm

>  <SCORE>
-12.5316

>  <SCORE.INTER>
-12.5316

>  <SCORE.INTER.CONST>
1

>  <SCORE.INTER.POLAR>
0

>  <SCORE.INTER.ROT>
0

>  <SCORE.INTER.SOLV>
3.97238

>  <SCORE.INTER.VDW>
-13.2785

>  <SCORE.INTER.norm>
-1.25316

>  <SCORE.INTRA>
0

>  <SCORE.INTRA.DIHEDRAL>
0

>  <SCORE.INTRA.DIHEDRAL.0>
0

>  <SCORE.INTRA.POLAR>
0

>  <SCORE.INTRA.POLAR.0>
0

>  <SCORE.INTRA.REPUL>
0

>  <SCORE.INTRA.REPUL.0>
0

>  <SCORE.INTRA.SOLV>
0

>  <SCORE.INTRA.SOLV.lig_0>
-23.9151

>  <SCORE.INTRA.VDW>
0

>  <SCORE.INTRA.VDW.0>
0

>  <SCORE.INTRA.norm>
0

>  <SCORE.RESTR>
0

>  <SCORE.RESTR.CAVITY>
0

>  <SCORE.RESTR.norm>
0

>  <SCORE.SYSTEM>
0

>  <SCORE.SYSTEM.CONST>
0

>  <SCORE.SYSTEM.DIHEDRAL>
0

>  <SCORE.SYSTEM.SOLV>
0

>  <SCORE.SYSTEM.norm>
0

>  <SCORE.heavy>
10

>  <SCORE.norm>
-1.25316

>  <RMSD>
2.391

$$$$
ligand
 OpenBabel11021811503D
libRbt.so/2013.1/901 2013/11/27
 10 11  0  0  0  0  0  0  0  0999 V2000
    3.6657  -20.6115   24.3727 N   0  0  0  0  0  0  0  0  0  0  0  0
    2.8052  -21.4188   23.7491 C   0  0  0  0  0  0  0  0  0  0  0  0
    1.5449  -21.7257   24.0804 N   0  0  0  0  0  0  0  0  0  0  0  0
    1.1917  -21.1010   25.2200 C   0  0  0  0  0  0  0  0  0  0  0  0
    1.9672  -20.2421   25.9753 C   0  0  0  0  0  0  0  0  0  0  0  0
    3.2748  -19.9916   25.5139 C   0  0  0  0  0  0  0  0  0  0  0  0
    4.1356  -19.1858   26.1563 N   0  0  0  0  0  0  0  0  0  0  0  0
    1.2697  -19.7831   27.0777 N   0  0  0  0  0  0  0  0  0  0  0  0
    0.0998  -20.3557   26.9713 C   0  0  0  0  0  0  0  0  0  0  0  0
   -0.0132  -21.1721   25.8774 N   0  0  0  0  0  0  0  0  0  0  0  0
  1  2  2  0  0  0  0
  1  6  1  0  0  0  0
  2  3  1  0  0  0  0
  3  4  2  0  0  0  0
  4  5  1  0  0  0  0
  4 10  1  0  0  0  0
  5  6  2  0  0  0  0
  5  8  1  0  0  0  0
  6  7  1  0  0  0  0
  8  9  1  0  0  0  0
  9 10  2  0  0  0  0
M  END
>  <CHROM.1>
2.00383638,-20.55390861,25.50043845,0.31303300,-0.34155168,-2.17432583

>  <Name>
ligand

>  <RI>
0

>  <Rbt.Current_Directory>
/home/itssahil/PROJECTS/Mol_Feturizer/New_Systems/rnas/4LW0

>  <Rbt.Executable>
rbdock ($Id: //depot/dev/client3/rdock/2013.1/src/exe/rbdock.cxx#4 $)

>  <Rbt.Library>
libRbt.so (2013.1, Build901 2013/11/27)

>  <Rbt.Parameter_File>
/export/apps/rDock/src/rDock_2013.1_src/data/scripts/dock_solv.prm

>  <Rbt.Receptor>
prm/pocket_docking_8.prm

>  <SCORE>
-12.6065

>  <SCORE.INTER>
-12.6065

>  <SCORE.INTER.CONST>
1

>  <SCORE.INTER.POLAR>
0

>  <SCORE.INTER.ROT>
0

>  <SCORE.INTER.SOLV>
4.01967

>  <SCORE.INTER.VDW>
-13.3443

>  <SCORE.INTER.norm>
-1.26065

>  <SCORE.INTRA>
0

>  <SCORE.INTRA.DIHEDRAL>
0

>  <SCORE.INTRA.DIHEDRAL.0>
0

>  <SCORE.INTRA.POLAR>
0

>  <SCORE.INTRA.POLAR.0>
0

>  <SCORE.INTRA.REPUL>
0

>  <SCORE.INTRA.REPUL.0>
0

>  <SCORE.INTRA.SOLV>
0

>  <SCORE.INTRA.SOLV.lig_0>
-23.9151

>  <SCORE.INTRA.VDW>
0

>  <SCORE.INTRA.VDW.0>
0

>  <SCORE.INTRA.norm>
0

>  <SCORE.RESTR>
0

>  <SCORE.RESTR.CAVITY>
0

>  <SCORE.RESTR.norm>
0

>  <SCORE.SYSTEM>
0

>  <SCORE.SYSTEM.CONST>
0

>  <SCORE.SYSTEM.DIHEDRAL>
0

>  <SCORE.SYSTEM.SOLV>
0

>  <SCORE.SYSTEM.norm>
0

>  <SCORE.heavy>
10

>  <SCORE.norm>
-1.26065

>  <RMSD>
2.391

$$$$
ligand
 OpenBabel11021811503D
libRbt.so/2013.1/901 2013/11/27
 10 11  0  0  0  0  0  0  0  0999 V2000
    3.6489  -20.6025   24.3665 N   0  0  0  0  0  0  0  0  0  0  0  0
    2.7990  -21.4230   23.7457 C   0  0  0  0  0  0  0  0  0  0  0  0
    1.5422  -21.7439   24.0770 N   0  0  0  0  0  0  0  0  0  0  0  0
    1.1802  -21.1185   25.2135 C   0  0  0  0  0  0  0  0  0  0  0  0
    1.9443  -20.2468   25.9658 C   0  0  0  0  0  0  0  0  0  0  0  0
    3.2492  -19.9824   25.5045 C   0  0  0  0  0  0  0  0  0  0  0  0
    4.0994  -19.1632   26.1441 N   0  0  0  0  0  0  0  0  0  0  0  0
    1.2401  -19.7915   27.0654 N   0  0  0  0  0  0  0  0  0  0  0  0
    0.0774  -20.3789   26.9604 C   0  0  0  0  0  0  0  0  0  0  0  0
   -0.0244  -21.2015   25.8700 N   0  0  0  0  0  0  0  0  0  0  0  0
  1  2  2  0  0  0  0
  1  6  1  0  0  0  0
  2  3  1  0  0  0  0
  3  4  2  0  0  0  0
  4  5  1  0  0  0  0
  4 10  1  0  0  0  0
  5  6  2  0  0  0  0
  5  8  1  0  0  0  0
  6  7  1  0  0  0  0
  8  9  1  0  0  0  0
  9 10  2  0  0  0  0
M  END
>  <CHROM.1>
1.98525587,-20.56026153,25.49231175,0.30471934,-0.35104323,-2.18158264

>  <Name>
ligand

>  <RI>
0

>  <Rbt.Current_Directory>
/home/itssahil/PROJECTS/Mol_Feturizer/New_Systems/rnas/4LW0

>  <Rbt.Executable>
rbdock ($Id: //depot/dev/client3/rdock/2013.1/src/exe/rbdock.cxx#4 $)

>  <Rbt.Library>
libRbt.so (2013.1, Build901 2013/11/27)

>  <Rbt.Parameter_File>
/export/apps/rDock/src/rDock_2013.1_src/data/scripts/dock_solv.prm

>  <Rbt.Receptor>
prm/pocket_docking_8.prm

>  <SCORE>
-12.6298

>  <SCORE.INTER>
-12.6298

>  <SCORE.INTER.CONST>
1

>  <SCORE.INTER.POLAR>
0

>  <SCORE.INTER.ROT>
0

>  <SCORE.INTER.SOLV>
4.16602

>  <SCORE.INTER.VDW>
-13.4085

>  <SCORE.INTER.norm>
-1.26298

>  <SCORE.INTRA>
0

>  <SCORE.INTRA.DIHEDRAL>
0

>  <SCORE.INTRA.DIHEDRAL.0>
0

>  <SCORE.INTRA.POLAR>
0

>  <SCORE.INTRA.POLAR.0>
0

>  <SCORE.INTRA.REPUL>
0

>  <SCORE.INTRA.REPUL.0>
0

>  <SCORE.INTRA.SOLV>
0

>  <SCORE.INTRA.SOLV.lig_0>
-23.9151

>  <SCORE.INTRA.VDW>
0

>  <SCORE.INTRA.VDW.0>
0

>  <SCORE.INTRA.norm>
0

>  <SCORE.RESTR>
0

>  <SCORE.RESTR.CAVITY>
0

>  <SCORE.RESTR.norm>
0

>  <SCORE.SYSTEM>
0

>  <SCORE.SYSTEM.CONST>
0

>  <SCORE.SYSTEM.DIHEDRAL>
0

>  <SCORE.SYSTEM.SOLV>
0

>  <SCORE.SYSTEM.norm>
0

>  <SCORE.heavy>
10

>  <SCORE.norm>
-1.26298

>  <RMSD>
2.391

$$$$
ligand
 OpenBabel11021811503D
libRbt.so/2013.1/901 2013/11/27
 10 11  0  0  0  0  0  0  0  0999 V2000
    3.6451  -20.5899   24.3428 N   0  0  0  0  0  0  0  0  0  0  0  0
    2.8009  -21.4163   23.7220 C   0  0  0  0  0  0  0  0  0  0  0  0
    1.5478  -21.7490   24.0556 N   0  0  0  0  0  0  0  0  0  0  0  0
    1.1832  -21.1297   25.1945 C   0  0  0  0  0  0  0  0  0  0  0  0
    1.9415  -20.2532   25.9471 C   0  0  0  0  0  0  0  0  0  0  0  0
    3.2428  -19.9762   25.4833 C   0  0  0  0  0  0  0  0  0  0  0  0
    4.0874  -19.1512   26.1230 N   0  0  0  0  0  0  0  0  0  0  0  0
    1.2360  -19.8069   27.0496 N   0  0  0  0  0  0  0  0  0  0  0  0
    0.0783  -20.4041   26.9459 C   0  0  0  0  0  0  0  0  0  0  0  0
   -0.0191  -21.2248   25.8537 N   0  0  0  0  0  0  0  0  0  0  0  0
  1  2  2  0  0  0  0
  1  6  1  0  0  0  0
  2  3  1  0  0  0  0
  3  4  2  0  0  0  0
  4  5  1  0  0  0  0
  4 10  1  0  0  0  0
  5  6  2  0  0  0  0
  5  8  1  0  0  0  0
  6  7  1  0  0  0  0
  8  9  1  0  0  0  0
  9 10  2  0  0  0  0
M  END
>  <CHROM.1>
1.98399407,-20.56507285,25.47276867,0.30151687,-0.35962147,-2.18016497

>  <Name>
ligand

>  <RI>
0

>  <Rbt.Current_Directory>
/home/itssahil/PROJECTS/Mol_Feturizer/New_Systems/rnas/4LW0

>  <Rbt.Executable>
rbdock ($Id: //depot/dev/client3/rdock/2013.1/src/exe/rbdock.cxx#4 $)

>  <Rbt.Library>
libRbt.so (2013.1, Build901 2013/11/27)

>  <Rbt.Parameter_File>
/export/apps/rDock/src/rDock_2013.1_src/data/scripts/dock_solv.prm

>  <Rbt.Receptor>
prm/pocket_docking_8.prm

>  <SCORE>
-12.634

>  <SCORE.INTER>
-12.634

>  <SCORE.INTER.CONST>
1

>  <SCORE.INTER.POLAR>
0

>  <SCORE.INTER.ROT>
0

>  <SCORE.INTER.SOLV>
4.19076

>  <SCORE.INTER.VDW>
-13.4196

>  <SCORE.INTER.norm>
-1.2634

>  <SCORE.INTRA>
0

>  <SCORE.INTRA.DIHEDRAL>
0

>  <SCORE.INTRA.DIHEDRAL.0>
0

>  <SCORE.INTRA.POLAR>
0

>  <SCORE.INTRA.POLAR.0>
0

>  <SCORE.INTRA.REPUL>
0

>  <SCORE.INTRA.REPUL.0>
0

>  <SCORE.INTRA.SOLV>
0

>  <SCORE.INTRA.SOLV.lig_0>
-23.9151

>  <SCORE.INTRA.VDW>
0

>  <SCORE.INTRA.VDW.0>
0

>  <SCORE.INTRA.norm>
0

>  <SCORE.RESTR>
0

>  <SCORE.RESTR.CAVITY>
0

>  <SCORE.RESTR.norm>
0

>  <SCORE.SYSTEM>
0

>  <SCORE.SYSTEM.CONST>
0

>  <SCORE.SYSTEM.DIHEDRAL>
0

>  <SCORE.SYSTEM.SOLV>
0

>  <SCORE.SYSTEM.norm>
0

>  <SCORE.heavy>
10

>  <SCORE.norm>
-1.2634

>  <RMSD>
2.391

$$$$
ligand
 OpenBabel11021811503D
libRbt.so/2013.1/901 2013/11/27
 10 11  0  0  0  0  0  0  0  0999 V2000
    3.6727  -20.6176   24.3208 N   0  0  0  0  0  0  0  0  0  0  0  0
    2.8131  -21.4411   23.7174 C   0  0  0  0  0  0  0  0  0  0  0  0
    1.5533  -21.7415   24.0564 N   0  0  0  0  0  0  0  0  0  0  0  0
    1.1996  -21.0897   25.1806 C   0  0  0  0  0  0  0  0  0  0  0  0
    1.9741  -20.2115   25.9145 C   0  0  0  0  0  0  0  0  0  0  0  0
    3.2812  -19.9705   25.4466 C   0  0  0  0  0  0  0  0  0  0  0  0
    4.1411  -19.1481   26.0688 N   0  0  0  0  0  0  0  0  0  0  0  0
    1.2763  -19.7267   27.0055 N   0  0  0  0  0  0  0  0  0  0  0  0
    0.1072  -20.3033   26.9135 C   0  0  0  0  0  0  0  0  0  0  0  0
   -0.0050  -21.1464   25.8399 N   0  0  0  0  0  0  0  0  0  0  0  0
  1  2  2  0  0  0  0
  1  6  1  0  0  0  0
  2  3  1  0  0  0  0
  3  4  2  0  0  0  0
  4  5  1  0  0  0  0
  4 10  1  0  0  0  0
  5  6  2  0  0  0  0
  5  8  1  0  0  0  0
  6  7  1  0  0  0  0
  8  9  1  0  0  0  0
  9 10  2  0  0  0  0
M  END
>  <CHROM.1>
2.01104689,-20.53474478,25.44730490,0.31244828,-0.34287123,-2.19895019

>  <Name>
ligand

>  <RI>
0

>  <Rbt.Current_Directory>
/home/itssahil/PROJECTS/Mol_Feturizer/New_Systems/rnas/4LW0

>  <Rbt.Executable>
rbdock ($Id: //depot/dev/client3/rdock/2013.1/src/exe/rbdock.cxx#4 $)

>  <Rbt.Library>
libRbt.so (2013.1, Build901 2013/11/27)

>  <Rbt.Parameter_File>
/export/apps/rDock/src/rDock_2013.1_src/data/scripts/dock_solv.prm

>  <Rbt.Receptor>
prm/pocket_docking_8.prm

>  <SCORE>
-12.5662

>  <SCORE.INTER>
-12.5662

>  <SCORE.INTER.CONST>
1

>  <SCORE.INTER.POLAR>
0

>  <SCORE.INTER.ROT>
0

>  <SCORE.INTER.SOLV>
3.92056

>  <SCORE.INTER.VDW>
-13.2843

>  <SCORE.INTER.norm>
-1.25662

>  <SCORE.INTRA>
0

>  <SCORE.INTRA.DIHEDRAL>
0

>  <SCORE.INTRA.DIHEDRAL.0>
0

>  <SCORE.INTRA.POLAR>
0

>  <SCORE.INTRA.POLAR.0>
0

>  <SCORE.INTRA.REPUL>
0

>  <SCORE.INTRA.REPUL.0>
0

>  <SCORE.INTRA.SOLV>
0

>  <SCORE.INTRA.SOLV.lig_0>
-23.9151

>  <SCORE.INTRA.VDW>
0

>  <SCORE.INTRA.VDW.0>
0

>  <SCORE.INTRA.norm>
0

>  <SCORE.RESTR>
0

>  <SCORE.RESTR.CAVITY>
0

>  <SCORE.RESTR.norm>
0

>  <SCORE.SYSTEM>
0

>  <SCORE.SYSTEM.CONST>
0

>  <SCORE.SYSTEM.DIHEDRAL>
0

>  <SCORE.SYSTEM.SOLV>
0

>  <SCORE.SYSTEM.norm>
0

>  <SCORE.heavy>
10

>  <SCORE.norm>
-1.25662

>  <RMSD>
2.391

$$$$
ligand
 OpenBabel11021811503D
libRbt.so/2013.1/901 2013/11/27
 10 11  0  0  0  0  0  0  0  0999 V2000
    3.6512  -20.6111   24.3506 N   0  0  0  0  0  0  0  0  0  0  0  0
    2.7966  -21.4281   23.7315 C   0  0  0  0  0  0  0  0  0  0  0  0
    1.5401  -21.7459   24.0670 N   0  0  0  0  0  0  0  0  0  0  0  0
    1.1843  -21.1214   25.2059 C   0  0  0  0  0  0  0  0  0  0  0  0
    1.9537  -20.2532   25.9568 C   0  0  0  0  0  0  0  0  0  0  0  0
    3.2576  -19.9918   25.4911 C   0  0  0  0  0  0  0  0  0  0  0  0
    4.1126  -19.1763   26.1290 N   0  0  0  0  0  0  0  0  0  0  0  0
    1.2549  -19.7978   27.0599 N   0  0  0  0  0  0  0  0  0  0  0  0
    0.0902  -20.3816   26.9582 C   0  0  0  0  0  0  0  0  0  0  0  0
   -0.0182  -21.2020   25.8668 N   0  0  0  0  0  0  0  0  0  0  0  0
  1  2  2  0  0  0  0
  1  6  1  0  0  0  0
  2  3  1  0  0  0  0
  3  4  2  0  0  0  0
  4  5  1  0  0  0  0
  4 10  1  0  0  0  0
  5  6  2  0  0  0  0
  5  8  1  0  0  0  0
  6  7  1  0  0  0  0
  8  9  1  0  0  0  0
  9 10  2  0  0  0  0
M  END
>  <CHROM.1>
1.99195943,-20.56598983,25.48268645,0.30977261,-0.35078694,-2.17813546

>  <Name>
ligand

>  <RI>
0

>  <Rbt.Current_Directory>
/home/itssahil/PROJECTS/Mol_Feturizer/New_Systems/rnas/4LW0

>  <Rbt.Executable>
rbdock ($Id: //depot/dev/client3/rdock/2013.1/src/exe/rbdock.cxx#4 $)

>  <Rbt.Library>
libRbt.so (2013.1, Build901 2013/11/27)

>  <Rbt.Parameter_File>
/export/apps/rDock/src/rDock_2013.1_src/data/scripts/dock_solv.prm

>  <Rbt.Receptor>
prm/pocket_docking_8.prm

>  <SCORE>
-12.6352

>  <SCORE.INTER>
-12.6352

>  <SCORE.INTER.CONST>
1

>  <SCORE.INTER.POLAR>
0

>  <SCORE.INTER.ROT>
0

>  <SCORE.INTER.SOLV>
4.04071

>  <SCORE.INTER.VDW>
-13.3704

>  <SCORE.INTER.norm>
-1.26352

>  <SCORE.INTRA>
0

>  <SCORE.INTRA.DIHEDRAL>
0

>  <SCORE.INTRA.DIHEDRAL.0>
0

>  <SCORE.INTRA.POLAR>
0

>  <SCORE.INTRA.POLAR.0>
0

>  <SCORE.INTRA.REPUL>
0

>  <SCORE.INTRA.REPUL.0>
0

>  <SCORE.INTRA.SOLV>
0

>  <SCORE.INTRA.SOLV.lig_0>
-23.9151

>  <SCORE.INTRA.VDW>
0

>  <SCORE.INTRA.VDW.0>
0

>  <SCORE.INTRA.norm>
0

>  <SCORE.RESTR>
0

>  <SCORE.RESTR.CAVITY>
0

>  <SCORE.RESTR.norm>
0

>  <SCORE.SYSTEM>
0

>  <SCORE.SYSTEM.CONST>
0

>  <SCORE.SYSTEM.DIHEDRAL>
0

>  <SCORE.SYSTEM.SOLV>
0

>  <SCORE.SYSTEM.norm>
0

>  <SCORE.heavy>
10

>  <SCORE.norm>
-1.26352

>  <RMSD>
2.391

$$$$
ligand
 OpenBabel11021811503D
libRbt.so/2013.1/901 2013/11/27
 10 11  0  0  0  0  0  0  0  0999 V2000
    3.6420  -20.6013   24.3571 N   0  0  0  0  0  0  0  0  0  0  0  0
    2.7735  -21.4035   23.7381 C   0  0  0  0  0  0  0  0  0  0  0  0
    1.5154  -21.7084   24.0798 N   0  0  0  0  0  0  0  0  0  0  0  0
    1.1747  -21.0876   25.2254 C   0  0  0  0  0  0  0  0  0  0  0  0
    1.9596  -20.2341   25.9771 C   0  0  0  0  0  0  0  0  0  0  0  0
    3.2635  -19.9852   25.5045 C   0  0  0  0  0  0  0  0  0  0  0  0
    4.1325  -19.1846   26.1422 N   0  0  0  0  0  0  0  0  0  0  0  0
    1.2737  -19.7779   27.0879 N   0  0  0  0  0  0  0  0  0  0  0  0
    0.1013  -20.3469   26.9900 C   0  0  0  0  0  0  0  0  0  0  0  0
   -0.0242  -21.1582   25.8937 N   0  0  0  0  0  0  0  0  0  0  0  0
  1  2  2  0  0  0  0
  1  6  1  0  0  0  0
  2  3  1  0  0  0  0
  3  4  2  0  0  0  0
  4  5  1  0  0  0  0
  4 10  1  0  0  0  0
  5  6  2  0  0  0  0
  5  8  1  0  0  0  0
  6  7  1  0  0  0  0
  8  9  1  0  0  0  0
  9 10  2  0  0  0  0
M  END
>  <CHROM.1>
1.99092616,-20.54396812,25.50054286,0.32291546,-0.34455615,-2.16670159

>  <Name>
ligand

>  <RI>
0

>  <Rbt.Current_Directory>
/home/itssahil/PROJECTS/Mol_Feturizer/New_Systems/rnas/4LW0

>  <Rbt.Executable>
rbdock ($Id: //depot/dev/client3/rdock/2013.1/src/exe/rbdock.cxx#4 $)

>  <Rbt.Library>
libRbt.so (2013.1, Build901 2013/11/27)

>  <Rbt.Parameter_File>
/export/apps/rDock/src/rDock_2013.1_src/data/scripts/dock_solv.prm

>  <Rbt.Receptor>
prm/pocket_docking_3.prm

>  <SCORE>
-12.5605

>  <SCORE.INTER>
-12.5605

>  <SCORE.INTER.CONST>
1

>  <SCORE.INTER.POLAR>
0

>  <SCORE.INTER.ROT>
0

>  <SCORE.INTER.SOLV>
4.01099

>  <SCORE.INTER.VDW>
-13.3107

>  <SCORE.INTER.norm>
-1.25605

>  <SCORE.INTRA>
0

>  <SCORE.INTRA.DIHEDRAL>
0

>  <SCORE.INTRA.DIHEDRAL.0>
0

>  <SCORE.INTRA.POLAR>
0

>  <SCORE.INTRA.POLAR.0>
0

>  <SCORE.INTRA.REPUL>
0

>  <SCORE.INTRA.REPUL.0>
0

>  <SCORE.INTRA.SOLV>
0

>  <SCORE.INTRA.SOLV.lig_0>
-23.9151

>  <SCORE.INTRA.VDW>
0

>  <SCORE.INTRA.VDW.0>
0

>  <SCORE.INTRA.norm>
0

>  <SCORE.RESTR>
0

>  <SCORE.RESTR.CAVITY>
0

>  <SCORE.RESTR.norm>
0

>  <SCORE.SYSTEM>
0

>  <SCORE.SYSTEM.CONST>
0

>  <SCORE.SYSTEM.DIHEDRAL>
0

>  <SCORE.SYSTEM.SOLV>
0

>  <SCORE.SYSTEM.norm>
0

>  <SCORE.heavy>
10

>  <SCORE.norm>
-1.25605

>  <RMSD>
2.392

$$$$
ligand
 OpenBabel11021811503D
libRbt.so/2013.1/901 2013/11/27
 10 11  0  0  0  0  0  0  0  0999 V2000
    3.7028  -20.6663   24.4009 N   0  0  0  0  0  0  0  0  0  0  0  0
    2.8406  -21.4684   23.7729 C   0  0  0  0  0  0  0  0  0  0  0  0
    1.5650  -21.7384   24.0765 N   0  0  0  0  0  0  0  0  0  0  0  0
    1.1961  -21.0787   25.1912 C   0  0  0  0  0  0  0  0  0  0  0  0
    1.9710  -20.2199   25.9473 C   0  0  0  0  0  0  0  0  0  0  0  0
    3.2960  -20.0105   25.5162 C   0  0  0  0  0  0  0  0  0  0  0  0
    4.1580  -19.2095   26.1630 N   0  0  0  0  0  0  0  0  0  0  0  0
    1.2551  -19.7189   27.0192 N   0  0  0  0  0  0  0  0  0  0  0  0
    0.0754  -20.2670   26.8940 C   0  0  0  0  0  0  0  0  0  0  0  0
   -0.0274  -21.1065   25.8168 N   0  0  0  0  0  0  0  0  0  0  0  0
  1  2  2  0  0  0  0
  1  6  1  0  0  0  0
  2  3  1  0  0  0  0
  3  4  2  0  0  0  0
  4  5  1  0  0  0  0
  4 10  1  0  0  0  0
  5  6  2  0  0  0  0
  5  8  1  0  0  0  0
  6  7  1  0  0  0  0
  8  9  1  0  0  0  0
  9 10  2  0  0  0  0
M  END
>  <CHROM.1>
2.01303157,-20.54374607,25.48097819,0.30383366,-0.30692821,-2.20084983

>  <Name>
ligand

>  <RI>
0

>  <Rbt.Current_Directory>
/home/itssahil/PROJECTS/Mol_Feturizer/New_Systems/rnas/4LW0

>  <Rbt.Executable>
rbdock ($Id: //depot/dev/client3/rdock/2013.1/src/exe/rbdock.cxx#4 $)

>  <Rbt.Library>
libRbt.so (2013.1, Build901 2013/11/27)

>  <Rbt.Parameter_File>
/export/apps/rDock/src/rDock_2013.1_src/data/scripts/dock_solv.prm

>  <Rbt.Receptor>
prm/pocket_docking_3.prm

>  <SCORE>
-12.4805

>  <SCORE.INTER>
-12.4805

>  <SCORE.INTER.CONST>
1

>  <SCORE.INTER.POLAR>
0

>  <SCORE.INTER.ROT>
0

>  <SCORE.INTER.SOLV>
3.93007

>  <SCORE.INTER.VDW>
-13.2303

>  <SCORE.INTER.norm>
-1.24805

>  <SCORE.INTRA>
0

>  <SCORE.INTRA.DIHEDRAL>
0

>  <SCORE.INTRA.DIHEDRAL.0>
0

>  <SCORE.INTRA.POLAR>
0

>  <SCORE.INTRA.POLAR.0>
0

>  <SCORE.INTRA.REPUL>
0

>  <SCORE.INTRA.REPUL.0>
0

>  <SCORE.INTRA.SOLV>
0

>  <SCORE.INTRA.SOLV.lig_0>
-23.9151

>  <SCORE.INTRA.VDW>
0

>  <SCORE.INTRA.VDW.0>
0

>  <SCORE.INTRA.norm>
0

>  <SCORE.RESTR>
0

>  <SCORE.RESTR.CAVITY>
0

>  <SCORE.RESTR.norm>
0

>  <SCORE.SYSTEM>
0

>  <SCORE.SYSTEM.CONST>
0

>  <SCORE.SYSTEM.DIHEDRAL>
0

>  <SCORE.SYSTEM.SOLV>
0

>  <SCORE.SYSTEM.norm>
0

>  <SCORE.heavy>
10

>  <SCORE.norm>
-1.24805

>  <RMSD>
2.392

$$$$
ligand
 OpenBabel11021811503D
libRbt.so/2013.1/901 2013/11/27
 10 11  0  0  0  0  0  0  0  0999 V2000
    3.6700  -20.6236   24.3713 N   0  0  0  0  0  0  0  0  0  0  0  0
    2.8143  -21.4219   23.7299 C   0  0  0  0  0  0  0  0  0  0  0  0
    1.5547  -21.7410   24.0525 N   0  0  0  0  0  0  0  0  0  0  0  0
    1.1967  -21.1410   25.2038 C   0  0  0  0  0  0  0  0  0  0  0  0
    1.9670  -20.2941   25.9778 C   0  0  0  0  0  0  0  0  0  0  0  0
    3.2743  -20.0286   25.5240 C   0  0  0  0  0  0  0  0  0  0  0  0
    4.1303  -19.2321   26.1841 N   0  0  0  0  0  0  0  0  0  0  0  0
    1.2655  -19.8605   27.0879 N   0  0  0  0  0  0  0  0  0  0  0  0
    0.0983  -20.4360   26.9677 C   0  0  0  0  0  0  0  0  0  0  0  0
   -0.0090  -21.2306   25.8573 N   0  0  0  0  0  0  0  0  0  0  0  0
  1  2  2  0  0  0  0
  1  6  1  0  0  0  0
  2  3  1  0  0  0  0
  3  4  2  0  0  0  0
  4  5  1  0  0  0  0
  4 10  1  0  0  0  0
  5  6  2  0  0  0  0
  5  8  1  0  0  0  0
  6  7  1  0  0  0  0
  8  9  1  0  0  0  0
  9 10  2  0  0  0  0
M  END
>  <CHROM.1>
2.00589475,-20.59606995,25.49677252,0.30878032,-0.34417871,-2.15555516

>  <Name>
ligand

>  <RI>
0

>  <Rbt.Current_Directory>
/home/itssahil/PROJECTS/Mol_Feturizer/New_Systems/rnas/4LW0

>  <Rbt.Executable>
rbdock ($Id: //depot/dev/client3/rdock/2013.1/src/exe/rbdock.cxx#4 $)

>  <Rbt.Library>
libRbt.so (2013.1, Build901 2013/11/27)

>  <Rbt.Parameter_File>
/export/apps/rDock/src/rDock_2013.1_src/data/scripts/dock_solv.prm

>  <Rbt.Receptor>
prm/pocket_docking_3.prm

>  <SCORE>
-12.6567

>  <SCORE.INTER>
-12.6567

>  <SCORE.INTER.CONST>
1

>  <SCORE.INTER.POLAR>
0

>  <SCORE.INTER.ROT>
0

>  <SCORE.INTER.SOLV>
3.9287

>  <SCORE.INTER.VDW>
-13.3474

>  <SCORE.INTER.norm>
-1.26567

>  <SCORE.INTRA>
0

>  <SCORE.INTRA.DIHEDRAL>
0

>  <SCORE.INTRA.DIHEDRAL.0>
0

>  <SCORE.INTRA.POLAR>
0

>  <SCORE.INTRA.POLAR.0>
0

>  <SCORE.INTRA.REPUL>
0

>  <SCORE.INTRA.REPUL.0>
0

>  <SCORE.INTRA.SOLV>
0

>  <SCORE.INTRA.SOLV.lig_0>
-23.9151

>  <SCORE.INTRA.VDW>
0

>  <SCORE.INTRA.VDW.0>
0

>  <SCORE.INTRA.norm>
0

>  <SCORE.RESTR>
0

>  <SCORE.RESTR.CAVITY>
0

>  <SCORE.RESTR.norm>
0

>  <SCORE.SYSTEM>
0

>  <SCORE.SYSTEM.CONST>
0

>  <SCORE.SYSTEM.DIHEDRAL>
0

>  <SCORE.SYSTEM.SOLV>
0

>  <SCORE.SYSTEM.norm>
0

>  <SCORE.heavy>
10

>  <SCORE.norm>
-1.26567

>  <RMSD>
2.392

$$$$
ligand
 OpenBabel11021811503D
libRbt.so/2013.1/901 2013/11/27
 10 11  0  0  0  0  0  0  0  0999 V2000
    3.6610  -20.6265   24.4066 N   0  0  0  0  0  0  0  0  0  0  0  0
    2.8005  -21.4227   23.7688 C   0  0  0  0  0  0  0  0  0  0  0  0
    1.5325  -21.7168   24.0817 N   0  0  0  0  0  0  0  0  0  0  0  0
    1.1703  -21.0914   25.2181 C   0  0  0  0  0  0  0  0  0  0  0  0
    1.9445  -20.2430   25.9866 C   0  0  0  0  0  0  0  0  0  0  0  0
    3.2610  -20.0055   25.5440 C   0  0  0  0  0  0  0  0  0  0  0  0
    4.1215  -19.2109   26.2005 N   0  0  0  0  0  0  0  0  0  0  0  0
    1.2368  -19.7795   27.0805 N   0  0  0  0  0  0  0  0  0  0  0  0
    0.0623  -20.3390   26.9562 C   0  0  0  0  0  0  0  0  0  0  0  0
   -0.0443  -21.1511   25.8585 N   0  0  0  0  0  0  0  0  0  0  0  0
  1  2  2  0  0  0  0
  1  6  1  0  0  0  0
  2  3  1  0  0  0  0
  3  4  2  0  0  0  0
  4  5  1  0  0  0  0
  4 10  1  0  0  0  0
  5  6  2  0  0  0  0
  5  8  1  0  0  0  0
  6  7  1  0  0  0  0
  8  9  1  0  0  0  0
  9 10  2  0  0  0  0
M  END
>  <CHROM.1>
1.98434994,-20.55392004,25.51132602,0.30747902,-0.32473446,-2.17333107

>  <Name>
ligand

>  <RI>
0

>  <Rbt.Current_Directory>
/home/itssahil/PROJECTS/Mol_Feturizer/New_Systems/rnas/4LW0

>  <Rbt.Executable>
rbdock ($Id: //depot/dev/client3/rdock/2013.1/src/exe/rbdock.cxx#4 $)

>  <Rbt.Library>
libRbt.so (2013.1, Build901 2013/11/27)

>  <Rbt.Parameter_File>
/export/apps/rDock/src/rDock_2013.1_src/data/scripts/dock_solv.prm

>  <Rbt.Receptor>
prm/pocket_docking_3.prm

>  <SCORE>
-12.522

>  <SCORE.INTER>
-12.522

>  <SCORE.INTER.CONST>
1

>  <SCORE.INTER.POLAR>
0

>  <SCORE.INTER.ROT>
0

>  <SCORE.INTER.SOLV>
4.1127

>  <SCORE.INTER.VDW>
-13.3189

>  <SCORE.INTER.norm>
-1.2522

>  <SCORE.INTRA>
0

>  <SCORE.INTRA.DIHEDRAL>
0

>  <SCORE.INTRA.DIHEDRAL.0>
0

>  <SCORE.INTRA.POLAR>
0

>  <SCORE.INTRA.POLAR.0>
0

>  <SCORE.INTRA.REPUL>
0

>  <SCORE.INTRA.REPUL.0>
0

>  <SCORE.INTRA.SOLV>
0

>  <SCORE.INTRA.SOLV.lig_0>
-23.9151

>  <SCORE.INTRA.VDW>
0

>  <SCORE.INTRA.VDW.0>
0

>  <SCORE.INTRA.norm>
0

>  <SCORE.RESTR>
0

>  <SCORE.RESTR.CAVITY>
0

>  <SCORE.RESTR.norm>
0

>  <SCORE.SYSTEM>
0

>  <SCORE.SYSTEM.CONST>
0

>  <SCORE.SYSTEM.DIHEDRAL>
0

>  <SCORE.SYSTEM.SOLV>
0

>  <SCORE.SYSTEM.norm>
0

>  <SCORE.heavy>
10

>  <SCORE.norm>
-1.2522

>  <RMSD>
2.392

$$$$
ligand
 OpenBabel11021811503D
libRbt.so/2013.1/901 2013/11/27
 10 11  0  0  0  0  0  0  0  0999 V2000
    3.6425  -20.5987   24.3376 N   0  0  0  0  0  0  0  0  0  0  0  0
    2.7780  -21.4050   23.7182 C   0  0  0  0  0  0  0  0  0  0  0  0
    1.5246  -21.7234   24.0645 N   0  0  0  0  0  0  0  0  0  0  0  0
    1.1842  -21.1129   25.2156 C   0  0  0  0  0  0  0  0  0  0  0  0
    1.9653  -20.2569   25.9685 C   0  0  0  0  0  0  0  0  0  0  0  0
    3.2643  -19.9932   25.4907 C   0  0  0  0  0  0  0  0  0  0  0  0
    4.1294  -19.1886   26.1289 N   0  0  0  0  0  0  0  0  0  0  0  0
    1.2810  -19.8138   27.0856 N   0  0  0  0  0  0  0  0  0  0  0  0
    0.1133  -20.3928   26.9902 C   0  0  0  0  0  0  0  0  0  0  0  0
   -0.0105  -21.1985   25.8896 N   0  0  0  0  0  0  0  0  0  0  0  0
  1  2  2  0  0  0  0
  1  6  1  0  0  0  0
  2  3  1  0  0  0  0
  3  4  2  0  0  0  0
  4  5  1  0  0  0  0
  4 10  1  0  0  0  0
  5  6  2  0  0  0  0
  5  8  1  0  0  0  0
  6  7  1  0  0  0  0
  8  9  1  0  0  0  0
  9 10  2  0  0  0  0
M  END
>  <CHROM.1>
1.99690712,-20.56347929,25.48988393,0.32206349,-0.35498844,-2.16082917

>  <Name>
ligand

>  <RI>
0

>  <Rbt.Current_Directory>
/home/itssahil/PROJECTS/Mol_Feturizer/New_Systems/rnas/4LW0

>  <Rbt.Executable>
rbdock ($Id: //depot/dev/client3/rdock/2013.1/src/exe/rbdock.cxx#4 $)

>  <Rbt.Library>
libRbt.so (2013.1, Build901 2013/11/27)

>  <Rbt.Parameter_File>
/export/apps/rDock/src/rDock_2013.1_src/data/scripts/dock_solv.prm

>  <Rbt.Receptor>
prm/pocket_docking_4.prm

>  <SCORE>
-12.6029

>  <SCORE.INTER>
-12.6029

>  <SCORE.INTER.CONST>
1

>  <SCORE.INTER.POLAR>
0

>  <SCORE.INTER.ROT>
0

>  <SCORE.INTER.SOLV>
3.95014

>  <SCORE.INTER.VDW>
-13.3187

>  <SCORE.INTER.norm>
-1.26029

>  <SCORE.INTRA>
0

>  <SCORE.INTRA.DIHEDRAL>
0

>  <SCORE.INTRA.DIHEDRAL.0>
0

>  <SCORE.INTRA.POLAR>
0

>  <SCORE.INTRA.POLAR.0>
0

>  <SCORE.INTRA.REPUL>
0

>  <SCORE.INTRA.REPUL.0>
0

>  <SCORE.INTRA.SOLV>
0

>  <SCORE.INTRA.SOLV.lig_0>
-23.9151

>  <SCORE.INTRA.VDW>
0

>  <SCORE.INTRA.VDW.0>
0

>  <SCORE.INTRA.norm>
0

>  <SCORE.RESTR>
0

>  <SCORE.RESTR.CAVITY>
0

>  <SCORE.RESTR.norm>
0

>  <SCORE.SYSTEM>
0

>  <SCORE.SYSTEM.CONST>
0

>  <SCORE.SYSTEM.DIHEDRAL>
0

>  <SCORE.SYSTEM.SOLV>
0

>  <SCORE.SYSTEM.norm>
0

>  <SCORE.heavy>
10

>  <SCORE.norm>
-1.26029

>  <RMSD>
2.392

$$$$
ligand
 OpenBabel11021811503D
libRbt.so/2013.1/901 2013/11/27
 10 11  0  0  0  0  0  0  0  0999 V2000
    3.6562  -20.6147   24.3812 N   0  0  0  0  0  0  0  0  0  0  0  0
    2.7948  -21.4213   23.7581 C   0  0  0  0  0  0  0  0  0  0  0  0
    1.5292  -21.7150   24.0814 N   0  0  0  0  0  0  0  0  0  0  0  0
    1.1712  -21.0763   25.2117 C   0  0  0  0  0  0  0  0  0  0  0  0
    1.9470  -20.2161   25.9653 C   0  0  0  0  0  0  0  0  0  0  0  0
    3.2604  -19.9805   25.5128 C   0  0  0  0  0  0  0  0  0  0  0  0
    4.1220  -19.1751   26.1547 N   0  0  0  0  0  0  0  0  0  0  0  0
    1.2436  -19.7407   27.0569 N   0  0  0  0  0  0  0  0  0  0  0  0
    0.0702  -20.3051   26.9459 C   0  0  0  0  0  0  0  0  0  0  0  0
   -0.0398  -21.1314   25.8592 N   0  0  0  0  0  0  0  0  0  0  0  0
  1  2  2  0  0  0  0
  1  6  1  0  0  0  0
  2  3  1  0  0  0  0
  3  4  2  0  0  0  0
  4  5  1  0  0  0  0
  4 10  1  0  0  0  0
  5  6  2  0  0  0  0
  5  8  1  0  0  0  0
  6  7  1  0  0  0  0
  8  9  1  0  0  0  0
  9 10  2  0  0  0  0
M  END
>  <CHROM.1>
1.98521525,-20.53283074,25.49378154,0.31030251,-0.33009295,-2.18508098

>  <Name>
ligand

>  <RI>
0

>  <Rbt.Current_Directory>
/home/itssahil/PROJECTS/Mol_Feturizer/New_Systems/rnas/4LW0

>  <Rbt.Executable>
rbdock ($Id: //depot/dev/client3/rdock/2013.1/src/exe/rbdock.cxx#4 $)

>  <Rbt.Library>
libRbt.so (2013.1, Build901 2013/11/27)

>  <Rbt.Parameter_File>
/export/apps/rDock/src/rDock_2013.1_src/data/scripts/dock_solv.prm

>  <Rbt.Receptor>
prm/pocket_docking_5.prm

>  <SCORE>
-12.5135

>  <SCORE.INTER>
-12.5135

>  <SCORE.INTER.CONST>
1

>  <SCORE.INTER.POLAR>
0

>  <SCORE.INTER.ROT>
0

>  <SCORE.INTER.SOLV>
4.13016

>  <SCORE.INTER.VDW>
-13.3191

>  <SCORE.INTER.norm>
-1.25135

>  <SCORE.INTRA>
0

>  <SCORE.INTRA.DIHEDRAL>
0

>  <SCORE.INTRA.DIHEDRAL.0>
0

>  <SCORE.INTRA.POLAR>
0

>  <SCORE.INTRA.POLAR.0>
0

>  <SCORE.INTRA.REPUL>
0

>  <SCORE.INTRA.REPUL.0>
0

>  <SCORE.INTRA.SOLV>
0

>  <SCORE.INTRA.SOLV.lig_0>
-23.9151

>  <SCORE.INTRA.VDW>
0

>  <SCORE.INTRA.VDW.0>
0

>  <SCORE.INTRA.norm>
0

>  <SCORE.RESTR>
0

>  <SCORE.RESTR.CAVITY>
0

>  <SCORE.RESTR.norm>
0

>  <SCORE.SYSTEM>
0

>  <SCORE.SYSTEM.CONST>
0

>  <SCORE.SYSTEM.DIHEDRAL>
0

>  <SCORE.SYSTEM.SOLV>
0

>  <SCORE.SYSTEM.norm>
0

>  <SCORE.heavy>
10

>  <SCORE.norm>
-1.25135

>  <RMSD>
2.392

$$$$
ligand
 OpenBabel11021811503D
libRbt.so/2013.1/901 2013/11/27
 10 11  0  0  0  0  0  0  0  0999 V2000
    3.6654  -20.6266   24.3596 N   0  0  0  0  0  0  0  0  0  0  0  0
    2.8099  -21.4398   23.7369 C   0  0  0  0  0  0  0  0  0  0  0  0
    1.5468  -21.7432   24.0606 N   0  0  0  0  0  0  0  0  0  0  0  0
    1.1843  -21.1073   25.1910 C   0  0  0  0  0  0  0  0  0  0  0  0
    1.9537  -20.2411   25.9443 C   0  0  0  0  0  0  0  0  0  0  0  0
    3.2651  -19.9954   25.4913 C   0  0  0  0  0  0  0  0  0  0  0  0
    4.1208  -19.1835   26.1329 N   0  0  0  0  0  0  0  0  0  0  0  0
    1.2472  -19.7711   27.0363 N   0  0  0  0  0  0  0  0  0  0  0  0
    0.0781  -20.3446   26.9258 C   0  0  0  0  0  0  0  0  0  0  0  0
   -0.0261  -21.1717   25.8391 N   0  0  0  0  0  0  0  0  0  0  0  0
  1  2  2  0  0  0  0
  1  6  1  0  0  0  0
  2  3  1  0  0  0  0
  3  4  2  0  0  0  0
  4  5  1  0  0  0  0
  4 10  1  0  0  0  0
  5  6  2  0  0  0  0
  5  8  1  0  0  0  0
  6  7  1  0  0  0  0
  8  9  1  0  0  0  0
  9 10  2  0  0  0  0
M  END
>  <CHROM.1>
1.99420291,-20.55757444,25.47284235,0.30595275,-0.33660506,-2.18651458

>  <Name>
ligand

>  <RI>
0

>  <Rbt.Current_Directory>
/home/itssahil/PROJECTS/Mol_Feturizer/New_Systems/rnas/4LW0

>  <Rbt.Executable>
rbdock ($Id: //depot/dev/client3/rdock/2013.1/src/exe/rbdock.cxx#4 $)

>  <Rbt.Library>
libRbt.so (2013.1, Build901 2013/11/27)

>  <Rbt.Parameter_File>
/export/apps/rDock/src/rDock_2013.1_src/data/scripts/dock_solv.prm

>  <Rbt.Receptor>
prm/pocket_docking_5.prm

>  <SCORE>
-12.5547

>  <SCORE.INTER>
-12.5547

>  <SCORE.INTER.CONST>
1

>  <SCORE.INTER.POLAR>
0

>  <SCORE.INTER.ROT>
0

>  <SCORE.INTER.SOLV>
4.0208

>  <SCORE.INTER.VDW>
-13.3101

>  <SCORE.INTER.norm>
-1.25547

>  <SCORE.INTRA>
0

>  <SCORE.INTRA.DIHEDRAL>
0

>  <SCORE.INTRA.DIHEDRAL.0>
0

>  <SCORE.INTRA.POLAR>
0

>  <SCORE.INTRA.POLAR.0>
0

>  <SCORE.INTRA.REPUL>
0

>  <SCORE.INTRA.REPUL.0>
0

>  <SCORE.INTRA.SOLV>
0

>  <SCORE.INTRA.SOLV.lig_0>
-23.9151

>  <SCORE.INTRA.VDW>
0

>  <SCORE.INTRA.VDW.0>
0

>  <SCORE.INTRA.norm>
0

>  <SCORE.RESTR>
0

>  <SCORE.RESTR.CAVITY>
0

>  <SCORE.RESTR.norm>
0

>  <SCORE.SYSTEM>
0

>  <SCORE.SYSTEM.CONST>
0

>  <SCORE.SYSTEM.DIHEDRAL>
0

>  <SCORE.SYSTEM.SOLV>
0

>  <SCORE.SYSTEM.norm>
0

>  <SCORE.heavy>
10

>  <SCORE.norm>
-1.25547

>  <RMSD>
2.392

$$$$
ligand
 OpenBabel11021811503D
libRbt.so/2013.1/901 2013/11/27
 10 11  0  0  0  0  0  0  0  0999 V2000
    3.6515  -20.6037   24.3806 N   0  0  0  0  0  0  0  0  0  0  0  0
    2.8049  -21.4134   23.7414 C   0  0  0  0  0  0  0  0  0  0  0  0
    1.5478  -21.7430   24.0628 N   0  0  0  0  0  0  0  0  0  0  0  0
    1.1815  -21.1407   25.2104 C   0  0  0  0  0  0  0  0  0  0  0  0
    1.9419  -20.2826   25.9818 C   0  0  0  0  0  0  0  0  0  0  0  0
    3.2475  -20.0068   25.5294 C   0  0  0  0  0  0  0  0  0  0  0  0
    4.0944  -19.1988   26.1874 N   0  0  0  0  0  0  0  0  0  0  0  0
    1.2337  -19.8503   27.0882 N   0  0  0  0  0  0  0  0  0  0  0  0
    0.0725  -20.4376   26.9683 C   0  0  0  0  0  0  0  0  0  0  0  0
   -0.0248  -21.2387   25.8617 N   0  0  0  0  0  0  0  0  0  0  0  0
  1  2  2  0  0  0  0
  1  6  1  0  0  0  0
  2  3  1  0  0  0  0
  3  4  2  0  0  0  0
  4  5  1  0  0  0  0
  4 10  1  0  0  0  0
  5  6  2  0  0  0  0
  5  8  1  0  0  0  0
  6  7  1  0  0  0  0
  8  9  1  0  0  0  0
  9 10  2  0  0  0  0
M  END
>  <CHROM.1>
1.98472742,-20.58658227,25.50236024,0.30116003,-0.35098018,-2.16315523

>  <Name>
ligand

>  <RI>
0

>  <Rbt.Current_Directory>
/home/itssahil/PROJECTS/Mol_Feturizer/New_Systems/rnas/4LW0

>  <Rbt.Executable>
rbdock ($Id: //depot/dev/client3/rdock/2013.1/src/exe/rbdock.cxx#4 $)

>  <Rbt.Library>
libRbt.so (2013.1, Build901 2013/11/27)

>  <Rbt.Parameter_File>
/export/apps/rDock/src/rDock_2013.1_src/data/scripts/dock_solv.prm

>  <Rbt.Receptor>
prm/pocket_docking_6.prm

>  <SCORE>
-12.6329

>  <SCORE.INTER>
-12.6329

>  <SCORE.INTER.CONST>
1

>  <SCORE.INTER.POLAR>
0

>  <SCORE.INTER.ROT>
0

>  <SCORE.INTER.SOLV>
4.15984

>  <SCORE.INTER.VDW>
-13.4086

>  <SCORE.INTER.norm>
-1.26329

>  <SCORE.INTRA>
0

>  <SCORE.INTRA.DIHEDRAL>
0

>  <SCORE.INTRA.DIHEDRAL.0>
0

>  <SCORE.INTRA.POLAR>
0

>  <SCORE.INTRA.POLAR.0>
0

>  <SCORE.INTRA.REPUL>
0

>  <SCORE.INTRA.REPUL.0>
0

>  <SCORE.INTRA.SOLV>
0

>  <SCORE.INTRA.SOLV.lig_0>
-23.9151

>  <SCORE.INTRA.VDW>
0

>  <SCORE.INTRA.VDW.0>
0

>  <SCORE.INTRA.norm>
0

>  <SCORE.RESTR>
0

>  <SCORE.RESTR.CAVITY>
0

>  <SCORE.RESTR.norm>
0

>  <SCORE.SYSTEM>
0

>  <SCORE.SYSTEM.CONST>
0

>  <SCORE.SYSTEM.DIHEDRAL>
0

>  <SCORE.SYSTEM.SOLV>
0

>  <SCORE.SYSTEM.norm>
0

>  <SCORE.heavy>
10

>  <SCORE.norm>
-1.26329

>  <RMSD>
2.392

$$$$
ligand
 OpenBabel11021811503D
libRbt.so/2013.1/901 2013/11/27
 10 11  0  0  0  0  0  0  0  0999 V2000
    3.6628  -20.6285   24.3613 N   0  0  0  0  0  0  0  0  0  0  0  0
    2.8071  -21.4431   23.7407 C   0  0  0  0  0  0  0  0  0  0  0  0
    1.5432  -21.7437   24.0642 N   0  0  0  0  0  0  0  0  0  0  0  0
    1.1802  -21.1029   25.1917 C   0  0  0  0  0  0  0  0  0  0  0  0
    1.9497  -20.2347   25.9424 C   0  0  0  0  0  0  0  0  0  0  0  0
    3.2620  -19.9924   25.4900 C   0  0  0  0  0  0  0  0  0  0  0  0
    4.1179  -19.1789   26.1293 N   0  0  0  0  0  0  0  0  0  0  0  0
    1.2425  -19.7596   27.0317 N   0  0  0  0  0  0  0  0  0  0  0  0
    0.0728  -20.3320   26.9220 C   0  0  0  0  0  0  0  0  0  0  0  0
   -0.0310  -21.1633   25.8385 N   0  0  0  0  0  0  0  0  0  0  0  0
  1  2  2  0  0  0  0
  1  6  1  0  0  0  0
  2  3  1  0  0  0  0
  3  4  2  0  0  0  0
  4  5  1  0  0  0  0
  4 10  1  0  0  0  0
  5  6  2  0  0  0  0
  5  8  1  0  0  0  0
  6  7  1  0  0  0  0
  8  9  1  0  0  0  0
  9 10  2  0  0  0  0
M  END
>  <CHROM.1>
1.99039901,-20.55306381,25.47223382,0.30567456,-0.33493813,-2.19055918

>  <Name>
ligand

>  <RI>
0

>  <Rbt.Current_Directory>
/home/itssahil/PROJECTS/Mol_Feturizer/New_Systems/rnas/4LW0

>  <Rbt.Executable>
rbdock ($Id: //depot/dev/client3/rdock/2013.1/src/exe/rbdock.cxx#4 $)

>  <Rbt.Library>
libRbt.so (2013.1, Build901 2013/11/27)

>  <Rbt.Parameter_File>
/export/apps/rDock/src/rDock_2013.1_src/data/scripts/dock_solv.prm

>  <Rbt.Receptor>
prm/pocket_docking_7.prm

>  <SCORE>
-12.555

>  <SCORE.INTER>
-12.555

>  <SCORE.INTER.CONST>
1

>  <SCORE.INTER.POLAR>
0

>  <SCORE.INTER.ROT>
0

>  <SCORE.INTER.SOLV>
4.04231

>  <SCORE.INTER.VDW>
-13.3174

>  <SCORE.INTER.norm>
-1.2555

>  <SCORE.INTRA>
0

>  <SCORE.INTRA.DIHEDRAL>
0

>  <SCORE.INTRA.DIHEDRAL.0>
0

>  <SCORE.INTRA.POLAR>
0

>  <SCORE.INTRA.POLAR.0>
0

>  <SCORE.INTRA.REPUL>
0

>  <SCORE.INTRA.REPUL.0>
0

>  <SCORE.INTRA.SOLV>
0

>  <SCORE.INTRA.SOLV.lig_0>
-23.9151

>  <SCORE.INTRA.VDW>
0

>  <SCORE.INTRA.VDW.0>
0

>  <SCORE.INTRA.norm>
0

>  <SCORE.RESTR>
0

>  <SCORE.RESTR.CAVITY>
0

>  <SCORE.RESTR.norm>
0

>  <SCORE.SYSTEM>
0

>  <SCORE.SYSTEM.CONST>
0

>  <SCORE.SYSTEM.DIHEDRAL>
0

>  <SCORE.SYSTEM.SOLV>
0

>  <SCORE.SYSTEM.norm>
0

>  <SCORE.heavy>
10

>  <SCORE.norm>
-1.2555

>  <RMSD>
2.392

$$$$
ligand
 OpenBabel11021811503D
libRbt.so/2013.1/901 2013/11/27
 10 11  0  0  0  0  0  0  0  0999 V2000
    3.6663  -20.6317   24.3953 N   0  0  0  0  0  0  0  0  0  0  0  0
    2.8111  -21.4273   23.7498 C   0  0  0  0  0  0  0  0  0  0  0  0
    1.5488  -21.7417   24.0657 N   0  0  0  0  0  0  0  0  0  0  0  0
    1.1867  -21.1399   25.2148 C   0  0  0  0  0  0  0  0  0  0  0  0
    1.9558  -20.2953   25.9925 C   0  0  0  0  0  0  0  0  0  0  0  0
    3.2664  -20.0347   25.5455 C   0  0  0  0  0  0  0  0  0  0  0  0
    4.1218  -19.2409   26.2099 N   0  0  0  0  0  0  0  0  0  0  0  0
    1.2498  -19.8586   27.0985 N   0  0  0  0  0  0  0  0  0  0  0  0
    0.0813  -20.4300   26.9723 C   0  0  0  0  0  0  0  0  0  0  0  0
   -0.0229  -21.2249   25.8618 N   0  0  0  0  0  0  0  0  0  0  0  0
  1  2  2  0  0  0  0
  1  6  1  0  0  0  0
  2  3  1  0  0  0  0
  3  4  2  0  0  0  0
  4  5  1  0  0  0  0
  4 10  1  0  0  0  0
  5  6  2  0  0  0  0
  5  8  1  0  0  0  0
  6  7  1  0  0  0  0
  8  9  1  0  0  0  0
  9 10  2  0  0  0  0
M  END
>  <CHROM.1>
1.99620025,-20.59766105,25.51181832,0.30610078,-0.33823775,-2.15699136

>  <Name>
ligand

>  <RI>
0

>  <Rbt.Current_Directory>
/home/itssahil/PROJECTS/Mol_Feturizer/New_Systems/rnas/4LW0

>  <Rbt.Executable>
rbdock ($Id: //depot/dev/client3/rdock/2013.1/src/exe/rbdock.cxx#4 $)

>  <Rbt.Library>
libRbt.so (2013.1, Build901 2013/11/27)

>  <Rbt.Parameter_File>
/export/apps/rDock/src/rDock_2013.1_src/data/scripts/dock_solv.prm

>  <Rbt.Receptor>
prm/pocket_docking_7.prm

>  <SCORE>
-12.6425

>  <SCORE.INTER>
-12.6425

>  <SCORE.INTER.CONST>
1

>  <SCORE.INTER.POLAR>
0

>  <SCORE.INTER.ROT>
0

>  <SCORE.INTER.SOLV>
3.99321

>  <SCORE.INTER.VDW>
-13.3594

>  <SCORE.INTER.norm>
-1.26425

>  <SCORE.INTRA>
0

>  <SCORE.INTRA.DIHEDRAL>
0

>  <SCORE.INTRA.DIHEDRAL.0>
0

>  <SCORE.INTRA.POLAR>
0

>  <SCORE.INTRA.POLAR.0>
0

>  <SCORE.INTRA.REPUL>
0

>  <SCORE.INTRA.REPUL.0>
0

>  <SCORE.INTRA.SOLV>
0

>  <SCORE.INTRA.SOLV.lig_0>
-23.9151

>  <SCORE.INTRA.VDW>
0

>  <SCORE.INTRA.VDW.0>
0

>  <SCORE.INTRA.norm>
0

>  <SCORE.RESTR>
0

>  <SCORE.RESTR.CAVITY>
0

>  <SCORE.RESTR.norm>
0

>  <SCORE.SYSTEM>
0

>  <SCORE.SYSTEM.CONST>
0

>  <SCORE.SYSTEM.DIHEDRAL>
0

>  <SCORE.SYSTEM.SOLV>
0

>  <SCORE.SYSTEM.norm>
0

>  <SCORE.heavy>
10

>  <SCORE.norm>
-1.26425

>  <RMSD>
2.392

$$$$
ligand
 OpenBabel11021811503D
libRbt.so/2013.1/901 2013/11/27
 10 11  0  0  0  0  0  0  0  0999 V2000
    3.6682  -20.6367   24.3770 N   0  0  0  0  0  0  0  0  0  0  0  0
    2.8139  -21.4514   23.7545 C   0  0  0  0  0  0  0  0  0  0  0  0
    1.5455  -21.7428   24.0683 N   0  0  0  0  0  0  0  0  0  0  0  0
    1.1755  -21.0917   25.1876 C   0  0  0  0  0  0  0  0  0  0  0  0
    1.9427  -20.2221   25.9391 C   0  0  0  0  0  0  0  0  0  0  0  0
    3.2604  -19.9901   25.4972 C   0  0  0  0  0  0  0  0  0  0  0  0
    4.1146  -19.1765   26.1385 N   0  0  0  0  0  0  0  0  0  0  0  0
    1.2279  -19.7351   27.0182 N   0  0  0  0  0  0  0  0  0  0  0  0
    0.0562  -20.3022   26.9018 C   0  0  0  0  0  0  0  0  0  0  0  0
   -0.0420  -21.1408   25.8235 N   0  0  0  0  0  0  0  0  0  0  0  0
  1  2  2  0  0  0  0
  1  6  1  0  0  0  0
  2  3  1  0  0  0  0
  3  4  2  0  0  0  0
  4  5  1  0  0  0  0
  4 10  1  0  0  0  0
  5  6  2  0  0  0  0
  5  8  1  0  0  0  0
  6  7  1  0  0  0  0
  8  9  1  0  0  0  0
  9 10  2  0  0  0  0
M  END
>  <CHROM.1>
1.98601858,-20.54414650,25.47166417,0.30097965,-0.32513945,-2.19946143

>  <Name>
ligand

>  <RI>
0

>  <Rbt.Current_Directory>
/home/itssahil/PROJECTS/Mol_Feturizer/New_Systems/rnas/4LW0

>  <Rbt.Executable>
rbdock ($Id: //depot/dev/client3/rdock/2013.1/src/exe/rbdock.cxx#4 $)

>  <Rbt.Library>
libRbt.so (2013.1, Build901 2013/11/27)

>  <Rbt.Parameter_File>
/export/apps/rDock/src/rDock_2013.1_src/data/scripts/dock_solv.prm

>  <Rbt.Receptor>
prm/pocket_docking_8.prm

>  <SCORE>
-12.5547

>  <SCORE.INTER>
-12.5547

>  <SCORE.INTER.CONST>
1

>  <SCORE.INTER.POLAR>
0

>  <SCORE.INTER.ROT>
0

>  <SCORE.INTER.SOLV>
4.10162

>  <SCORE.INTER.VDW>
-13.337

>  <SCORE.INTER.norm>
-1.25547

>  <SCORE.INTRA>
0

>  <SCORE.INTRA.DIHEDRAL>
0

>  <SCORE.INTRA.DIHEDRAL.0>
0

>  <SCORE.INTRA.POLAR>
0

>  <SCORE.INTRA.POLAR.0>
0

>  <SCORE.INTRA.REPUL>
0

>  <SCORE.INTRA.REPUL.0>
0

>  <SCORE.INTRA.SOLV>
0

>  <SCORE.INTRA.SOLV.lig_0>
-23.9151

>  <SCORE.INTRA.VDW>
0

>  <SCORE.INTRA.VDW.0>
0

>  <SCORE.INTRA.norm>
0

>  <SCORE.RESTR>
0

>  <SCORE.RESTR.CAVITY>
0

>  <SCORE.RESTR.norm>
0

>  <SCORE.SYSTEM>
0

>  <SCORE.SYSTEM.CONST>
0

>  <SCORE.SYSTEM.DIHEDRAL>
0

>  <SCORE.SYSTEM.SOLV>
0

>  <SCORE.SYSTEM.norm>
0

>  <SCORE.heavy>
10

>  <SCORE.norm>
-1.25547

>  <RMSD>
2.392

$$$$
ligand
 OpenBabel11021811503D
libRbt.so/2013.1/901 2013/11/27
 10 11  0  0  0  0  0  0  0  0999 V2000
    3.6432  -20.5999   24.3777 N   0  0  0  0  0  0  0  0  0  0  0  0
    2.7745  -21.4014   23.7580 C   0  0  0  0  0  0  0  0  0  0  0  0
    1.5144  -21.7016   24.0962 N   0  0  0  0  0  0  0  0  0  0  0  0
    1.1715  -21.0766   25.2388 C   0  0  0  0  0  0  0  0  0  0  0  0
    1.9563  -20.2233   25.9908 C   0  0  0  0  0  0  0  0  0  0  0  0
    3.2625  -19.9796   25.5221 C   0  0  0  0  0  0  0  0  0  0  0  0
    4.1317  -19.1797   26.1606 N   0  0  0  0  0  0  0  0  0  0  0  0
    1.2679  -19.7620   27.0980 N   0  0  0  0  0  0  0  0  0  0  0  0
    0.0941  -20.3277   26.9975 C   0  0  0  0  0  0  0  0  0  0  0  0
   -0.0299  -21.1418   25.9031 N   0  0  0  0  0  0  0  0  0  0  0  0
  1  2  2  0  0  0  0
  1  6  1  0  0  0  0
  2  3  1  0  0  0  0
  3  4  2  0  0  0  0
  4  5  1  0  0  0  0
  4 10  1  0  0  0  0
  5  6  2  0  0  0  0
  5  8  1  0  0  0  0
  6  7  1  0  0  0  0
  8  9  1  0  0  0  0
  9 10  2  0  0  0  0
M  END
>  <CHROM.1>
1.98835734,-20.53455853,25.51527073,0.32160883,-0.34015624,-2.16994634

>  <Name>
ligand

>  <RI>
0

>  <Rbt.Current_Directory>
/home/itssahil/PROJECTS/Mol_Feturizer/New_Systems/rnas/4LW0

>  <Rbt.Executable>
rbdock ($Id: //depot/dev/client3/rdock/2013.1/src/exe/rbdock.cxx#4 $)

>  <Rbt.Library>
libRbt.so (2013.1, Build901 2013/11/27)

>  <Rbt.Parameter_File>
/export/apps/rDock/src/rDock_2013.1_src/data/scripts/dock_solv.prm

>  <Rbt.Receptor>
prm/pocket_docking_8.prm

>  <SCORE>
-12.5531

>  <SCORE.INTER>
-12.5531

>  <SCORE.INTER.CONST>
1

>  <SCORE.INTER.POLAR>
0

>  <SCORE.INTER.ROT>
0

>  <SCORE.INTER.SOLV>
4.09012

>  <SCORE.INTER.VDW>
-13.3321

>  <SCORE.INTER.norm>
-1.25531

>  <SCORE.INTRA>
0

>  <SCORE.INTRA.DIHEDRAL>
0

>  <SCORE.INTRA.DIHEDRAL.0>
0

>  <SCORE.INTRA.POLAR>
0

>  <SCORE.INTRA.POLAR.0>
0

>  <SCORE.INTRA.REPUL>
0

>  <SCORE.INTRA.REPUL.0>
0

>  <SCORE.INTRA.SOLV>
0

>  <SCORE.INTRA.SOLV.lig_0>
-23.9151

>  <SCORE.INTRA.VDW>
0

>  <SCORE.INTRA.VDW.0>
0

>  <SCORE.INTRA.norm>
0

>  <SCORE.RESTR>
0

>  <SCORE.RESTR.CAVITY>
0

>  <SCORE.RESTR.norm>
0

>  <SCORE.SYSTEM>
0

>  <SCORE.SYSTEM.CONST>
0

>  <SCORE.SYSTEM.DIHEDRAL>
0

>  <SCORE.SYSTEM.SOLV>
0

>  <SCORE.SYSTEM.norm>
0

>  <SCORE.heavy>
10

>  <SCORE.norm>
-1.25531

>  <RMSD>
2.392

$$$$
ligand
 OpenBabel11021811503D
libRbt.so/2013.1/901 2013/11/27
 10 11  0  0  0  0  0  0  0  0999 V2000
    3.6495  -20.6046   24.3385 N   0  0  0  0  0  0  0  0  0  0  0  0
    2.7956  -21.4230   23.7204 C   0  0  0  0  0  0  0  0  0  0  0  0
    1.5409  -21.7448   24.0587 N   0  0  0  0  0  0  0  0  0  0  0  0
    1.1862  -21.1230   25.1995 C   0  0  0  0  0  0  0  0  0  0  0  0
    1.9552  -20.2538   25.9496 C   0  0  0  0  0  0  0  0  0  0  0  0
    3.2572  -19.9881   25.4809 C   0  0  0  0  0  0  0  0  0  0  0  0
    4.1116  -19.1711   26.1178 N   0  0  0  0  0  0  0  0  0  0  0  0
    1.2581  -19.8019   27.0552 N   0  0  0  0  0  0  0  0  0  0  0  0
    0.0946  -20.3887   26.9556 C   0  0  0  0  0  0  0  0  0  0  0  0
   -0.0143  -21.2078   25.8633 N   0  0  0  0  0  0  0  0  0  0  0  0
  1  2  2  0  0  0  0
  1  6  1  0  0  0  0
  2  3  1  0  0  0  0
  3  4  2  0  0  0  0
  4  5  1  0  0  0  0
  4 10  1  0  0  0  0
  5  6  2  0  0  0  0
  5  8  1  0  0  0  0
  6  7  1  0  0  0  0
  8  9  1  0  0  0  0
  9 10  2  0  0  0  0
M  END
>  <CHROM.1>
1.99310502,-20.56571392,25.47492867,0.31037311,-0.35453434,-2.17645011

>  <Name>
ligand

>  <RI>
0

>  <Rbt.Current_Directory>
/home/itssahil/PROJECTS/Mol_Feturizer/New_Systems/rnas/4LW0

>  <Rbt.Executable>
rbdock ($Id: //depot/dev/client3/rdock/2013.1/src/exe/rbdock.cxx#4 $)

>  <Rbt.Library>
libRbt.so (2013.1, Build901 2013/11/27)

>  <Rbt.Parameter_File>
/export/apps/rDock/src/rDock_2013.1_src/data/scripts/dock_solv.prm

>  <Rbt.Receptor>
prm/pocket_docking_8.prm

>  <SCORE>
-12.6603

>  <SCORE.INTER>
-12.6603

>  <SCORE.INTER.CONST>
1

>  <SCORE.INTER.POLAR>
0

>  <SCORE.INTER.ROT>
0

>  <SCORE.INTER.SOLV>
4.03

>  <SCORE.INTER.VDW>
-13.3835

>  <SCORE.INTER.norm>
-1.26603

>  <SCORE.INTRA>
0

>  <SCORE.INTRA.DIHEDRAL>
0

>  <SCORE.INTRA.DIHEDRAL.0>
0

>  <SCORE.INTRA.POLAR>
0

>  <SCORE.INTRA.POLAR.0>
0

>  <SCORE.INTRA.REPUL>
0

>  <SCORE.INTRA.REPUL.0>
0

>  <SCORE.INTRA.SOLV>
0

>  <SCORE.INTRA.SOLV.lig_0>
-23.9151

>  <SCORE.INTRA.VDW>
0

>  <SCORE.INTRA.VDW.0>
0

>  <SCORE.INTRA.norm>
0

>  <SCORE.RESTR>
0

>  <SCORE.RESTR.CAVITY>
0

>  <SCORE.RESTR.norm>
0

>  <SCORE.SYSTEM>
0

>  <SCORE.SYSTEM.CONST>
0

>  <SCORE.SYSTEM.DIHEDRAL>
0

>  <SCORE.SYSTEM.SOLV>
0

>  <SCORE.SYSTEM.norm>
0

>  <SCORE.heavy>
10

>  <SCORE.norm>
-1.26603

>  <RMSD>
2.392

$$$$
ligand
 OpenBabel11021811503D
libRbt.so/2013.1/901 2013/11/27
 10 11  0  0  0  0  0  0  0  0999 V2000
    3.6705  -20.6268   24.3542 N   0  0  0  0  0  0  0  0  0  0  0  0
    2.8146  -21.4264   23.7146 C   0  0  0  0  0  0  0  0  0  0  0  0
    1.5554  -21.7455   24.0385 N   0  0  0  0  0  0  0  0  0  0  0  0
    1.1981  -21.1442   25.1893 C   0  0  0  0  0  0  0  0  0  0  0  0
    1.9686  -20.2959   25.9616 C   0  0  0  0  0  0  0  0  0  0  0  0
    3.2754  -20.0305   25.5064 C   0  0  0  0  0  0  0  0  0  0  0  0
    4.1316  -19.2328   26.1649 N   0  0  0  0  0  0  0  0  0  0  0  0
    1.2677  -19.8612   27.0716 N   0  0  0  0  0  0  0  0  0  0  0  0
    0.1007  -20.4373   26.9531 C   0  0  0  0  0  0  0  0  0  0  0  0
   -0.0072  -21.2334   25.8438 N   0  0  0  0  0  0  0  0  0  0  0  0
  1  2  2  0  0  0  0
  1  6  1  0  0  0  0
  2  3  1  0  0  0  0
  3  4  2  0  0  0  0
  4  5  1  0  0  0  0
  4 10  1  0  0  0  0
  5  6  2  0  0  0  0
  5  8  1  0  0  0  0
  6  7  1  0  0  0  0
  8  9  1  0  0  0  0
  9 10  2  0  0  0  0
M  END
>  <CHROM.1>
2.00720457,-20.59853441,25.48093470,0.30920326,-0.34494076,-2.15675236

>  <Name>
ligand

>  <RI>
0

>  <Rbt.Current_Directory>
/home/itssahil/PROJECTS/Mol_Feturizer/New_Systems/rnas/4LW0

>  <Rbt.Executable>
rbdock ($Id: //depot/dev/client3/rdock/2013.1/src/exe/rbdock.cxx#4 $)

>  <Rbt.Library>
libRbt.so (2013.1, Build901 2013/11/27)

>  <Rbt.Parameter_File>
/export/apps/rDock/src/rDock_2013.1_src/data/scripts/dock_solv.prm

>  <Rbt.Receptor>
prm/pocket_docking_3.prm

>  <SCORE>
-12.6524

>  <SCORE.INTER>
-12.6524

>  <SCORE.INTER.CONST>
1

>  <SCORE.INTER.POLAR>
0

>  <SCORE.INTER.ROT>
0

>  <SCORE.INTER.SOLV>
3.87416

>  <SCORE.INTER.VDW>
-13.3263

>  <SCORE.INTER.norm>
-1.26524

>  <SCORE.INTRA>
0

>  <SCORE.INTRA.DIHEDRAL>
0

>  <SCORE.INTRA.DIHEDRAL.0>
0

>  <SCORE.INTRA.POLAR>
0

>  <SCORE.INTRA.POLAR.0>
0

>  <SCORE.INTRA.REPUL>
0

>  <SCORE.INTRA.REPUL.0>
0

>  <SCORE.INTRA.SOLV>
0

>  <SCORE.INTRA.SOLV.lig_0>
-23.9151

>  <SCORE.INTRA.VDW>
0

>  <SCORE.INTRA.VDW.0>
0

>  <SCORE.INTRA.norm>
0

>  <SCORE.RESTR>
0

>  <SCORE.RESTR.CAVITY>
0

>  <SCORE.RESTR.norm>
0

>  <SCORE.SYSTEM>
0

>  <SCORE.SYSTEM.CONST>
0

>  <SCORE.SYSTEM.DIHEDRAL>
0

>  <SCORE.SYSTEM.SOLV>
0

>  <SCORE.SYSTEM.norm>
0

>  <SCORE.heavy>
10

>  <SCORE.norm>
-1.26524

>  <RMSD>
2.393

$$$$
ligand
 OpenBabel11021811503D
libRbt.so/2013.1/901 2013/11/27
 10 11  0  0  0  0  0  0  0  0999 V2000
    3.6635  -20.6276   24.3972 N   0  0  0  0  0  0  0  0  0  0  0  0
    2.8041  -21.4167   23.7493 C   0  0  0  0  0  0  0  0  0  0  0  0
    1.5416  -21.7290   24.0670 N   0  0  0  0  0  0  0  0  0  0  0  0
    1.1846  -21.1327   25.2205 C   0  0  0  0  0  0  0  0  0  0  0  0
    1.9586  -20.2951   26.0010 C   0  0  0  0  0  0  0  0  0  0  0  0
    3.2688  -20.0360   25.5520 C   0  0  0  0  0  0  0  0  0  0  0  0
    4.1285  -19.2489   26.2186 N   0  0  0  0  0  0  0  0  0  0  0  0
    1.2571  -19.8627   27.1116 N   0  0  0  0  0  0  0  0  0  0  0  0
    0.0864  -20.4297   26.9853 C   0  0  0  0  0  0  0  0  0  0  0  0
   -0.0234  -21.2176   25.8705 N   0  0  0  0  0  0  0  0  0  0  0  0
  1  2  2  0  0  0  0
  1  6  1  0  0  0  0
  2  3  1  0  0  0  0
  3  4  2  0  0  0  0
  4  5  1  0  0  0  0
  4 10  1  0  0  0  0
  5  6  2  0  0  0  0
  5  8  1  0  0  0  0
  6  7  1  0  0  0  0
  8  9  1  0  0  0  0
  9 10  2  0  0  0  0
M  END
>  <CHROM.1>
1.99668253,-20.59481042,25.51850158,0.31041422,-0.33711420,-2.14969504

>  <Name>
ligand

>  <RI>
0

>  <Rbt.Current_Directory>
/home/itssahil/PROJECTS/Mol_Feturizer/New_Systems/rnas/4LW0

>  <Rbt.Executable>
rbdock ($Id: //depot/dev/client3/rdock/2013.1/src/exe/rbdock.cxx#4 $)

>  <Rbt.Library>
libRbt.so (2013.1, Build901 2013/11/27)

>  <Rbt.Parameter_File>
/export/apps/rDock/src/rDock_2013.1_src/data/scripts/dock_solv.prm

>  <Rbt.Receptor>
prm/pocket_docking_3.prm

>  <SCORE>
-12.5623

>  <SCORE.INTER>
-12.5623

>  <SCORE.INTER.CONST>
1

>  <SCORE.INTER.POLAR>
0

>  <SCORE.INTER.ROT>
0

>  <SCORE.INTER.SOLV>
3.9702

>  <SCORE.INTER.VDW>
-13.2983

>  <SCORE.INTER.norm>
-1.25623

>  <SCORE.INTRA>
0

>  <SCORE.INTRA.DIHEDRAL>
0

>  <SCORE.INTRA.DIHEDRAL.0>
0

>  <SCORE.INTRA.POLAR>
0

>  <SCORE.INTRA.POLAR.0>
0

>  <SCORE.INTRA.REPUL>
0

>  <SCORE.INTRA.REPUL.0>
0

>  <SCORE.INTRA.SOLV>
0

>  <SCORE.INTRA.SOLV.lig_0>
-23.9151

>  <SCORE.INTRA.VDW>
0

>  <SCORE.INTRA.VDW.0>
0

>  <SCORE.INTRA.norm>
0

>  <SCORE.RESTR>
0

>  <SCORE.RESTR.CAVITY>
0

>  <SCORE.RESTR.norm>
0

>  <SCORE.SYSTEM>
0

>  <SCORE.SYSTEM.CONST>
0

>  <SCORE.SYSTEM.DIHEDRAL>
0

>  <SCORE.SYSTEM.SOLV>
0

>  <SCORE.SYSTEM.norm>
0

>  <SCORE.heavy>
10

>  <SCORE.norm>
-1.25623

>  <RMSD>
2.393

$$$$
ligand
 OpenBabel11021811503D
libRbt.so/2013.1/901 2013/11/27
 10 11  0  0  0  0  0  0  0  0999 V2000
    3.6730  -20.6315   24.3737 N   0  0  0  0  0  0  0  0  0  0  0  0
    2.8168  -21.4276   23.7302 C   0  0  0  0  0  0  0  0  0  0  0  0
    1.5553  -21.7427   24.0492 N   0  0  0  0  0  0  0  0  0  0  0  0
    1.1957  -21.1409   25.1990 C   0  0  0  0  0  0  0  0  0  0  0  0
    1.9662  -20.2959   25.9748 C   0  0  0  0  0  0  0  0  0  0  0  0
    3.2756  -20.0346   25.5248 C   0  0  0  0  0  0  0  0  0  0  0  0
    4.1321  -19.2403   26.1870 N   0  0  0  0  0  0  0  0  0  0  0  0
    1.2626  -19.8595   27.0825 N   0  0  0  0  0  0  0  0  0  0  0  0
    0.0941  -20.4315   26.9591 C   0  0  0  0  0  0  0  0  0  0  0  0
   -0.0123  -21.2265   25.8490 N   0  0  0  0  0  0  0  0  0  0  0  0
  1  2  2  0  0  0  0
  1  6  1  0  0  0  0
  2  3  1  0  0  0  0
  3  4  2  0  0  0  0
  4  5  1  0  0  0  0
  4 10  1  0  0  0  0
  5  6  2  0  0  0  0
  5  8  1  0  0  0  0
  6  7  1  0  0  0  0
  8  9  1  0  0  0  0
  9 10  2  0  0  0  0
M  END
>  <CHROM.1>
2.00558960,-20.59827393,25.49411451,0.30787513,-0.33999596,-2.15649412

>  <Name>
ligand

>  <RI>
0

>  <Rbt.Current_Directory>
/home/itssahil/PROJECTS/Mol_Feturizer/New_Systems/rnas/4LW0

>  <Rbt.Executable>
rbdock ($Id: //depot/dev/client3/rdock/2013.1/src/exe/rbdock.cxx#4 $)

>  <Rbt.Library>
libRbt.so (2013.1, Build901 2013/11/27)

>  <Rbt.Parameter_File>
/export/apps/rDock/src/rDock_2013.1_src/data/scripts/dock_solv.prm

>  <Rbt.Receptor>
prm/pocket_docking_3.prm

>  <SCORE>
-12.6589

>  <SCORE.INTER>
-12.6589

>  <SCORE.INTER.CONST>
1

>  <SCORE.INTER.POLAR>
0

>  <SCORE.INTER.ROT>
0

>  <SCORE.INTER.SOLV>
3.90553

>  <SCORE.INTER.VDW>
-13.3411

>  <SCORE.INTER.norm>
-1.26589

>  <SCORE.INTRA>
0

>  <SCORE.INTRA.DIHEDRAL>
0

>  <SCORE.INTRA.DIHEDRAL.0>
0

>  <SCORE.INTRA.POLAR>
0

>  <SCORE.INTRA.POLAR.0>
0

>  <SCORE.INTRA.REPUL>
0

>  <SCORE.INTRA.REPUL.0>
0

>  <SCORE.INTRA.SOLV>
0

>  <SCORE.INTRA.SOLV.lig_0>
-23.9151

>  <SCORE.INTRA.VDW>
0

>  <SCORE.INTRA.VDW.0>
0

>  <SCORE.INTRA.norm>
0

>  <SCORE.RESTR>
0

>  <SCORE.RESTR.CAVITY>
0

>  <SCORE.RESTR.norm>
0

>  <SCORE.SYSTEM>
0

>  <SCORE.SYSTEM.CONST>
0

>  <SCORE.SYSTEM.DIHEDRAL>
0

>  <SCORE.SYSTEM.SOLV>
0

>  <SCORE.SYSTEM.norm>
0

>  <SCORE.heavy>
10

>  <SCORE.norm>
-1.26589

>  <RMSD>
2.393

$$$$
ligand
 OpenBabel11021811503D
libRbt.so/2013.1/901 2013/11/27
 10 11  0  0  0  0  0  0  0  0999 V2000
    3.6820  -20.6540   24.4068 N   0  0  0  0  0  0  0  0  0  0  0  0
    2.8172  -21.4341   23.7553 C   0  0  0  0  0  0  0  0  0  0  0  0
    1.5500  -21.7328   24.0672 N   0  0  0  0  0  0  0  0  0  0  0  0
    1.1941  -21.1322   25.2189 C   0  0  0  0  0  0  0  0  0  0  0  0
    1.9733  -20.3026   26.0026 C   0  0  0  0  0  0  0  0  0  0  0  0
    3.2883  -20.0577   25.5595 C   0  0  0  0  0  0  0  0  0  0  0  0
    4.1532  -19.2795   26.2298 N   0  0  0  0  0  0  0  0  0  0  0  0
    1.2713  -19.8622   27.1097 N   0  0  0  0  0  0  0  0  0  0  0  0
    0.0953  -20.4167   26.9782 C   0  0  0  0  0  0  0  0  0  0  0  0
   -0.0178  -21.2040   25.8632 N   0  0  0  0  0  0  0  0  0  0  0  0
  1  2  2  0  0  0  0
  1  6  1  0  0  0  0
  2  3  1  0  0  0  0
  3  4  2  0  0  0  0
  4  5  1  0  0  0  0
  4 10  1  0  0  0  0
  5  6  2  0  0  0  0
  5  8  1  0  0  0  0
  6  7  1  0  0  0  0
  8  9  1  0  0  0  0
  9 10  2  0  0  0  0
M  END
>  <CHROM.1>
2.01043683,-20.60290033,25.52036822,0.31248330,-0.32564114,-2.14944373

>  <Name>
ligand

>  <RI>
0

>  <Rbt.Current_Directory>
/home/itssahil/PROJECTS/Mol_Feturizer/New_Systems/rnas/4LW0

>  <Rbt.Executable>
rbdock ($Id: //depot/dev/client3/rdock/2013.1/src/exe/rbdock.cxx#4 $)

>  <Rbt.Library>
libRbt.so (2013.1, Build901 2013/11/27)

>  <Rbt.Parameter_File>
/export/apps/rDock/src/rDock_2013.1_src/data/scripts/dock_solv.prm

>  <Rbt.Receptor>
prm/pocket_docking_4.prm

>  <SCORE>
-12.5827

>  <SCORE.INTER>
-12.5827

>  <SCORE.INTER.CONST>
1

>  <SCORE.INTER.POLAR>
0

>  <SCORE.INTER.ROT>
0

>  <SCORE.INTER.SOLV>
3.82441

>  <SCORE.INTER.VDW>
-13.2633

>  <SCORE.INTER.norm>
-1.25827

>  <SCORE.INTRA>
0

>  <SCORE.INTRA.DIHEDRAL>
0

>  <SCORE.INTRA.DIHEDRAL.0>
0

>  <SCORE.INTRA.POLAR>
0

>  <SCORE.INTRA.POLAR.0>
0

>  <SCORE.INTRA.REPUL>
0

>  <SCORE.INTRA.REPUL.0>
0

>  <SCORE.INTRA.SOLV>
0

>  <SCORE.INTRA.SOLV.lig_0>
-23.9151

>  <SCORE.INTRA.VDW>
0

>  <SCORE.INTRA.VDW.0>
0

>  <SCORE.INTRA.norm>
0

>  <SCORE.RESTR>
0

>  <SCORE.RESTR.CAVITY>
0

>  <SCORE.RESTR.norm>
0

>  <SCORE.SYSTEM>
0

>  <SCORE.SYSTEM.CONST>
0

>  <SCORE.SYSTEM.DIHEDRAL>
0

>  <SCORE.SYSTEM.SOLV>
0

>  <SCORE.SYSTEM.norm>
0

>  <SCORE.heavy>
10

>  <SCORE.norm>
-1.25827

>  <RMSD>
2.393

$$$$
ligand
 OpenBabel11021811503D
libRbt.so/2013.1/901 2013/11/27
 10 11  0  0  0  0  0  0  0  0999 V2000
    3.6613  -20.5661   24.3556 N   0  0  0  0  0  0  0  0  0  0  0  0
    2.8024  -21.3530   23.7045 C   0  0  0  0  0  0  0  0  0  0  0  0
    1.5462  -21.6820   24.0303 N   0  0  0  0  0  0  0  0  0  0  0  0
    1.1960  -21.1071   25.1967 C   0  0  0  0  0  0  0  0  0  0  0  0
    1.9704  -20.2746   25.9821 C   0  0  0  0  0  0  0  0  0  0  0  0
    3.2733  -19.9963   25.5236 C   0  0  0  0  0  0  0  0  0  0  0  0
    4.1327  -19.2116   26.1935 N   0  0  0  0  0  0  0  0  0  0  0  0
    1.2766  -19.8661   27.1065 N   0  0  0  0  0  0  0  0  0  0  0  0
    0.1100  -20.4419   26.9836 C   0  0  0  0  0  0  0  0  0  0  0  0
   -0.0044  -21.2135   25.8577 N   0  0  0  0  0  0  0  0  0  0  0  0
  1  2  2  0  0  0  0
  1  6  1  0  0  0  0
  2  3  1  0  0  0  0
  3  4  2  0  0  0  0
  4  5  1  0  0  0  0
  4 10  1  0  0  0  0
  5  6  2  0  0  0  0
  5  8  1  0  0  0  0
  6  7  1  0  0  0  0
  8  9  1  0  0  0  0
  9 10  2  0  0  0  0
M  END
>  <CHROM.1>
2.00612924,-20.56635458,25.49458578,0.31444644,-0.35056021,-2.13271379

>  <Name>
ligand

>  <RI>
0

>  <Rbt.Current_Directory>
/home/itssahil/PROJECTS/Mol_Feturizer/New_Systems/rnas/4LW0

>  <Rbt.Executable>
rbdock ($Id: //depot/dev/client3/rdock/2013.1/src/exe/rbdock.cxx#4 $)

>  <Rbt.Library>
libRbt.so (2013.1, Build901 2013/11/27)

>  <Rbt.Parameter_File>
/export/apps/rDock/src/rDock_2013.1_src/data/scripts/dock_solv.prm

>  <Rbt.Receptor>
prm/pocket_docking_4.prm

>  <SCORE>
-12.5899

>  <SCORE.INTER>
-12.5899

>  <SCORE.INTER.CONST>
1

>  <SCORE.INTER.POLAR>
0

>  <SCORE.INTER.ROT>
0

>  <SCORE.INTER.SOLV>
4.03422

>  <SCORE.INTER.VDW>
-13.338

>  <SCORE.INTER.norm>
-1.25899

>  <SCORE.INTRA>
0

>  <SCORE.INTRA.DIHEDRAL>
0

>  <SCORE.INTRA.DIHEDRAL.0>
0

>  <SCORE.INTRA.POLAR>
0

>  <SCORE.INTRA.POLAR.0>
0

>  <SCORE.INTRA.REPUL>
0

>  <SCORE.INTRA.REPUL.0>
0

>  <SCORE.INTRA.SOLV>
0

>  <SCORE.INTRA.SOLV.lig_0>
-23.9151

>  <SCORE.INTRA.VDW>
0

>  <SCORE.INTRA.VDW.0>
0

>  <SCORE.INTRA.norm>
0

>  <SCORE.RESTR>
0

>  <SCORE.RESTR.CAVITY>
0

>  <SCORE.RESTR.norm>
0

>  <SCORE.SYSTEM>
0

>  <SCORE.SYSTEM.CONST>
0

>  <SCORE.SYSTEM.DIHEDRAL>
0

>  <SCORE.SYSTEM.SOLV>
0

>  <SCORE.SYSTEM.norm>
0

>  <SCORE.heavy>
10

>  <SCORE.norm>
-1.25899

>  <RMSD>
2.393

$$$$
ligand
 OpenBabel11021811503D
libRbt.so/2013.1/901 2013/11/27
 10 11  0  0  0  0  0  0  0  0999 V2000
    3.6881  -20.6555   24.4011 N   0  0  0  0  0  0  0  0  0  0  0  0
    2.8327  -21.4441   23.7474 C   0  0  0  0  0  0  0  0  0  0  0  0
    1.5642  -21.7468   24.0503 N   0  0  0  0  0  0  0  0  0  0  0  0
    1.1956  -21.1404   25.1949 C   0  0  0  0  0  0  0  0  0  0  0  0
    1.9640  -20.3019   25.9798 C   0  0  0  0  0  0  0  0  0  0  0  0
    3.2816  -20.0536   25.5464 C   0  0  0  0  0  0  0  0  0  0  0  0
    4.1370  -19.2668   26.2188 N   0  0  0  0  0  0  0  0  0  0  0  0
    1.2504  -19.8576   27.0779 N   0  0  0  0  0  0  0  0  0  0  0  0
    0.0782  -20.4186   26.9400 C   0  0  0  0  0  0  0  0  0  0  0  0
   -0.0215  -21.2137   25.8293 N   0  0  0  0  0  0  0  0  0  0  0  0
  1  2  2  0  0  0  0
  1  6  1  0  0  0  0
  2  3  1  0  0  0  0
  3  4  2  0  0  0  0
  4  5  1  0  0  0  0
  4 10  1  0  0  0  0
  5  6  2  0  0  0  0
  5  8  1  0  0  0  0
  6  7  1  0  0  0  0
  8  9  1  0  0  0  0
  9 10  2  0  0  0  0
M  END
>  <CHROM.1>
2.00675023,-20.60514355,25.49986840,0.30211640,-0.32490725,-2.15938182

>  <Name>
ligand

>  <RI>
0

>  <Rbt.Current_Directory>
/home/itssahil/PROJECTS/Mol_Feturizer/New_Systems/rnas/4LW0

>  <Rbt.Executable>
rbdock ($Id: //depot/dev/client3/rdock/2013.1/src/exe/rbdock.cxx#4 $)

>  <Rbt.Library>
libRbt.so (2013.1, Build901 2013/11/27)

>  <Rbt.Parameter_File>
/export/apps/rDock/src/rDock_2013.1_src/data/scripts/dock_solv.prm

>  <Rbt.Receptor>
prm/pocket_docking_5.prm

>  <SCORE>
-12.5377

>  <SCORE.INTER>
-12.5377

>  <SCORE.INTER.CONST>
1

>  <SCORE.INTER.POLAR>
0

>  <SCORE.INTER.ROT>
0

>  <SCORE.INTER.SOLV>
3.88512

>  <SCORE.INTER.VDW>
-13.2535

>  <SCORE.INTER.norm>
-1.25377

>  <SCORE.INTRA>
0

>  <SCORE.INTRA.DIHEDRAL>
0

>  <SCORE.INTRA.DIHEDRAL.0>
0

>  <SCORE.INTRA.POLAR>
0

>  <SCORE.INTRA.POLAR.0>
0

>  <SCORE.INTRA.REPUL>
0

>  <SCORE.INTRA.REPUL.0>
0

>  <SCORE.INTRA.SOLV>
0

>  <SCORE.INTRA.SOLV.lig_0>
-23.9151

>  <SCORE.INTRA.VDW>
0

>  <SCORE.INTRA.VDW.0>
0

>  <SCORE.INTRA.norm>
0

>  <SCORE.RESTR>
0

>  <SCORE.RESTR.CAVITY>
0

>  <SCORE.RESTR.norm>
0

>  <SCORE.SYSTEM>
0

>  <SCORE.SYSTEM.CONST>
0

>  <SCORE.SYSTEM.DIHEDRAL>
0

>  <SCORE.SYSTEM.SOLV>
0

>  <SCORE.SYSTEM.norm>
0

>  <SCORE.heavy>
10

>  <SCORE.norm>
-1.25377

>  <RMSD>
2.393

$$$$
ligand
 OpenBabel11021811503D
libRbt.so/2013.1/901 2013/11/27
 10 11  0  0  0  0  0  0  0  0999 V2000
    3.6617  -20.5635   24.3481 N   0  0  0  0  0  0  0  0  0  0  0  0
    2.8010  -21.3505   23.6992 C   0  0  0  0  0  0  0  0  0  0  0  0
    1.5463  -21.6808   24.0291 N   0  0  0  0  0  0  0  0  0  0  0  0
    1.1998  -21.1074   25.1974 C   0  0  0  0  0  0  0  0  0  0  0  0
    1.9763  -20.2751   25.9809 C   0  0  0  0  0  0  0  0  0  0  0  0
    3.2774  -19.9953   25.5180 C   0  0  0  0  0  0  0  0  0  0  0  0
    4.1386  -19.2106   26.1856 N   0  0  0  0  0  0  0  0  0  0  0  0
    1.2863  -19.8683   27.1082 N   0  0  0  0  0  0  0  0  0  0  0  0
    0.1197  -20.4450   26.9888 C   0  0  0  0  0  0  0  0  0  0  0  0
    0.0019  -21.2154   25.8626 N   0  0  0  0  0  0  0  0  0  0  0  0
  1  2  2  0  0  0  0
  1  6  1  0  0  0  0
  2  3  1  0  0  0  0
  3  4  2  0  0  0  0
  4  5  1  0  0  0  0
  4 10  1  0  0  0  0
  5  6  2  0  0  0  0
  5  8  1  0  0  0  0
  6  7  1  0  0  0  0
  8  9  1  0  0  0  0
  9 10  2  0  0  0  0
M  END
>  <CHROM.1>
2.01056941,-20.56632715,25.49294348,0.31721899,-0.35315377,-2.13073745

>  <Name>
ligand

>  <RI>
0

>  <Rbt.Current_Directory>
/home/itssahil/PROJECTS/Mol_Feturizer/New_Systems/rnas/4LW0

>  <Rbt.Executable>
rbdock ($Id: //depot/dev/client3/rdock/2013.1/src/exe/rbdock.cxx#4 $)

>  <Rbt.Library>
libRbt.so (2013.1, Build901 2013/11/27)

>  <Rbt.Parameter_File>
/export/apps/rDock/src/rDock_2013.1_src/data/scripts/dock_solv.prm

>  <Rbt.Receptor>
prm/pocket_docking_5.prm

>  <SCORE>
-12.5899

>  <SCORE.INTER>
-12.5899

>  <SCORE.INTER.CONST>
1

>  <SCORE.INTER.POLAR>
0

>  <SCORE.INTER.ROT>
0

>  <SCORE.INTER.SOLV>
3.9991

>  <SCORE.INTER.VDW>
-13.3263

>  <SCORE.INTER.norm>
-1.25899

>  <SCORE.INTRA>
0

>  <SCORE.INTRA.DIHEDRAL>
0

>  <SCORE.INTRA.DIHEDRAL.0>
0

>  <SCORE.INTRA.POLAR>
0

>  <SCORE.INTRA.POLAR.0>
0

>  <SCORE.INTRA.REPUL>
0

>  <SCORE.INTRA.REPUL.0>
0

>  <SCORE.INTRA.SOLV>
0

>  <SCORE.INTRA.SOLV.lig_0>
-23.9151

>  <SCORE.INTRA.VDW>
0

>  <SCORE.INTRA.VDW.0>
0

>  <SCORE.INTRA.norm>
0

>  <SCORE.RESTR>
0

>  <SCORE.RESTR.CAVITY>
0

>  <SCORE.RESTR.norm>
0

>  <SCORE.SYSTEM>
0

>  <SCORE.SYSTEM.CONST>
0

>  <SCORE.SYSTEM.DIHEDRAL>
0

>  <SCORE.SYSTEM.SOLV>
0

>  <SCORE.SYSTEM.norm>
0

>  <SCORE.heavy>
10

>  <SCORE.norm>
-1.25899

>  <RMSD>
2.393

$$$$
ligand
 OpenBabel11021811503D
libRbt.so/2013.1/901 2013/11/27
 10 11  0  0  0  0  0  0  0  0999 V2000
    3.6606  -20.6378   24.4000 N   0  0  0  0  0  0  0  0  0  0  0  0
    2.8068  -21.4336   23.7530 C   0  0  0  0  0  0  0  0  0  0  0  0
    1.5422  -21.7442   24.0639 N   0  0  0  0  0  0  0  0  0  0  0  0
    1.1760  -21.1377   25.2092 C   0  0  0  0  0  0  0  0  0  0  0  0
    1.9433  -20.2923   25.9878 C   0  0  0  0  0  0  0  0  0  0  0  0
    3.2566  -20.0361   25.5463 C   0  0  0  0  0  0  0  0  0  0  0  0
    4.1105  -19.2420   26.2121 N   0  0  0  0  0  0  0  0  0  0  0  0
    1.2330  -19.8504   27.0890 N   0  0  0  0  0  0  0  0  0  0  0  0
    0.0639  -20.4196   26.9591 C   0  0  0  0  0  0  0  0  0  0  0  0
   -0.0368  -21.2179   25.8508 N   0  0  0  0  0  0  0  0  0  0  0  0
  1  2  2  0  0  0  0
  1  6  1  0  0  0  0
  2  3  1  0  0  0  0
  3  4  2  0  0  0  0
  4  5  1  0  0  0  0
  4 10  1  0  0  0  0
  5  6  2  0  0  0  0
  5  8  1  0  0  0  0
  6  7  1  0  0  0  0
  8  9  1  0  0  0  0
  9 10  2  0  0  0  0
M  END
>  <CHROM.1>
1.98530040,-20.59633510,25.50836530,0.30320176,-0.33372381,-2.16125615

>  <Name>
ligand

>  <RI>
0

>  <Rbt.Current_Directory>
/home/itssahil/PROJECTS/Mol_Feturizer/New_Systems/rnas/4LW0

>  <Rbt.Executable>
rbdock ($Id: //depot/dev/client3/rdock/2013.1/src/exe/rbdock.cxx#4 $)

>  <Rbt.Library>
libRbt.so (2013.1, Build901 2013/11/27)

>  <Rbt.Parameter_File>
/export/apps/rDock/src/rDock_2013.1_src/data/scripts/dock_solv.prm

>  <Rbt.Receptor>
prm/pocket_docking_5.prm

>  <SCORE>
-12.6039

>  <SCORE.INTER>
-12.6039

>  <SCORE.INTER.CONST>
1

>  <SCORE.INTER.POLAR>
0

>  <SCORE.INTER.ROT>
0

>  <SCORE.INTER.SOLV>
4.03577

>  <SCORE.INTER.VDW>
-13.3478

>  <SCORE.INTER.norm>
-1.26039

>  <SCORE.INTRA>
0

>  <SCORE.INTRA.DIHEDRAL>
0

>  <SCORE.INTRA.DIHEDRAL.0>
0

>  <SCORE.INTRA.POLAR>
0

>  <SCORE.INTRA.POLAR.0>
0

>  <SCORE.INTRA.REPUL>
0

>  <SCORE.INTRA.REPUL.0>
0

>  <SCORE.INTRA.SOLV>
0

>  <SCORE.INTRA.SOLV.lig_0>
-23.9151

>  <SCORE.INTRA.VDW>
0

>  <SCORE.INTRA.VDW.0>
0

>  <SCORE.INTRA.norm>
0

>  <SCORE.RESTR>
0

>  <SCORE.RESTR.CAVITY>
0

>  <SCORE.RESTR.norm>
0

>  <SCORE.SYSTEM>
0

>  <SCORE.SYSTEM.CONST>
0

>  <SCORE.SYSTEM.DIHEDRAL>
0

>  <SCORE.SYSTEM.SOLV>
0

>  <SCORE.SYSTEM.norm>
0

>  <SCORE.heavy>
10

>  <SCORE.norm>
-1.26039

>  <RMSD>
2.393

$$$$
ligand
 OpenBabel11021811503D
libRbt.so/2013.1/901 2013/11/27
 10 11  0  0  0  0  0  0  0  0999 V2000
    3.6580  -20.5592   24.3453 N   0  0  0  0  0  0  0  0  0  0  0  0
    2.8016  -21.3512   23.6970 C   0  0  0  0  0  0  0  0  0  0  0  0
    1.5471  -21.6845   24.0251 N   0  0  0  0  0  0  0  0  0  0  0  0
    1.1960  -21.1084   25.1906 C   0  0  0  0  0  0  0  0  0  0  0  0
    1.9679  -20.2710   25.9732 C   0  0  0  0  0  0  0  0  0  0  0  0
    3.2691  -19.9884   25.5125 C   0  0  0  0  0  0  0  0  0  0  0  0
    4.1261  -19.1987   26.1795 N   0  0  0  0  0  0  0  0  0  0  0  0
    1.2738  -19.8627   27.0975 N   0  0  0  0  0  0  0  0  0  0  0  0
    0.1094  -20.4436   26.9773 C   0  0  0  0  0  0  0  0  0  0  0  0
   -0.0031  -21.2182   25.8533 N   0  0  0  0  0  0  0  0  0  0  0  0
  1  2  2  0  0  0  0
  1  6  1  0  0  0  0
  2  3  1  0  0  0  0
  3  4  2  0  0  0  0
  4  5  1  0  0  0  0
  4 10  1  0  0  0  0
  5  6  2  0  0  0  0
  5  8  1  0  0  0  0
  6  7  1  0  0  0  0
  8  9  1  0  0  0  0
  9 10  2  0  0  0  0
M  END
>  <CHROM.1>
2.00424591,-20.56369012,25.48627371,0.31320671,-0.35467290,-2.13544069

>  <Name>
ligand

>  <RI>
0

>  <Rbt.Current_Directory>
/home/itssahil/PROJECTS/Mol_Feturizer/New_Systems/rnas/4LW0

>  <Rbt.Executable>
rbdock ($Id: //depot/dev/client3/rdock/2013.1/src/exe/rbdock.cxx#4 $)

>  <Rbt.Library>
libRbt.so (2013.1, Build901 2013/11/27)

>  <Rbt.Parameter_File>
/export/apps/rDock/src/rDock_2013.1_src/data/scripts/dock_solv.prm

>  <Rbt.Receptor>
prm/pocket_docking_3.prm

>  <SCORE>
-12.588

>  <SCORE.INTER>
-12.588

>  <SCORE.INTER.CONST>
1

>  <SCORE.INTER.POLAR>
0

>  <SCORE.INTER.ROT>
0

>  <SCORE.INTER.SOLV>
4.06323

>  <SCORE.INTER.VDW>
-13.3464

>  <SCORE.INTER.norm>
-1.2588

>  <SCORE.INTRA>
0

>  <SCORE.INTRA.DIHEDRAL>
0

>  <SCORE.INTRA.DIHEDRAL.0>
0

>  <SCORE.INTRA.POLAR>
0

>  <SCORE.INTRA.POLAR.0>
0

>  <SCORE.INTRA.REPUL>
0

>  <SCORE.INTRA.REPUL.0>
0

>  <SCORE.INTRA.SOLV>
0

>  <SCORE.INTRA.SOLV.lig_0>
-23.9151

>  <SCORE.INTRA.VDW>
0

>  <SCORE.INTRA.VDW.0>
0

>  <SCORE.INTRA.norm>
0

>  <SCORE.RESTR>
0

>  <SCORE.RESTR.CAVITY>
0

>  <SCORE.RESTR.norm>
0

>  <SCORE.SYSTEM>
0

>  <SCORE.SYSTEM.CONST>
0

>  <SCORE.SYSTEM.DIHEDRAL>
0

>  <SCORE.SYSTEM.SOLV>
0

>  <SCORE.SYSTEM.norm>
0

>  <SCORE.heavy>
10

>  <SCORE.norm>
-1.2588

>  <RMSD>
2.394

$$$$
ligand
 OpenBabel11021811503D
libRbt.so/2013.1/901 2013/11/27
 10 11  0  0  0  0  0  0  0  0999 V2000
    3.6423  -20.6154   24.3540 N   0  0  0  0  0  0  0  0  0  0  0  0
    2.7761  -21.4042   23.7147 C   0  0  0  0  0  0  0  0  0  0  0  0
    1.5186  -21.7205   24.0479 N   0  0  0  0  0  0  0  0  0  0  0  0
    1.1756  -21.1293   25.2083 C   0  0  0  0  0  0  0  0  0  0  0  0
    1.9579  -20.2927   25.9815 C   0  0  0  0  0  0  0  0  0  0  0  0
    3.2615  -20.0290   25.5161 C   0  0  0  0  0  0  0  0  0  0  0  0
    4.1281  -19.2422   26.1741 N   0  0  0  0  0  0  0  0  0  0  0  0
    1.2702  -19.8659   27.1028 N   0  0  0  0  0  0  0  0  0  0  0  0
    0.0993  -20.4352   26.9900 C   0  0  0  0  0  0  0  0  0  0  0  0
   -0.0235  -21.2194   25.8738 N   0  0  0  0  0  0  0  0  0  0  0  0
  1  2  2  0  0  0  0
  1  6  1  0  0  0  0
  2  3  1  0  0  0  0
  3  4  2  0  0  0  0
  4  5  1  0  0  0  0
  4 10  1  0  0  0  0
  5  6  2  0  0  0  0
  5  8  1  0  0  0  0
  6  7  1  0  0  0  0
  8  9  1  0  0  0  0
  9 10  2  0  0  0  0
M  END
>  <CHROM.1>
1.99031929,-20.59056392,25.49740746,0.32086841,-0.34624809,-2.14257114

>  <Name>
ligand

>  <RI>
0

>  <Rbt.Current_Directory>
/home/itssahil/PROJECTS/Mol_Feturizer/New_Systems/rnas/4LW0

>  <Rbt.Executable>
rbdock ($Id: //depot/dev/client3/rdock/2013.1/src/exe/rbdock.cxx#4 $)

>  <Rbt.Library>
libRbt.so (2013.1, Build901 2013/11/27)

>  <Rbt.Parameter_File>
/export/apps/rDock/src/rDock_2013.1_src/data/scripts/dock_solv.prm

>  <Rbt.Receptor>
prm/pocket_docking_3.prm

>  <SCORE>
-12.58

>  <SCORE.INTER>
-12.58

>  <SCORE.INTER.CONST>
1

>  <SCORE.INTER.POLAR>
0

>  <SCORE.INTER.ROT>
0

>  <SCORE.INTER.SOLV>
3.88541

>  <SCORE.INTER.VDW>
-13.2818

>  <SCORE.INTER.norm>
-1.258

>  <SCORE.INTRA>
0

>  <SCORE.INTRA.DIHEDRAL>
0

>  <SCORE.INTRA.DIHEDRAL.0>
0

>  <SCORE.INTRA.POLAR>
0

>  <SCORE.INTRA.POLAR.0>
0

>  <SCORE.INTRA.REPUL>
0

>  <SCORE.INTRA.REPUL.0>
0

>  <SCORE.INTRA.SOLV>
0

>  <SCORE.INTRA.SOLV.lig_0>
-23.9151

>  <SCORE.INTRA.VDW>
0

>  <SCORE.INTRA.VDW.0>
0

>  <SCORE.INTRA.norm>
0

>  <SCORE.RESTR>
0

>  <SCORE.RESTR.CAVITY>
0

>  <SCORE.RESTR.norm>
0

>  <SCORE.SYSTEM>
0

>  <SCORE.SYSTEM.CONST>
0

>  <SCORE.SYSTEM.DIHEDRAL>
0

>  <SCORE.SYSTEM.SOLV>
0

>  <SCORE.SYSTEM.norm>
0

>  <SCORE.heavy>
10

>  <SCORE.norm>
-1.258

>  <RMSD>
2.394

$$$$
ligand
 OpenBabel11021811503D
libRbt.so/2013.1/901 2013/11/27
 10 11  0  0  0  0  0  0  0  0999 V2000
    3.6817  -20.6836   24.4154 N   0  0  0  0  0  0  0  0  0  0  0  0
    2.8105  -21.4580   23.7655 C   0  0  0  0  0  0  0  0  0  0  0  0
    1.5406  -21.7447   24.0775 N   0  0  0  0  0  0  0  0  0  0  0  0
    1.1892  -21.1380   25.2273 C   0  0  0  0  0  0  0  0  0  0  0  0
    1.9752  -20.3130   26.0092 C   0  0  0  0  0  0  0  0  0  0  0  0
    3.2925  -20.0808   25.5662 C   0  0  0  0  0  0  0  0  0  0  0  0
    4.1638  -19.3083   26.2349 N   0  0  0  0  0  0  0  0  0  0  0  0
    1.2764  -19.8635   27.1147 N   0  0  0  0  0  0  0  0  0  0  0  0
    0.0957  -20.4081   26.9840 C   0  0  0  0  0  0  0  0  0  0  0  0
   -0.0236  -21.1974   25.8711 N   0  0  0  0  0  0  0  0  0  0  0  0
  1  2  2  0  0  0  0
  1  6  1  0  0  0  0
  2  3  1  0  0  0  0
  3  4  2  0  0  0  0
  4  5  1  0  0  0  0
  4 10  1  0  0  0  0
  5  6  2  0  0  0  0
  5  8  1  0  0  0  0
  6  7  1  0  0  0  0
  8  9  1  0  0  0  0
  9 10  2  0  0  0  0
M  END
>  <CHROM.1>
2.00997520,-20.61493034,25.52781277,0.31698586,-0.31804044,-2.15077053

>  <Name>
ligand

>  <RI>
0

>  <Rbt.Current_Directory>
/home/itssahil/PROJECTS/Mol_Feturizer/New_Systems/rnas/4LW0

>  <Rbt.Executable>
rbdock ($Id: //depot/dev/client3/rdock/2013.1/src/exe/rbdock.cxx#4 $)

>  <Rbt.Library>
libRbt.so (2013.1, Build901 2013/11/27)

>  <Rbt.Parameter_File>
/export/apps/rDock/src/rDock_2013.1_src/data/scripts/dock_solv.prm

>  <Rbt.Receptor>
prm/pocket_docking_4.prm

>  <SCORE>
-12.5896

>  <SCORE.INTER>
-12.5896

>  <SCORE.INTER.CONST>
1

>  <SCORE.INTER.POLAR>
0

>  <SCORE.INTER.ROT>
0

>  <SCORE.INTER.SOLV>
3.7238

>  <SCORE.INTER.VDW>
-13.2344

>  <SCORE.INTER.norm>
-1.25896

>  <SCORE.INTRA>
0

>  <SCORE.INTRA.DIHEDRAL>
0

>  <SCORE.INTRA.DIHEDRAL.0>
0

>  <SCORE.INTRA.POLAR>
0

>  <SCORE.INTRA.POLAR.0>
0

>  <SCORE.INTRA.REPUL>
0

>  <SCORE.INTRA.REPUL.0>
0

>  <SCORE.INTRA.SOLV>
0

>  <SCORE.INTRA.SOLV.lig_0>
-23.9151

>  <SCORE.INTRA.VDW>
0

>  <SCORE.INTRA.VDW.0>
0

>  <SCORE.INTRA.norm>
0

>  <SCORE.RESTR>
0

>  <SCORE.RESTR.CAVITY>
0

>  <SCORE.RESTR.norm>
0

>  <SCORE.SYSTEM>
0

>  <SCORE.SYSTEM.CONST>
0

>  <SCORE.SYSTEM.DIHEDRAL>
0

>  <SCORE.SYSTEM.SOLV>
0

>  <SCORE.SYSTEM.norm>
0

>  <SCORE.heavy>
10

>  <SCORE.norm>
-1.25896

>  <RMSD>
2.394

$$$$
ligand
 OpenBabel11021811503D
libRbt.so/2013.1/901 2013/11/27
 10 11  0  0  0  0  0  0  0  0999 V2000
    3.6484  -20.5391   24.3385 N   0  0  0  0  0  0  0  0  0  0  0  0
    2.7894  -21.3267   23.6882 C   0  0  0  0  0  0  0  0  0  0  0  0
    1.5369  -21.6636   24.0197 N   0  0  0  0  0  0  0  0  0  0  0  0
    1.1908  -21.0968   25.1913 C   0  0  0  0  0  0  0  0  0  0  0  0
    1.9658  -20.2647   25.9766 C   0  0  0  0  0  0  0  0  0  0  0  0
    3.2646  -19.9775   25.5118 C   0  0  0  0  0  0  0  0  0  0  0  0
    4.1241  -19.1922   26.1807 N   0  0  0  0  0  0  0  0  0  0  0  0
    1.2769  -19.8657   27.1073 N   0  0  0  0  0  0  0  0  0  0  0  0
    0.1123  -20.4466   26.9882 C   0  0  0  0  0  0  0  0  0  0  0  0
   -0.0050  -21.2126   25.8589 N   0  0  0  0  0  0  0  0  0  0  0  0
  1  2  2  0  0  0  0
  1  6  1  0  0  0  0
  2  3  1  0  0  0  0
  3  4  2  0  0  0  0
  4  5  1  0  0  0  0
  4 10  1  0  0  0  0
  5  6  2  0  0  0  0
  5  8  1  0  0  0  0
  6  7  1  0  0  0  0
  8  9  1  0  0  0  0
  9 10  2  0  0  0  0
M  END
>  <CHROM.1>
2.00007135,-20.55364547,25.48727446,0.31707640,-0.35792671,-2.12642645

>  <Name>
ligand

>  <RI>
0

>  <Rbt.Current_Directory>
/home/itssahil/PROJECTS/Mol_Feturizer/New_Systems/rnas/4LW0

>  <Rbt.Executable>
rbdock ($Id: //depot/dev/client3/rdock/2013.1/src/exe/rbdock.cxx#4 $)

>  <Rbt.Library>
libRbt.so (2013.1, Build901 2013/11/27)

>  <Rbt.Parameter_File>
/export/apps/rDock/src/rDock_2013.1_src/data/scripts/dock_solv.prm

>  <Rbt.Receptor>
prm/pocket_docking_5.prm

>  <SCORE>
-12.5872

>  <SCORE.INTER>
-12.5872

>  <SCORE.INTER.CONST>
1

>  <SCORE.INTER.POLAR>
0

>  <SCORE.INTER.ROT>
0

>  <SCORE.INTER.SOLV>
4.10419

>  <SCORE.INTER.VDW>
-13.3595

>  <SCORE.INTER.norm>
-1.25872

>  <SCORE.INTRA>
0

>  <SCORE.INTRA.DIHEDRAL>
0

>  <SCORE.INTRA.DIHEDRAL.0>
0

>  <SCORE.INTRA.POLAR>
0

>  <SCORE.INTRA.POLAR.0>
0

>  <SCORE.INTRA.REPUL>
0

>  <SCORE.INTRA.REPUL.0>
0

>  <SCORE.INTRA.SOLV>
0

>  <SCORE.INTRA.SOLV.lig_0>
-23.9151

>  <SCORE.INTRA.VDW>
0

>  <SCORE.INTRA.VDW.0>
0

>  <SCORE.INTRA.norm>
0

>  <SCORE.RESTR>
0

>  <SCORE.RESTR.CAVITY>
0

>  <SCORE.RESTR.norm>
0

>  <SCORE.SYSTEM>
0

>  <SCORE.SYSTEM.CONST>
0

>  <SCORE.SYSTEM.DIHEDRAL>
0

>  <SCORE.SYSTEM.SOLV>
0

>  <SCORE.SYSTEM.norm>
0

>  <SCORE.heavy>
10

>  <SCORE.norm>
-1.25872

>  <RMSD>
2.394

$$$$
ligand
 OpenBabel11021811503D
libRbt.so/2013.1/901 2013/11/27
 10 11  0  0  0  0  0  0  0  0999 V2000
    3.6770  -20.6572   24.3831 N   0  0  0  0  0  0  0  0  0  0  0  0
    2.8121  -21.4398   23.7348 C   0  0  0  0  0  0  0  0  0  0  0  0
    1.5474  -21.7433   24.0522 N   0  0  0  0  0  0  0  0  0  0  0  0
    1.1946  -21.1452   25.2061 C   0  0  0  0  0  0  0  0  0  0  0  0
    1.9744  -20.3135   25.9871 C   0  0  0  0  0  0  0  0  0  0  0  0
    3.2864  -20.0635   25.5382 C   0  0  0  0  0  0  0  0  0  0  0  0
    4.1517  -19.2828   26.2053 N   0  0  0  0  0  0  0  0  0  0  0  0
    1.2760  -19.8768   27.0979 N   0  0  0  0  0  0  0  0  0  0  0  0
    0.1013  -20.4354   26.9712 C   0  0  0  0  0  0  0  0  0  0  0  0
   -0.0141  -21.2219   25.8560 N   0  0  0  0  0  0  0  0  0  0  0  0
  1  2  2  0  0  0  0
  1  6  1  0  0  0  0
  2  3  1  0  0  0  0
  3  4  2  0  0  0  0
  4  5  1  0  0  0  0
  4 10  1  0  0  0  0
  5  6  2  0  0  0  0
  5  8  1  0  0  0  0
  6  7  1  0  0  0  0
  8  9  1  0  0  0  0
  9 10  2  0  0  0  0
M  END
>  <CHROM.1>
2.01041516,-20.61322498,25.50440029,0.31447751,-0.33117051,-2.14782768

>  <Name>
ligand

>  <RI>
0

>  <Rbt.Current_Directory>
/home/itssahil/PROJECTS/Mol_Feturizer/New_Systems/rnas/4LW0

>  <Rbt.Executable>
rbdock ($Id: //depot/dev/client3/rdock/2013.1/src/exe/rbdock.cxx#4 $)

>  <Rbt.Library>
libRbt.so (2013.1, Build901 2013/11/27)

>  <Rbt.Parameter_File>
/export/apps/rDock/src/rDock_2013.1_src/data/scripts/dock_solv.prm

>  <Rbt.Receptor>
prm/pocket_docking_6.prm

>  <SCORE>
-12.6146

>  <SCORE.INTER>
-12.6146

>  <SCORE.INTER.CONST>
1

>  <SCORE.INTER.POLAR>
0

>  <SCORE.INTER.ROT>
0

>  <SCORE.INTER.SOLV>
3.76266

>  <SCORE.INTER.VDW>
-13.2639

>  <SCORE.INTER.norm>
-1.26146

>  <SCORE.INTRA>
0

>  <SCORE.INTRA.DIHEDRAL>
0

>  <SCORE.INTRA.DIHEDRAL.0>
0

>  <SCORE.INTRA.POLAR>
0

>  <SCORE.INTRA.POLAR.0>
0

>  <SCORE.INTRA.REPUL>
0

>  <SCORE.INTRA.REPUL.0>
0

>  <SCORE.INTRA.SOLV>
0

>  <SCORE.INTRA.SOLV.lig_0>
-23.9151

>  <SCORE.INTRA.VDW>
0

>  <SCORE.INTRA.VDW.0>
0

>  <SCORE.INTRA.norm>
0

>  <SCORE.RESTR>
0

>  <SCORE.RESTR.CAVITY>
0

>  <SCORE.RESTR.norm>
0

>  <SCORE.SYSTEM>
0

>  <SCORE.SYSTEM.CONST>
0

>  <SCORE.SYSTEM.DIHEDRAL>
0

>  <SCORE.SYSTEM.SOLV>
0

>  <SCORE.SYSTEM.norm>
0

>  <SCORE.heavy>
10

>  <SCORE.norm>
-1.26146

>  <RMSD>
2.394

$$$$
ligand
 OpenBabel11021811503D
libRbt.so/2013.1/901 2013/11/27
 10 11  0  0  0  0  0  0  0  0999 V2000
    3.6768  -20.6138   24.4059 N   0  0  0  0  0  0  0  0  0  0  0  0
    2.8129  -21.3924   23.7514 C   0  0  0  0  0  0  0  0  0  0  0  0
    1.5401  -21.6788   24.0522 N   0  0  0  0  0  0  0  0  0  0  0  0
    1.1768  -21.0664   25.1953 C   0  0  0  0  0  0  0  0  0  0  0  0
    1.9542  -20.2366   25.9807 C   0  0  0  0  0  0  0  0  0  0  0  0
    3.2756  -20.0054   25.5497 C   0  0  0  0  0  0  0  0  0  0  0  0
    4.1395  -19.2286   26.2229 N   0  0  0  0  0  0  0  0  0  0  0  0
    1.2440  -19.7821   27.0768 N   0  0  0  0  0  0  0  0  0  0  0  0
    0.0651  -20.3285   26.9373 C   0  0  0  0  0  0  0  0  0  0  0  0
   -0.0423  -21.1237   25.8273 N   0  0  0  0  0  0  0  0  0  0  0  0
  1  2  2  0  0  0  0
  1  6  1  0  0  0  0
  2  3  1  0  0  0  0
  3  4  2  0  0  0  0
  4  5  1  0  0  0  0
  4 10  1  0  0  0  0
  5  6  2  0  0  0  0
  5  8  1  0  0  0  0
  6  7  1  0  0  0  0
  8  9  1  0  0  0  0
  9 10  2  0  0  0  0
M  END
>  <CHROM.1>
1.99403470,-20.54099346,25.50126936,0.30769337,-0.31335457,-2.15885139

>  <Name>
ligand

>  <RI>
0

>  <Rbt.Current_Directory>
/home/itssahil/PROJECTS/Mol_Feturizer/New_Systems/rnas/4LW0

>  <Rbt.Executable>
rbdock ($Id: //depot/dev/client3/rdock/2013.1/src/exe/rbdock.cxx#4 $)

>  <Rbt.Library>
libRbt.so (2013.1, Build901 2013/11/27)

>  <Rbt.Parameter_File>
/export/apps/rDock/src/rDock_2013.1_src/data/scripts/dock_solv.prm

>  <Rbt.Receptor>
prm/pocket_docking_6.prm

>  <SCORE>
-12.5319

>  <SCORE.INTER>
-12.5319

>  <SCORE.INTER.CONST>
1

>  <SCORE.INTER.POLAR>
0

>  <SCORE.INTER.ROT>
0

>  <SCORE.INTER.SOLV>
4.07487

>  <SCORE.INTER.VDW>
-13.3129

>  <SCORE.INTER.norm>
-1.25319

>  <SCORE.INTRA>
0

>  <SCORE.INTRA.DIHEDRAL>
0

>  <SCORE.INTRA.DIHEDRAL.0>
0

>  <SCORE.INTRA.POLAR>
0

>  <SCORE.INTRA.POLAR.0>
0

>  <SCORE.INTRA.REPUL>
0

>  <SCORE.INTRA.REPUL.0>
0

>  <SCORE.INTRA.SOLV>
0

>  <SCORE.INTRA.SOLV.lig_0>
-23.9151

>  <SCORE.INTRA.VDW>
0

>  <SCORE.INTRA.VDW.0>
0

>  <SCORE.INTRA.norm>
0

>  <SCORE.RESTR>
0

>  <SCORE.RESTR.CAVITY>
0

>  <SCORE.RESTR.norm>
0

>  <SCORE.SYSTEM>
0

>  <SCORE.SYSTEM.CONST>
0

>  <SCORE.SYSTEM.DIHEDRAL>
0

>  <SCORE.SYSTEM.SOLV>
0

>  <SCORE.SYSTEM.norm>
0

>  <SCORE.heavy>
10

>  <SCORE.norm>
-1.25319

>  <RMSD>
2.394

$$$$
ligand
 OpenBabel11021811503D
libRbt.so/2013.1/901 2013/11/27
 10 11  0  0  0  0  0  0  0  0999 V2000
    3.6764  -20.6538   24.3632 N   0  0  0  0  0  0  0  0  0  0  0  0
    2.8102  -21.4399   23.7206 C   0  0  0  0  0  0  0  0  0  0  0  0
    1.5471  -21.7440   24.0435 N   0  0  0  0  0  0  0  0  0  0  0  0
    1.1975  -21.1423   25.1965 C   0  0  0  0  0  0  0  0  0  0  0  0
    1.9790  -20.3069   25.9719 C   0  0  0  0  0  0  0  0  0  0  0  0
    3.2890  -20.0566   25.5176 C   0  0  0  0  0  0  0  0  0  0  0  0
    4.1555  -19.2724   26.1788 N   0  0  0  0  0  0  0  0  0  0  0  0
    1.2838  -19.8672   27.0836 N   0  0  0  0  0  0  0  0  0  0  0  0
    0.1095  -20.4278   26.9630 C   0  0  0  0  0  0  0  0  0  0  0  0
   -0.0087  -21.2185   25.8509 N   0  0  0  0  0  0  0  0  0  0  0  0
  1  2  2  0  0  0  0
  1  6  1  0  0  0  0
  2  3  1  0  0  0  0
  3  4  2  0  0  0  0
  4  5  1  0  0  0  0
  4 10  1  0  0  0  0
  5  6  2  0  0  0  0
  5  8  1  0  0  0  0
  6  7  1  0  0  0  0
  8  9  1  0  0  0  0
  9 10  2  0  0  0  0
M  END
>  <CHROM.1>
2.01366055,-20.60821235,25.49011261,0.31678670,-0.33423134,-2.15055180

>  <Name>
ligand

>  <RI>
0

>  <Rbt.Current_Directory>
/home/itssahil/PROJECTS/Mol_Feturizer/New_Systems/rnas/4LW0

>  <Rbt.Executable>
rbdock ($Id: //depot/dev/client3/rdock/2013.1/src/exe/rbdock.cxx#4 $)

>  <Rbt.Library>
libRbt.so (2013.1, Build901 2013/11/27)

>  <Rbt.Parameter_File>
/export/apps/rDock/src/rDock_2013.1_src/data/scripts/dock_solv.prm

>  <Rbt.Receptor>
prm/pocket_docking_7.prm

>  <SCORE>
-12.6212

>  <SCORE.INTER>
-12.6212

>  <SCORE.INTER.CONST>
1

>  <SCORE.INTER.POLAR>
0

>  <SCORE.INTER.ROT>
0

>  <SCORE.INTER.SOLV>
3.72998

>  <SCORE.INTER.VDW>
-13.2574

>  <SCORE.INTER.norm>
-1.26212

>  <SCORE.INTRA>
0

>  <SCORE.INTRA.DIHEDRAL>
0

>  <SCORE.INTRA.DIHEDRAL.0>
0

>  <SCORE.INTRA.POLAR>
0

>  <SCORE.INTRA.POLAR.0>
0

>  <SCORE.INTRA.REPUL>
0

>  <SCORE.INTRA.REPUL.0>
0

>  <SCORE.INTRA.SOLV>
0

>  <SCORE.INTRA.SOLV.lig_0>
-23.9151

>  <SCORE.INTRA.VDW>
0

>  <SCORE.INTRA.VDW.0>
0

>  <SCORE.INTRA.norm>
0

>  <SCORE.RESTR>
0

>  <SCORE.RESTR.CAVITY>
0

>  <SCORE.RESTR.norm>
0

>  <SCORE.SYSTEM>
0

>  <SCORE.SYSTEM.CONST>
0

>  <SCORE.SYSTEM.DIHEDRAL>
0

>  <SCORE.SYSTEM.SOLV>
0

>  <SCORE.SYSTEM.norm>
0

>  <SCORE.heavy>
10

>  <SCORE.norm>
-1.26212

>  <RMSD>
2.394

$$$$
ligand
 OpenBabel11021811503D
libRbt.so/2013.1/901 2013/11/27
 10 11  0  0  0  0  0  0  0  0999 V2000
    3.6529  -20.5502   24.3526 N   0  0  0  0  0  0  0  0  0  0  0  0
    2.7950  -21.3383   23.7015 C   0  0  0  0  0  0  0  0  0  0  0  0
    1.5403  -21.6713   24.0289 N   0  0  0  0  0  0  0  0  0  0  0  0
    1.1906  -21.0996   25.1971 C   0  0  0  0  0  0  0  0  0  0  0  0
    1.9641  -20.2664   25.9826 C   0  0  0  0  0  0  0  0  0  0  0  0
    3.2654  -19.9836   25.5223 C   0  0  0  0  0  0  0  0  0  0  0  0
    4.1239  -19.1978   26.1920 N   0  0  0  0  0  0  0  0  0  0  0  0
    1.2713  -19.8619   27.1091 N   0  0  0  0  0  0  0  0  0  0  0  0
    0.1060  -20.4408   26.9871 C   0  0  0  0  0  0  0  0  0  0  0  0
   -0.0082  -21.2105   25.8601 N   0  0  0  0  0  0  0  0  0  0  0  0
  1  2  2  0  0  0  0
  1  6  1  0  0  0  0
  2  3  1  0  0  0  0
  3  4  2  0  0  0  0
  4  5  1  0  0  0  0
  4 10  1  0  0  0  0
  5  6  2  0  0  0  0
  5  8  1  0  0  0  0
  6  7  1  0  0  0  0
  8  9  1  0  0  0  0
  9 10  2  0  0  0  0
M  END
>  <CHROM.1>
1.99978589,-20.55715493,25.49449295,0.31450637,-0.35388877,-2.13084721

>  <Name>
ligand

>  <RI>
0

>  <Rbt.Current_Directory>
/home/itssahil/PROJECTS/Mol_Feturizer/New_Systems/rnas/4LW0

>  <Rbt.Executable>
rbdock ($Id: //depot/dev/client3/rdock/2013.1/src/exe/rbdock.cxx#4 $)

>  <Rbt.Library>
libRbt.so (2013.1, Build901 2013/11/27)

>  <Rbt.Parameter_File>
/export/apps/rDock/src/rDock_2013.1_src/data/scripts/dock_solv.prm

>  <Rbt.Receptor>
prm/pocket_docking_7.prm

>  <SCORE>
-12.5887

>  <SCORE.INTER>
-12.5887

>  <SCORE.INTER.CONST>
1

>  <SCORE.INTER.POLAR>
0

>  <SCORE.INTER.ROT>
0

>  <SCORE.INTER.SOLV>
4.11061

>  <SCORE.INTER.VDW>
-13.3627

>  <SCORE.INTER.norm>
-1.25887

>  <SCORE.INTRA>
0

>  <SCORE.INTRA.DIHEDRAL>
0

>  <SCORE.INTRA.DIHEDRAL.0>
0

>  <SCORE.INTRA.POLAR>
0

>  <SCORE.INTRA.POLAR.0>
0

>  <SCORE.INTRA.REPUL>
0

>  <SCORE.INTRA.REPUL.0>
0

>  <SCORE.INTRA.SOLV>
0

>  <SCORE.INTRA.SOLV.lig_0>
-23.9151

>  <SCORE.INTRA.VDW>
0

>  <SCORE.INTRA.VDW.0>
0

>  <SCORE.INTRA.norm>
0

>  <SCORE.RESTR>
0

>  <SCORE.RESTR.CAVITY>
0

>  <SCORE.RESTR.norm>
0

>  <SCORE.SYSTEM>
0

>  <SCORE.SYSTEM.CONST>
0

>  <SCORE.SYSTEM.DIHEDRAL>
0

>  <SCORE.SYSTEM.SOLV>
0

>  <SCORE.SYSTEM.norm>
0

>  <SCORE.heavy>
10

>  <SCORE.norm>
-1.25887

>  <RMSD>
2.394

$$$$
ligand
 OpenBabel11021811503D
libRbt.so/2013.1/901 2013/11/27
 10 11  0  0  0  0  0  0  0  0999 V2000
    3.7001  -20.6943   24.4665 N   0  0  0  0  0  0  0  0  0  0  0  0
    2.8222  -21.4201   23.7711 C   0  0  0  0  0  0  0  0  0  0  0  0
    1.5338  -21.6680   24.0375 N   0  0  0  0  0  0  0  0  0  0  0  0
    1.1692  -21.0774   25.1916 C   0  0  0  0  0  0  0  0  0  0  0  0
    1.9597  -20.3012   26.0177 C   0  0  0  0  0  0  0  0  0  0  0  0
    3.2974  -20.1063   25.6204 C   0  0  0  0  0  0  0  0  0  0  0  0
    4.1747  -19.3829   26.3345 N   0  0  0  0  0  0  0  0  0  0  0  0
    1.2437  -19.8540   27.1130 N   0  0  0  0  0  0  0  0  0  0  0  0
    0.0488  -20.3518   26.9331 C   0  0  0  0  0  0  0  0  0  0  0  0
   -0.0643  -21.1084   25.7971 N   0  0  0  0  0  0  0  0  0  0  0  0
  1  2  2  0  0  0  0
  1  6  1  0  0  0  0
  2  3  1  0  0  0  0
  3  4  2  0  0  0  0
  4  5  1  0  0  0  0
  4 10  1  0  0  0  0
  5  6  2  0  0  0  0
  5  8  1  0  0  0  0
  6  7  1  0  0  0  0
  8  9  1  0  0  0  0
  9 10  2  0  0  0  0
M  END
>  <CHROM.1>
1.99843640,-20.59221782,25.52990050,0.31056846,-0.27127482,-2.12734436

>  <Name>
ligand

>  <RI>
0

>  <Rbt.Current_Directory>
/home/itssahil/PROJECTS/Mol_Feturizer/New_Systems/rnas/4LW0

>  <Rbt.Executable>
rbdock ($Id: //depot/dev/client3/rdock/2013.1/src/exe/rbdock.cxx#4 $)

>  <Rbt.Library>
libRbt.so (2013.1, Build901 2013/11/27)

>  <Rbt.Parameter_File>
/export/apps/rDock/src/rDock_2013.1_src/data/scripts/dock_solv.prm

>  <Rbt.Receptor>
prm/pocket_docking_7.prm

>  <SCORE>
-12.4893

>  <SCORE.INTER>
-12.4893

>  <SCORE.INTER.CONST>
1

>  <SCORE.INTER.POLAR>
0

>  <SCORE.INTER.ROT>
0

>  <SCORE.INTER.SOLV>
3.77613

>  <SCORE.INTER.VDW>
-13.1849

>  <SCORE.INTER.norm>
-1.24893

>  <SCORE.INTRA>
0

>  <SCORE.INTRA.DIHEDRAL>
0

>  <SCORE.INTRA.DIHEDRAL.0>
0

>  <SCORE.INTRA.POLAR>
0

>  <SCORE.INTRA.POLAR.0>
0

>  <SCORE.INTRA.REPUL>
0

>  <SCORE.INTRA.REPUL.0>
0

>  <SCORE.INTRA.SOLV>
0

>  <SCORE.INTRA.SOLV.lig_0>
-23.9151

>  <SCORE.INTRA.VDW>
0

>  <SCORE.INTRA.VDW.0>
0

>  <SCORE.INTRA.norm>
0

>  <SCORE.RESTR>
0

>  <SCORE.RESTR.CAVITY>
0

>  <SCORE.RESTR.norm>
0

>  <SCORE.SYSTEM>
0

>  <SCORE.SYSTEM.CONST>
0

>  <SCORE.SYSTEM.DIHEDRAL>
0

>  <SCORE.SYSTEM.SOLV>
0

>  <SCORE.SYSTEM.norm>
0

>  <SCORE.heavy>
10

>  <SCORE.norm>
-1.24893

>  <RMSD>
2.399

$$$$
ligand
 OpenBabel11021811503D
libRbt.so/2013.1/901 2013/11/27
 10 11  0  0  0  0  0  0  0  0999 V2000
    3.6787  -20.5978   24.3793 N   0  0  0  0  0  0  0  0  0  0  0  0
    2.7933  -21.3308   23.7011 C   0  0  0  0  0  0  0  0  0  0  0  0
    1.5130  -21.5908   23.9936 N   0  0  0  0  0  0  0  0  0  0  0  0
    1.1669  -21.0051   25.1559 C   0  0  0  0  0  0  0  0  0  0  0  0
    1.9671  -20.2228   25.9667 C   0  0  0  0  0  0  0  0  0  0  0  0
    3.2945  -20.0151   25.5422 C   0  0  0  0  0  0  0  0  0  0  0  0
    4.1797  -19.2846   26.2391 N   0  0  0  0  0  0  0  0  0  0  0  0
    1.2698  -19.7837   27.0772 N   0  0  0  0  0  0  0  0  0  0  0  0
    0.0761  -20.2922   26.9213 C   0  0  0  0  0  0  0  0  0  0  0  0
   -0.0535  -21.0483   25.7867 N   0  0  0  0  0  0  0  0  0  0  0  0
  1  2  2  0  0  0  0
  1  6  1  0  0  0  0
  2  3  1  0  0  0  0
  3  4  2  0  0  0  0
  4  5  1  0  0  0  0
  4 10  1  0  0  0  0
  5  6  2  0  0  0  0
  5  8  1  0  0  0  0
  6  7  1  0  0  0  0
  8  9  1  0  0  0  0
  9 10  2  0  0  0  0
M  END
>  <CHROM.1>
1.99847774,-20.51283554,25.47775609,0.32381044,-0.28993932,-2.12225698

>  <Name>
ligand

>  <RI>
0

>  <Rbt.Current_Directory>
/home/itssahil/PROJECTS/Mol_Feturizer/New_Systems/rnas/4LW0

>  <Rbt.Executable>
rbdock ($Id: //depot/dev/client3/rdock/2013.1/src/exe/rbdock.cxx#4 $)

>  <Rbt.Library>
libRbt.so (2013.1, Build901 2013/11/27)

>  <Rbt.Parameter_File>
/export/apps/rDock/src/rDock_2013.1_src/data/scripts/dock_solv.prm

>  <Rbt.Receptor>
prm/pocket_docking_5.prm

>  <SCORE>
-12.5078

>  <SCORE.INTER>
-12.5078

>  <SCORE.INTER.CONST>
1

>  <SCORE.INTER.POLAR>
0

>  <SCORE.INTER.ROT>
0

>  <SCORE.INTER.SOLV>
3.8817

>  <SCORE.INTER.VDW>
-13.2325

>  <SCORE.INTER.norm>
-1.25078

>  <SCORE.INTRA>
0

>  <SCORE.INTRA.DIHEDRAL>
0

>  <SCORE.INTRA.DIHEDRAL.0>
0

>  <SCORE.INTRA.POLAR>
0

>  <SCORE.INTRA.POLAR.0>
0

>  <SCORE.INTRA.REPUL>
0

>  <SCORE.INTRA.REPUL.0>
0

>  <SCORE.INTRA.SOLV>
0

>  <SCORE.INTRA.SOLV.lig_0>
-23.9151

>  <SCORE.INTRA.VDW>
0

>  <SCORE.INTRA.VDW.0>
0

>  <SCORE.INTRA.norm>
0

>  <SCORE.RESTR>
0

>  <SCORE.RESTR.CAVITY>
0

>  <SCORE.RESTR.norm>
0

>  <SCORE.SYSTEM>
0

>  <SCORE.SYSTEM.CONST>
0

>  <SCORE.SYSTEM.DIHEDRAL>
0

>  <SCORE.SYSTEM.SOLV>
0

>  <SCORE.SYSTEM.norm>
0

>  <SCORE.heavy>
10

>  <SCORE.norm>
-1.25078

>  <RMSD>
2.400

$$$$
ligand
 OpenBabel11021811503D
libRbt.so/2013.1/901 2013/11/27
 10 11  0  0  0  0  0  0  0  0999 V2000
    3.6821  -20.6076   24.3788 N   0  0  0  0  0  0  0  0  0  0  0  0
    2.7987  -21.3434   23.7012 C   0  0  0  0  0  0  0  0  0  0  0  0
    1.5181  -21.6039   23.9922 N   0  0  0  0  0  0  0  0  0  0  0  0
    1.1693  -21.0152   25.1521 C   0  0  0  0  0  0  0  0  0  0  0  0
    1.9673  -20.2297   25.9620 C   0  0  0  0  0  0  0  0  0  0  0  0
    3.2953  -20.0219   25.5393 C   0  0  0  0  0  0  0  0  0  0  0  0
    4.1785  -19.2884   26.2356 N   0  0  0  0  0  0  0  0  0  0  0  0
    1.2676  -19.7880   27.0701 N   0  0  0  0  0  0  0  0  0  0  0  0
    0.0747  -20.2982   26.9135 C   0  0  0  0  0  0  0  0  0  0  0  0
   -0.0521  -21.0578   25.7809 N   0  0  0  0  0  0  0  0  0  0  0  0
  1  2  2  0  0  0  0
  1  6  1  0  0  0  0
  2  3  1  0  0  0  0
  3  4  2  0  0  0  0
  4  5  1  0  0  0  0
  4 10  1  0  0  0  0
  5  6  2  0  0  0  0
  5  8  1  0  0  0  0
  6  7  1  0  0  0  0
  8  9  1  0  0  0  0
  9 10  2  0  0  0  0
M  END
>  <CHROM.1>
1.99983513,-20.52110098,25.47403533,0.32167368,-0.28989815,-2.12580715

>  <Name>
ligand

>  <RI>
0

>  <Rbt.Current_Directory>
/home/itssahil/PROJECTS/Mol_Feturizer/New_Systems/rnas/4LW0

>  <Rbt.Executable>
rbdock ($Id: //depot/dev/client3/rdock/2013.1/src/exe/rbdock.cxx#4 $)

>  <Rbt.Library>
libRbt.so (2013.1, Build901 2013/11/27)

>  <Rbt.Parameter_File>
/export/apps/rDock/src/rDock_2013.1_src/data/scripts/dock_solv.prm

>  <Rbt.Receptor>
prm/pocket_docking_7.prm

>  <SCORE>
-12.5006

>  <SCORE.INTER>
-12.5006

>  <SCORE.INTER.CONST>
1

>  <SCORE.INTER.POLAR>
0

>  <SCORE.INTER.ROT>
0

>  <SCORE.INTER.SOLV>
3.85741

>  <SCORE.INTER.VDW>
-13.2195

>  <SCORE.INTER.norm>
-1.25006

>  <SCORE.INTRA>
0

>  <SCORE.INTRA.DIHEDRAL>
0

>  <SCORE.INTRA.DIHEDRAL.0>
0

>  <SCORE.INTRA.POLAR>
0

>  <SCORE.INTRA.POLAR.0>
0

>  <SCORE.INTRA.REPUL>
0

>  <SCORE.INTRA.REPUL.0>
0

>  <SCORE.INTRA.SOLV>
0

>  <SCORE.INTRA.SOLV.lig_0>
-23.9151

>  <SCORE.INTRA.VDW>
0

>  <SCORE.INTRA.VDW.0>
0

>  <SCORE.INTRA.norm>
0

>  <SCORE.RESTR>
0

>  <SCORE.RESTR.CAVITY>
0

>  <SCORE.RESTR.norm>
0

>  <SCORE.SYSTEM>
0

>  <SCORE.SYSTEM.CONST>
0

>  <SCORE.SYSTEM.DIHEDRAL>
0

>  <SCORE.SYSTEM.SOLV>
0

>  <SCORE.SYSTEM.norm>
0

>  <SCORE.heavy>
10

>  <SCORE.norm>
-1.25006

>  <RMSD>
2.400

$$$$
ligand
 OpenBabel11021811503D
libRbt.so/2013.1/901 2013/11/27
 10 11  0  0  0  0  0  0  0  0999 V2000
    3.6899  -20.5004   24.3573 N   0  0  0  0  0  0  0  0  0  0  0  0
    2.7967  -21.1847   23.6397 C   0  0  0  0  0  0  0  0  0  0  0  0
    1.5195  -21.4646   23.9276 N   0  0  0  0  0  0  0  0  0  0  0  0
    1.1865  -20.9609   25.1313 C   0  0  0  0  0  0  0  0  0  0  0  0
    1.9961  -20.2365   25.9855 C   0  0  0  0  0  0  0  0  0  0  0  0
    3.3189  -19.9997   25.5619 C   0  0  0  0  0  0  0  0  0  0  0  0
    4.2121  -19.3191   26.2980 N   0  0  0  0  0  0  0  0  0  0  0  0
    1.3113  -19.8755   27.1315 N   0  0  0  0  0  0  0  0  0  0  0  0
    0.1156  -20.3721   26.9538 C   0  0  0  0  0  0  0  0  0  0  0  0
   -0.0268  -21.0479   25.7710 N   0  0  0  0  0  0  0  0  0  0  0  0
  1  2  2  0  0  0  0
  1  6  1  0  0  0  0
  2  3  1  0  0  0  0
  3  4  2  0  0  0  0
  4  5  1  0  0  0  0
  4 10  1  0  0  0  0
  5  6  2  0  0  0  0
  5  8  1  0  0  0  0
  6  7  1  0  0  0  0
  8  9  1  0  0  0  0
  9 10  2  0  0  0  0
M  END
>  <CHROM.1>
2.02188965,-20.49193516,25.47740143,0.33391442,-0.29516300,-2.05001255

>  <Name>
ligand

>  <RI>
0

>  <Rbt.Current_Directory>
/home/itssahil/PROJECTS/Mol_Feturizer/New_Systems/rnas/4LW0

>  <Rbt.Executable>
rbdock ($Id: //depot/dev/client3/rdock/2013.1/src/exe/rbdock.cxx#4 $)

>  <Rbt.Library>
libRbt.so (2013.1, Build901 2013/11/27)

>  <Rbt.Parameter_File>
/export/apps/rDock/src/rDock_2013.1_src/data/scripts/dock_solv.prm

>  <Rbt.Receptor>
prm/pocket_docking_7.prm

>  <SCORE>
-12.5332

>  <SCORE.INTER>
-12.5332

>  <SCORE.INTER.CONST>
1

>  <SCORE.INTER.POLAR>
0

>  <SCORE.INTER.ROT>
0

>  <SCORE.INTER.SOLV>
3.85698

>  <SCORE.INTER.VDW>
-13.2411

>  <SCORE.INTER.norm>
-1.25332

>  <SCORE.INTRA>
0

>  <SCORE.INTRA.DIHEDRAL>
0

>  <SCORE.INTRA.DIHEDRAL.0>
0

>  <SCORE.INTRA.POLAR>
0

>  <SCORE.INTRA.POLAR.0>
0

>  <SCORE.INTRA.REPUL>
0

>  <SCORE.INTRA.REPUL.0>
0

>  <SCORE.INTRA.SOLV>
0

>  <SCORE.INTRA.SOLV.lig_0>
-23.9151

>  <SCORE.INTRA.VDW>
0

>  <SCORE.INTRA.VDW.0>
0

>  <SCORE.INTRA.norm>
0

>  <SCORE.RESTR>
0

>  <SCORE.RESTR.CAVITY>
0

>  <SCORE.RESTR.norm>
0

>  <SCORE.SYSTEM>
0

>  <SCORE.SYSTEM.CONST>
0

>  <SCORE.SYSTEM.DIHEDRAL>
0

>  <SCORE.SYSTEM.SOLV>
0

>  <SCORE.SYSTEM.norm>
0

>  <SCORE.heavy>
10

>  <SCORE.norm>
-1.25332

>  <RMSD>
2.401

$$$$
ligand
 OpenBabel11021811503D
libRbt.so/2013.1/901 2013/11/27
 10 11  0  0  0  0  0  0  0  0999 V2000
    3.6870  -20.6467   24.4038 N   0  0  0  0  0  0  0  0  0  0  0  0
    2.7960  -21.3451   23.6971 C   0  0  0  0  0  0  0  0  0  0  0  0
    1.5099  -21.5950   23.9726 N   0  0  0  0  0  0  0  0  0  0  0  0
    1.1639  -21.0403   25.1500 C   0  0  0  0  0  0  0  0  0  0  0  0
    1.9695  -20.2953   25.9901 C   0  0  0  0  0  0  0  0  0  0  0  0
    3.3029  -20.0944   25.5814 C   0  0  0  0  0  0  0  0  0  0  0  0
    4.1936  -19.3990   26.3067 N   0  0  0  0  0  0  0  0  0  0  0  0
    1.2705  -19.8802   27.1088 N   0  0  0  0  0  0  0  0  0  0  0  0
    0.0707  -20.3658   26.9290 C   0  0  0  0  0  0  0  0  0  0  0  0
   -0.0616  -21.0847   25.7707 N   0  0  0  0  0  0  0  0  0  0  0  0
  1  2  2  0  0  0  0
  1  6  1  0  0  0  0
  2  3  1  0  0  0  0
  3  4  2  0  0  0  0
  4  5  1  0  0  0  0
  4 10  1  0  0  0  0
  5  6  2  0  0  0  0
  5  8  1  0  0  0  0
  6  7  1  0  0  0  0
  8  9  1  0  0  0  0
  9 10  2  0  0  0  0
M  END
>  <CHROM.1>
2.00018165,-20.57055209,25.49267538,0.32527638,-0.27359204,-2.09099885

>  <Name>
ligand

>  <RI>
0

>  <Rbt.Current_Directory>
/home/itssahil/PROJECTS/Mol_Feturizer/New_Systems/rnas/4LW0

>  <Rbt.Executable>
rbdock ($Id: //depot/dev/client3/rdock/2013.1/src/exe/rbdock.cxx#4 $)

>  <Rbt.Library>
libRbt.so (2013.1, Build901 2013/11/27)

>  <Rbt.Parameter_File>
/export/apps/rDock/src/rDock_2013.1_src/data/scripts/dock_solv.prm

>  <Rbt.Receptor>
prm/pocket_docking_3.prm

>  <SCORE>
-12.4993

>  <SCORE.INTER>
-12.4993

>  <SCORE.INTER.CONST>
1

>  <SCORE.INTER.POLAR>
0

>  <SCORE.INTER.ROT>
0

>  <SCORE.INTER.SOLV>
3.63589

>  <SCORE.INTER.VDW>
-13.1449

>  <SCORE.INTER.norm>
-1.24993

>  <SCORE.INTRA>
0

>  <SCORE.INTRA.DIHEDRAL>
0

>  <SCORE.INTRA.DIHEDRAL.0>
0

>  <SCORE.INTRA.POLAR>
0

>  <SCORE.INTRA.POLAR.0>
0

>  <SCORE.INTRA.REPUL>
0

>  <SCORE.INTRA.REPUL.0>
0

>  <SCORE.INTRA.SOLV>
0

>  <SCORE.INTRA.SOLV.lig_0>
-23.9151

>  <SCORE.INTRA.VDW>
0

>  <SCORE.INTRA.VDW.0>
0

>  <SCORE.INTRA.norm>
0

>  <SCORE.RESTR>
0

>  <SCORE.RESTR.CAVITY>
0

>  <SCORE.RESTR.norm>
0

>  <SCORE.SYSTEM>
0

>  <SCORE.SYSTEM.CONST>
0

>  <SCORE.SYSTEM.DIHEDRAL>
0

>  <SCORE.SYSTEM.SOLV>
0

>  <SCORE.SYSTEM.norm>
0

>  <SCORE.heavy>
10

>  <SCORE.norm>
-1.24993

>  <RMSD>
2.402

$$$$
ligand
 OpenBabel11021811503D
libRbt.so/2013.1/901 2013/11/27
 10 11  0  0  0  0  0  0  0  0999 V2000
    3.6849  -20.5340   24.3702 N   0  0  0  0  0  0  0  0  0  0  0  0
    2.7916  -21.2300   23.6642 C   0  0  0  0  0  0  0  0  0  0  0  0
    1.5105  -21.4933   23.9503 N   0  0  0  0  0  0  0  0  0  0  0  0
    1.1731  -20.9565   25.1384 C   0  0  0  0  0  0  0  0  0  0  0  0
    1.9821  -20.2163   25.9794 C   0  0  0  0  0  0  0  0  0  0  0  0
    3.3095  -19.9999   25.5590 C   0  0  0  0  0  0  0  0  0  0  0  0
    4.2027  -19.3071   26.2836 N   0  0  0  0  0  0  0  0  0  0  0  0
    1.2923  -19.8210   27.1109 N   0  0  0  0  0  0  0  0  0  0  0  0
    0.0942  -20.3135   26.9377 C   0  0  0  0  0  0  0  0  0  0  0  0
   -0.0452  -21.0183   25.7717 N   0  0  0  0  0  0  0  0  0  0  0  0
  1  2  2  0  0  0  0
  1  6  1  0  0  0  0
  2  3  1  0  0  0  0
  3  4  2  0  0  0  0
  4  5  1  0  0  0  0
  4 10  1  0  0  0  0
  5  6  2  0  0  0  0
  5  8  1  0  0  0  0
  6  7  1  0  0  0  0
  8  9  1  0  0  0  0
  9 10  2  0  0  0  0
M  END
>  <CHROM.1>
2.00950910,-20.48482795,25.47812575,0.33120518,-0.28551887,-2.07640843

>  <Name>
ligand

>  <RI>
0

>  <Rbt.Current_Directory>
/home/itssahil/PROJECTS/Mol_Feturizer/New_Systems/rnas/4LW0

>  <Rbt.Executable>
rbdock ($Id: //depot/dev/client3/rdock/2013.1/src/exe/rbdock.cxx#4 $)

>  <Rbt.Library>
libRbt.so (2013.1, Build901 2013/11/27)

>  <Rbt.Parameter_File>
/export/apps/rDock/src/rDock_2013.1_src/data/scripts/dock_solv.prm

>  <Rbt.Receptor>
prm/pocket_docking_3.prm

>  <SCORE>
-12.5102

>  <SCORE.INTER>
-12.5102

>  <SCORE.INTER.CONST>
1

>  <SCORE.INTER.POLAR>
0

>  <SCORE.INTER.ROT>
0

>  <SCORE.INTER.SOLV>
3.89523

>  <SCORE.INTER.VDW>
-13.2385

>  <SCORE.INTER.norm>
-1.25102

>  <SCORE.INTRA>
0

>  <SCORE.INTRA.DIHEDRAL>
0

>  <SCORE.INTRA.DIHEDRAL.0>
0

>  <SCORE.INTRA.POLAR>
0

>  <SCORE.INTRA.POLAR.0>
0

>  <SCORE.INTRA.REPUL>
0

>  <SCORE.INTRA.REPUL.0>
0

>  <SCORE.INTRA.SOLV>
0

>  <SCORE.INTRA.SOLV.lig_0>
-23.9151

>  <SCORE.INTRA.VDW>
0

>  <SCORE.INTRA.VDW.0>
0

>  <SCORE.INTRA.norm>
0

>  <SCORE.RESTR>
0

>  <SCORE.RESTR.CAVITY>
0

>  <SCORE.RESTR.norm>
0

>  <SCORE.SYSTEM>
0

>  <SCORE.SYSTEM.CONST>
0

>  <SCORE.SYSTEM.DIHEDRAL>
0

>  <SCORE.SYSTEM.SOLV>
0

>  <SCORE.SYSTEM.norm>
0

>  <SCORE.heavy>
10

>  <SCORE.norm>
-1.25102

>  <RMSD>
2.402

$$$$
ligand
 OpenBabel11021811503D
libRbt.so/2013.1/901 2013/11/27
 10 11  0  0  0  0  0  0  0  0999 V2000
    3.6385  -20.5089   24.3408 N   0  0  0  0  0  0  0  0  0  0  0  0
    2.7471  -21.2180   23.6454 C   0  0  0  0  0  0  0  0  0  0  0  0
    1.4769  -21.5094   23.9520 N   0  0  0  0  0  0  0  0  0  0  0  0
    1.1499  -20.9882   25.1500 C   0  0  0  0  0  0  0  0  0  0  0  0
    1.9586  -20.2378   25.9821 C   0  0  0  0  0  0  0  0  0  0  0  0
    3.2736  -19.9913   25.5400 C   0  0  0  0  0  0  0  0  0  0  0  0
    4.1654  -19.2856   26.2540 N   0  0  0  0  0  0  0  0  0  0  0  0
    1.2812  -19.8649   27.1286 N   0  0  0  0  0  0  0  0  0  0  0  0
    0.0904  -20.3804   26.9729 C   0  0  0  0  0  0  0  0  0  0  0  0
   -0.0554  -21.0795   25.8042 N   0  0  0  0  0  0  0  0  0  0  0  0
  1  2  2  0  0  0  0
  1  6  1  0  0  0  0
  2  3  1  0  0  0  0
  3  4  2  0  0  0  0
  4  5  1  0  0  0  0
  4 10  1  0  0  0  0
  5  6  2  0  0  0  0
  5  8  1  0  0  0  0
  6  7  1  0  0  0  0
  8  9  1  0  0  0  0
  9 10  2  0  0  0  0
M  END
>  <CHROM.1>
1.98247957,-20.50204551,25.47844684,0.33726619,-0.31189904,-2.06719549

>  <Name>
ligand

>  <RI>
0

>  <Rbt.Current_Directory>
/home/itssahil/PROJECTS/Mol_Feturizer/New_Systems/rnas/4LW0

>  <Rbt.Executable>
rbdock ($Id: //depot/dev/client3/rdock/2013.1/src/exe/rbdock.cxx#4 $)

>  <Rbt.Library>
libRbt.so (2013.1, Build901 2013/11/27)

>  <Rbt.Parameter_File>
/export/apps/rDock/src/rDock_2013.1_src/data/scripts/dock_solv.prm

>  <Rbt.Receptor>
prm/pocket_docking_5.prm

>  <SCORE>
-12.5342

>  <SCORE.INTER>
-12.5342

>  <SCORE.INTER.CONST>
1

>  <SCORE.INTER.POLAR>
0

>  <SCORE.INTER.ROT>
0

>  <SCORE.INTER.SOLV>
3.96594

>  <SCORE.INTER.VDW>
-13.2781

>  <SCORE.INTER.norm>
-1.25342

>  <SCORE.INTRA>
0

>  <SCORE.INTRA.DIHEDRAL>
0

>  <SCORE.INTRA.DIHEDRAL.0>
0

>  <SCORE.INTRA.POLAR>
0

>  <SCORE.INTRA.POLAR.0>
0

>  <SCORE.INTRA.REPUL>
0

>  <SCORE.INTRA.REPUL.0>
0

>  <SCORE.INTRA.SOLV>
0

>  <SCORE.INTRA.SOLV.lig_0>
-23.9151

>  <SCORE.INTRA.VDW>
0

>  <SCORE.INTRA.VDW.0>
0

>  <SCORE.INTRA.norm>
0

>  <SCORE.RESTR>
0

>  <SCORE.RESTR.CAVITY>
0

>  <SCORE.RESTR.norm>
0

>  <SCORE.SYSTEM>
0

>  <SCORE.SYSTEM.CONST>
0

>  <SCORE.SYSTEM.DIHEDRAL>
0

>  <SCORE.SYSTEM.SOLV>
0

>  <SCORE.SYSTEM.norm>
0

>  <SCORE.heavy>
10

>  <SCORE.norm>
-1.25342

>  <RMSD>
2.402

$$$$
ligand
 OpenBabel11021811503D
libRbt.so/2013.1/901 2013/11/27
 10 11  0  0  0  0  0  0  0  0999 V2000
    3.5469  -20.3622   24.5253 N   0  0  0  0  0  0  0  0  0  0  0  0
    2.6498  -20.8032   23.6412 C   0  0  0  0  0  0  0  0  0  0  0  0
    1.3834  -21.1872   23.8444 N   0  0  0  0  0  0  0  0  0  0  0  0
    1.0678  -21.0977   25.1506 C   0  0  0  0  0  0  0  0  0  0  0  0
    1.8835  -20.6638   26.1782 C   0  0  0  0  0  0  0  0  0  0  0  0
    3.1933  -20.2767   25.8318 C   0  0  0  0  0  0  0  0  0  0  0  0
    4.0910  -19.8451   26.7323 N   0  0  0  0  0  0  0  0  0  0  0  0
    1.2172  -20.6988   27.3895 N   0  0  0  0  0  0  0  0  0  0  0  0
    0.0261  -21.1392   27.0814 C   0  0  0  0  0  0  0  0  0  0  0  0
   -0.1305  -21.4087   25.7477 N   0  0  0  0  0  0  0  0  0  0  0  0
  1  2  2  0  0  0  0
  1  6  1  0  0  0  0
  2  3  1  0  0  0  0
  3  4  2  0  0  0  0
  4  5  1  0  0  0  0
  4 10  1  0  0  0  0
  5  6  2  0  0  0  0
  5  8  1  0  0  0  0
  6  7  1  0  0  0  0
  8  9  1  0  0  0  0
  9 10  2  0  0  0  0
M  END
>  <CHROM.1>
1.90273054,-20.74459444,25.61496876,0.34582631,-0.31866627,-1.72408432

>  <Name>
ligand

>  <RI>
0

>  <Rbt.Current_Directory>
/home/itssahil/PROJECTS/Mol_Feturizer/New_Systems/rnas/4LW0

>  <Rbt.Executable>
rbdock ($Id: //depot/dev/client3/rdock/2013.1/src/exe/rbdock.cxx#4 $)

>  <Rbt.Library>
libRbt.so (2013.1, Build901 2013/11/27)

>  <Rbt.Parameter_File>
/export/apps/rDock/src/rDock_2013.1_src/data/scripts/dock_solv.prm

>  <Rbt.Receptor>
prm/pocket_docking_5.prm

>  <SCORE>
-12.4298

>  <SCORE.INTER>
-12.4298

>  <SCORE.INTER.CONST>
1

>  <SCORE.INTER.POLAR>
0

>  <SCORE.INTER.ROT>
0

>  <SCORE.INTER.SOLV>
4.42591

>  <SCORE.INTER.VDW>
-13.3618

>  <SCORE.INTER.norm>
-1.24298

>  <SCORE.INTRA>
0

>  <SCORE.INTRA.DIHEDRAL>
0

>  <SCORE.INTRA.DIHEDRAL.0>
0

>  <SCORE.INTRA.POLAR>
0

>  <SCORE.INTRA.POLAR.0>
0

>  <SCORE.INTRA.REPUL>
0

>  <SCORE.INTRA.REPUL.0>
0

>  <SCORE.INTRA.SOLV>
0

>  <SCORE.INTRA.SOLV.lig_0>
-23.9151

>  <SCORE.INTRA.VDW>
0

>  <SCORE.INTRA.VDW.0>
0

>  <SCORE.INTRA.norm>
0

>  <SCORE.RESTR>
0

>  <SCORE.RESTR.CAVITY>
0

>  <SCORE.RESTR.norm>
0

>  <SCORE.SYSTEM>
0

>  <SCORE.SYSTEM.CONST>
0

>  <SCORE.SYSTEM.DIHEDRAL>
0

>  <SCORE.SYSTEM.SOLV>
0

>  <SCORE.SYSTEM.norm>
0

>  <SCORE.heavy>
10

>  <SCORE.norm>
-1.24298

>  <RMSD>
2.402

$$$$
ligand
 OpenBabel11021811503D
libRbt.so/2013.1/901 2013/11/27
 10 11  0  0  0  0  0  0  0  0999 V2000
    3.6694  -20.5820   24.3709 N   0  0  0  0  0  0  0  0  0  0  0  0
    2.7700  -21.2723   23.6670 C   0  0  0  0  0  0  0  0  0  0  0  0
    1.4893  -21.5315   23.9585 N   0  0  0  0  0  0  0  0  0  0  0  0
    1.1597  -20.9972   25.1499 C   0  0  0  0  0  0  0  0  0  0  0  0
    1.9758  -20.2629   25.9893 C   0  0  0  0  0  0  0  0  0  0  0  0
    3.3019  -20.0503   25.5632 C   0  0  0  0  0  0  0  0  0  0  0  0
    4.2014  -19.3633   26.2856 N   0  0  0  0  0  0  0  0  0  0  0  0
    1.2930  -19.8686   27.1255 N   0  0  0  0  0  0  0  0  0  0  0  0
    0.0922  -20.3558   26.9566 C   0  0  0  0  0  0  0  0  0  0  0  0
   -0.0557  -21.0564   25.7890 N   0  0  0  0  0  0  0  0  0  0  0  0
  1  2  2  0  0  0  0
  1  6  1  0  0  0  0
  2  3  1  0  0  0  0
  3  4  2  0  0  0  0
  4  5  1  0  0  0  0
  4 10  1  0  0  0  0
  5  6  2  0  0  0  0
  5  8  1  0  0  0  0
  6  7  1  0  0  0  0
  8  9  1  0  0  0  0
  9 10  2  0  0  0  0
M  END
>  <CHROM.1>
1.99965538,-20.52992064,25.48709798,0.33762304,-0.28445397,-2.07137527

>  <Name>
ligand

>  <RI>
0

>  <Rbt.Current_Directory>
/home/itssahil/PROJECTS/Mol_Feturizer/New_Systems/rnas/4LW0

>  <Rbt.Executable>
rbdock ($Id: //depot/dev/client3/rdock/2013.1/src/exe/rbdock.cxx#4 $)

>  <Rbt.Library>
libRbt.so (2013.1, Build901 2013/11/27)

>  <Rbt.Parameter_File>
/export/apps/rDock/src/rDock_2013.1_src/data/scripts/dock_solv.prm

>  <Rbt.Receptor>
prm/pocket_docking_6.prm

>  <SCORE>
-12.5025

>  <SCORE.INTER>
-12.5025

>  <SCORE.INTER.CONST>
1

>  <SCORE.INTER.POLAR>
0

>  <SCORE.INTER.ROT>
0

>  <SCORE.INTER.SOLV>
3.69621

>  <SCORE.INTER.VDW>
-13.1671

>  <SCORE.INTER.norm>
-1.25025

>  <SCORE.INTRA>
0

>  <SCORE.INTRA.DIHEDRAL>
0

>  <SCORE.INTRA.DIHEDRAL.0>
0

>  <SCORE.INTRA.POLAR>
0

>  <SCORE.INTRA.POLAR.0>
0

>  <SCORE.INTRA.REPUL>
0

>  <SCORE.INTRA.REPUL.0>
0

>  <SCORE.INTRA.SOLV>
0

>  <SCORE.INTRA.SOLV.lig_0>
-23.9151

>  <SCORE.INTRA.VDW>
0

>  <SCORE.INTRA.VDW.0>
0

>  <SCORE.INTRA.norm>
0

>  <SCORE.RESTR>
0

>  <SCORE.RESTR.CAVITY>
0

>  <SCORE.RESTR.norm>
0

>  <SCORE.SYSTEM>
0

>  <SCORE.SYSTEM.CONST>
0

>  <SCORE.SYSTEM.DIHEDRAL>
0

>  <SCORE.SYSTEM.SOLV>
0

>  <SCORE.SYSTEM.norm>
0

>  <SCORE.heavy>
10

>  <SCORE.norm>
-1.25025

>  <RMSD>
2.402

$$$$
ligand
 OpenBabel11021811503D
libRbt.so/2013.1/901 2013/11/27
 10 11  0  0  0  0  0  0  0  0999 V2000
    3.6847  -20.6266   24.3913 N   0  0  0  0  0  0  0  0  0  0  0  0
    2.7913  -21.3234   23.6861 C   0  0  0  0  0  0  0  0  0  0  0  0
    1.5061  -21.5737   23.9653 N   0  0  0  0  0  0  0  0  0  0  0  0
    1.1639  -21.0215   25.1450 C   0  0  0  0  0  0  0  0  0  0  0  0
    1.9724  -20.2785   25.9840 C   0  0  0  0  0  0  0  0  0  0  0  0
    3.3045  -20.0768   25.5714 C   0  0  0  0  0  0  0  0  0  0  0  0
    4.1976  -19.3830   26.2952 N   0  0  0  0  0  0  0  0  0  0  0  0
    1.2772  -19.8658   27.1060 N   0  0  0  0  0  0  0  0  0  0  0  0
    0.0767  -20.3508   26.9291 C   0  0  0  0  0  0  0  0  0  0  0  0
   -0.0595  -21.0672   25.7697 N   0  0  0  0  0  0  0  0  0  0  0  0
  1  2  2  0  0  0  0
  1  6  1  0  0  0  0
  2  3  1  0  0  0  0
  3  4  2  0  0  0  0
  4  5  1  0  0  0  0
  4 10  1  0  0  0  0
  5  6  2  0  0  0  0
  5  8  1  0  0  0  0
  6  7  1  0  0  0  0
  8  9  1  0  0  0  0
  9 10  2  0  0  0  0
M  END
>  <CHROM.1>
2.00144513,-20.55261714,25.48593102,0.32831338,-0.27513170,-2.08798796

>  <Name>
ligand

>  <RI>
0

>  <Rbt.Current_Directory>
/home/itssahil/PROJECTS/Mol_Feturizer/New_Systems/rnas/4LW0

>  <Rbt.Executable>
rbdock ($Id: //depot/dev/client3/rdock/2013.1/src/exe/rbdock.cxx#4 $)

>  <Rbt.Library>
libRbt.so (2013.1, Build901 2013/11/27)

>  <Rbt.Parameter_File>
/export/apps/rDock/src/rDock_2013.1_src/data/scripts/dock_solv.prm

>  <Rbt.Receptor>
prm/pocket_docking_6.prm

>  <SCORE>
-12.4929

>  <SCORE.INTER>
-12.4929

>  <SCORE.INTER.CONST>
1

>  <SCORE.INTER.POLAR>
0

>  <SCORE.INTER.ROT>
0

>  <SCORE.INTER.SOLV>
3.65067

>  <SCORE.INTER.VDW>
-13.1455

>  <SCORE.INTER.norm>
-1.24929

>  <SCORE.INTRA>
0

>  <SCORE.INTRA.DIHEDRAL>
0

>  <SCORE.INTRA.DIHEDRAL.0>
0

>  <SCORE.INTRA.POLAR>
0

>  <SCORE.INTRA.POLAR.0>
0

>  <SCORE.INTRA.REPUL>
0

>  <SCORE.INTRA.REPUL.0>
0

>  <SCORE.INTRA.SOLV>
0

>  <SCORE.INTRA.SOLV.lig_0>
-23.9151

>  <SCORE.INTRA.VDW>
0

>  <SCORE.INTRA.VDW.0>
0

>  <SCORE.INTRA.norm>
0

>  <SCORE.RESTR>
0

>  <SCORE.RESTR.CAVITY>
0

>  <SCORE.RESTR.norm>
0

>  <SCORE.SYSTEM>
0

>  <SCORE.SYSTEM.CONST>
0

>  <SCORE.SYSTEM.DIHEDRAL>
0

>  <SCORE.SYSTEM.SOLV>
0

>  <SCORE.SYSTEM.norm>
0

>  <SCORE.heavy>
10

>  <SCORE.norm>
-1.24929

>  <RMSD>
2.402

$$$$
ligand
 OpenBabel11021811503D
libRbt.so/2013.1/901 2013/11/27
 10 11  0  0  0  0  0  0  0  0999 V2000
    3.7088  -20.5622   24.3885 N   0  0  0  0  0  0  0  0  0  0  0  0
    2.8021  -21.2151   23.6586 C   0  0  0  0  0  0  0  0  0  0  0  0
    1.5151  -21.4599   23.9341 N   0  0  0  0  0  0  0  0  0  0  0  0
    1.1868  -20.9554   25.1388 C   0  0  0  0  0  0  0  0  0  0  0  0
    2.0099  -20.2611   26.0049 C   0  0  0  0  0  0  0  0  0  0  0  0
    3.3424  -20.0597   25.5937 C   0  0  0  0  0  0  0  0  0  0  0  0
    4.2489  -19.4106   26.3421 N   0  0  0  0  0  0  0  0  0  0  0  0
    1.3263  -19.8886   27.1479 N   0  0  0  0  0  0  0  0  0  0  0  0
    0.1183  -20.3490   26.9569 C   0  0  0  0  0  0  0  0  0  0  0  0
   -0.0339  -21.0118   25.7680 N   0  0  0  0  0  0  0  0  0  0  0  0
  1  2  2  0  0  0  0
  1  6  1  0  0  0  0
  2  3  1  0  0  0  0
  3  4  2  0  0  0  0
  4  5  1  0  0  0  0
  4 10  1  0  0  0  0
  5  6  2  0  0  0  0
  5  8  1  0  0  0  0
  6  7  1  0  0  0  0
  8  9  1  0  0  0  0
  9 10  2  0  0  0  0
M  END
>  <CHROM.1>
2.03248886,-20.51343472,25.49509914,0.34012138,-0.26563511,-2.04094353

>  <Name>
ligand

>  <RI>
0

>  <Rbt.Current_Directory>
/home/itssahil/PROJECTS/Mol_Feturizer/New_Systems/rnas/4LW0

>  <Rbt.Executable>
rbdock ($Id: //depot/dev/client3/rdock/2013.1/src/exe/rbdock.cxx#4 $)

>  <Rbt.Library>
libRbt.so (2013.1, Build901 2013/11/27)

>  <Rbt.Parameter_File>
/export/apps/rDock/src/rDock_2013.1_src/data/scripts/dock_solv.prm

>  <Rbt.Receptor>
prm/pocket_docking_6.prm

>  <SCORE>
-12.4481

>  <SCORE.INTER>
-12.4481

>  <SCORE.INTER.CONST>
1

>  <SCORE.INTER.POLAR>
0

>  <SCORE.INTER.ROT>
0

>  <SCORE.INTER.SOLV>
3.69578

>  <SCORE.INTER.VDW>
-13.1307

>  <SCORE.INTER.norm>
-1.24481

>  <SCORE.INTRA>
0

>  <SCORE.INTRA.DIHEDRAL>
0

>  <SCORE.INTRA.DIHEDRAL.0>
0

>  <SCORE.INTRA.POLAR>
0

>  <SCORE.INTRA.POLAR.0>
0

>  <SCORE.INTRA.REPUL>
0

>  <SCORE.INTRA.REPUL.0>
0

>  <SCORE.INTRA.SOLV>
0

>  <SCORE.INTRA.SOLV.lig_0>
-23.9151

>  <SCORE.INTRA.VDW>
0

>  <SCORE.INTRA.VDW.0>
0

>  <SCORE.INTRA.norm>
0

>  <SCORE.RESTR>
0

>  <SCORE.RESTR.CAVITY>
0

>  <SCORE.RESTR.norm>
0

>  <SCORE.SYSTEM>
0

>  <SCORE.SYSTEM.CONST>
0

>  <SCORE.SYSTEM.DIHEDRAL>
0

>  <SCORE.SYSTEM.SOLV>
0

>  <SCORE.SYSTEM.norm>
0

>  <SCORE.heavy>
10

>  <SCORE.norm>
-1.24481

>  <RMSD>
2.402

$$$$
ligand
 OpenBabel11021811503D
libRbt.so/2013.1/901 2013/11/27
 10 11  0  0  0  0  0  0  0  0999 V2000
    3.6729  -20.5942   24.3799 N   0  0  0  0  0  0  0  0  0  0  0  0
    2.7723  -21.2799   23.6729 C   0  0  0  0  0  0  0  0  0  0  0  0
    1.4893  -21.5325   23.9599 N   0  0  0  0  0  0  0  0  0  0  0  0
    1.1583  -20.9964   25.1501 C   0  0  0  0  0  0  0  0  0  0  0  0
    1.9752  -20.2661   25.9923 C   0  0  0  0  0  0  0  0  0  0  0  0
    3.3039  -20.0605   25.5708 C   0  0  0  0  0  0  0  0  0  0  0  0
    4.2043  -19.3780   26.2963 N   0  0  0  0  0  0  0  0  0  0  0  0
    1.2905  -19.8682   27.1260 N   0  0  0  0  0  0  0  0  0  0  0  0
    0.0878  -20.3493   26.9529 C   0  0  0  0  0  0  0  0  0  0  0  0
   -0.0596  -21.0492   25.7849 N   0  0  0  0  0  0  0  0  0  0  0  0
  1  2  2  0  0  0  0
  1  6  1  0  0  0  0
  2  3  1  0  0  0  0
  3  4  2  0  0  0  0
  4  5  1  0  0  0  0
  4 10  1  0  0  0  0
  5  6  2  0  0  0  0
  5  8  1  0  0  0  0
  6  7  1  0  0  0  0
  8  9  1  0  0  0  0
  9 10  2  0  0  0  0
M  END
>  <CHROM.1>
1.99946259,-20.53335180,25.49019580,0.33699450,-0.27824792,-2.07167563

>  <Name>
ligand

>  <RI>
0

>  <Rbt.Current_Directory>
/home/itssahil/PROJECTS/Mol_Feturizer/New_Systems/rnas/4LW0

>  <Rbt.Executable>
rbdock ($Id: //depot/dev/client3/rdock/2013.1/src/exe/rbdock.cxx#4 $)

>  <Rbt.Library>
libRbt.so (2013.1, Build901 2013/11/27)

>  <Rbt.Parameter_File>
/export/apps/rDock/src/rDock_2013.1_src/data/scripts/dock_solv.prm

>  <Rbt.Receptor>
prm/pocket_docking_7.prm

>  <SCORE>
-12.5035

>  <SCORE.INTER>
-12.5035

>  <SCORE.INTER.CONST>
1

>  <SCORE.INTER.POLAR>
0

>  <SCORE.INTER.ROT>
0

>  <SCORE.INTER.SOLV>
3.68029

>  <SCORE.INTER.VDW>
-13.1625

>  <SCORE.INTER.norm>
-1.25035

>  <SCORE.INTRA>
0

>  <SCORE.INTRA.DIHEDRAL>
0

>  <SCORE.INTRA.DIHEDRAL.0>
0

>  <SCORE.INTRA.POLAR>
0

>  <SCORE.INTRA.POLAR.0>
0

>  <SCORE.INTRA.REPUL>
0

>  <SCORE.INTRA.REPUL.0>
0

>  <SCORE.INTRA.SOLV>
0

>  <SCORE.INTRA.SOLV.lig_0>
-23.9151

>  <SCORE.INTRA.VDW>
0

>  <SCORE.INTRA.VDW.0>
0

>  <SCORE.INTRA.norm>
0

>  <SCORE.RESTR>
0

>  <SCORE.RESTR.CAVITY>
0

>  <SCORE.RESTR.norm>
0

>  <SCORE.SYSTEM>
0

>  <SCORE.SYSTEM.CONST>
0

>  <SCORE.SYSTEM.DIHEDRAL>
0

>  <SCORE.SYSTEM.SOLV>
0

>  <SCORE.SYSTEM.norm>
0

>  <SCORE.heavy>
10

>  <SCORE.norm>
-1.25035

>  <RMSD>
2.402

$$$$
ligand
 OpenBabel11021811503D
libRbt.so/2013.1/901 2013/11/27
 10 11  0  0  0  0  0  0  0  0999 V2000
    3.6681  -20.5096   24.3550 N   0  0  0  0  0  0  0  0  0  0  0  0
    2.7736  -21.1983   23.6432 C   0  0  0  0  0  0  0  0  0  0  0  0
    1.4973  -21.4772   23.9356 N   0  0  0  0  0  0  0  0  0  0  0  0
    1.1668  -20.9671   25.1373 C   0  0  0  0  0  0  0  0  0  0  0  0
    1.9779  -20.2376   25.9856 C   0  0  0  0  0  0  0  0  0  0  0  0
    3.2996  -20.0025   25.5576 C   0  0  0  0  0  0  0  0  0  0  0  0
    4.1942  -19.3173   26.2879 N   0  0  0  0  0  0  0  0  0  0  0  0
    1.2956  -19.8706   27.1311 N   0  0  0  0  0  0  0  0  0  0  0  0
    0.0998  -20.3688   26.9590 C   0  0  0  0  0  0  0  0  0  0  0  0
   -0.0451  -21.0511   25.7803 N   0  0  0  0  0  0  0  0  0  0  0  0
  1  2  2  0  0  0  0
  1  6  1  0  0  0  0
  2  3  1  0  0  0  0
  3  4  2  0  0  0  0
  4  5  1  0  0  0  0
  4 10  1  0  0  0  0
  5  6  2  0  0  0  0
  5  8  1  0  0  0  0
  6  7  1  0  0  0  0
  8  9  1  0  0  0  0
  9 10  2  0  0  0  0
M  END
>  <CHROM.1>
2.00268378,-20.49579894,25.47886107,0.33581592,-0.29667612,-2.05497120

>  <Name>
ligand

>  <RI>
0

>  <Rbt.Current_Directory>
/home/itssahil/PROJECTS/Mol_Feturizer/New_Systems/rnas/4LW0

>  <Rbt.Executable>
rbdock ($Id: //depot/dev/client3/rdock/2013.1/src/exe/rbdock.cxx#4 $)

>  <Rbt.Library>
libRbt.so (2013.1, Build901 2013/11/27)

>  <Rbt.Parameter_File>
/export/apps/rDock/src/rDock_2013.1_src/data/scripts/dock_solv.prm

>  <Rbt.Receptor>
prm/pocket_docking_7.prm

>  <SCORE>
-12.5141

>  <SCORE.INTER>
-12.5141

>  <SCORE.INTER.CONST>
1

>  <SCORE.INTER.POLAR>
0

>  <SCORE.INTER.ROT>
0

>  <SCORE.INTER.SOLV>
3.88688

>  <SCORE.INTER.VDW>
-13.2384

>  <SCORE.INTER.norm>
-1.25141

>  <SCORE.INTRA>
0

>  <SCORE.INTRA.DIHEDRAL>
0

>  <SCORE.INTRA.DIHEDRAL.0>
0

>  <SCORE.INTRA.POLAR>
0

>  <SCORE.INTRA.POLAR.0>
0

>  <SCORE.INTRA.REPUL>
0

>  <SCORE.INTRA.REPUL.0>
0

>  <SCORE.INTRA.SOLV>
0

>  <SCORE.INTRA.SOLV.lig_0>
-23.9151

>  <SCORE.INTRA.VDW>
0

>  <SCORE.INTRA.VDW.0>
0

>  <SCORE.INTRA.norm>
0

>  <SCORE.RESTR>
0

>  <SCORE.RESTR.CAVITY>
0

>  <SCORE.RESTR.norm>
0

>  <SCORE.SYSTEM>
0

>  <SCORE.SYSTEM.CONST>
0

>  <SCORE.SYSTEM.DIHEDRAL>
0

>  <SCORE.SYSTEM.SOLV>
0

>  <SCORE.SYSTEM.norm>
0

>  <SCORE.heavy>
10

>  <SCORE.norm>
-1.25141

>  <RMSD>
2.402

$$$$
ligand
 OpenBabel11021811503D
libRbt.so/2013.1/901 2013/11/27
 10 11  0  0  0  0  0  0  0  0999 V2000
    3.6788  -20.5001   24.3424 N   0  0  0  0  0  0  0  0  0  0  0  0
    2.7817  -21.1844   23.6297 C   0  0  0  0  0  0  0  0  0  0  0  0
    1.5062  -21.4645   23.9247 N   0  0  0  0  0  0  0  0  0  0  0  0
    1.1799  -20.9612   25.1304 C   0  0  0  0  0  0  0  0  0  0  0  0
    1.9942  -20.2369   25.9802 C   0  0  0  0  0  0  0  0  0  0  0  0
    3.3145  -19.9998   25.5492 C   0  0  0  0  0  0  0  0  0  0  0  0
    4.2118  -19.3192   26.2804 N   0  0  0  0  0  0  0  0  0  0  0  0
    1.3158  -19.8763   27.1301 N   0  0  0  0  0  0  0  0  0  0  0  0
    0.1192  -20.3731   26.9591 C   0  0  0  0  0  0  0  0  0  0  0  0
   -0.0298  -21.0485   25.7770 N   0  0  0  0  0  0  0  0  0  0  0  0
  1  2  2  0  0  0  0
  1  6  1  0  0  0  0
  2  3  1  0  0  0  0
  3  4  2  0  0  0  0
  4  5  1  0  0  0  0
  4 10  1  0  0  0  0
  5  6  2  0  0  0  0
  5  8  1  0  0  0  0
  6  7  1  0  0  0  0
  8  9  1  0  0  0  0
  9 10  2  0  0  0  0
M  END
>  <CHROM.1>
2.01716970,-20.49221716,25.47190205,0.33909052,-0.29789709,-2.04822373

>  <Name>
ligand

>  <RI>
0

>  <Rbt.Current_Directory>
/home/itssahil/PROJECTS/Mol_Feturizer/New_Systems/rnas/4LW0

>  <Rbt.Executable>
rbdock ($Id: //depot/dev/client3/rdock/2013.1/src/exe/rbdock.cxx#4 $)

>  <Rbt.Library>
libRbt.so (2013.1, Build901 2013/11/27)

>  <Rbt.Parameter_File>
/export/apps/rDock/src/rDock_2013.1_src/data/scripts/dock_solv.prm

>  <Rbt.Receptor>
prm/pocket_docking_8.prm

>  <SCORE>
-12.5249

>  <SCORE.INTER>
-12.5249

>  <SCORE.INTER.CONST>
1

>  <SCORE.INTER.POLAR>
0

>  <SCORE.INTER.ROT>
0

>  <SCORE.INTER.SOLV>
3.82484

>  <SCORE.INTER.VDW>
-13.2249

>  <SCORE.INTER.norm>
-1.25249

>  <SCORE.INTRA>
0

>  <SCORE.INTRA.DIHEDRAL>
0

>  <SCORE.INTRA.DIHEDRAL.0>
0

>  <SCORE.INTRA.POLAR>
0

>  <SCORE.INTRA.POLAR.0>
0

>  <SCORE.INTRA.REPUL>
0

>  <SCORE.INTRA.REPUL.0>
0

>  <SCORE.INTRA.SOLV>
0

>  <SCORE.INTRA.SOLV.lig_0>
-23.9151

>  <SCORE.INTRA.VDW>
0

>  <SCORE.INTRA.VDW.0>
0

>  <SCORE.INTRA.norm>
0

>  <SCORE.RESTR>
0

>  <SCORE.RESTR.CAVITY>
0

>  <SCORE.RESTR.norm>
0

>  <SCORE.SYSTEM>
0

>  <SCORE.SYSTEM.CONST>
0

>  <SCORE.SYSTEM.DIHEDRAL>
0

>  <SCORE.SYSTEM.SOLV>
0

>  <SCORE.SYSTEM.norm>
0

>  <SCORE.heavy>
10

>  <SCORE.norm>
-1.25249

>  <RMSD>
2.402

$$$$
ligand
 OpenBabel11021811503D
libRbt.so/2013.1/901 2013/11/27
 10 11  0  0  0  0  0  0  0  0999 V2000
    3.7137  -20.7435   24.5226 N   0  0  0  0  0  0  0  0  0  0  0  0
    2.8297  -21.4493   23.8145 C   0  0  0  0  0  0  0  0  0  0  0  0
    1.5313  -21.6641   24.0599 N   0  0  0  0  0  0  0  0  0  0  0  0
    1.1622  -21.0610   25.2061 C   0  0  0  0  0  0  0  0  0  0  0  0
    1.9580  -20.3023   26.0433 C   0  0  0  0  0  0  0  0  0  0  0  0
    3.3066  -20.1421   25.6680 C   0  0  0  0  0  0  0  0  0  0  0  0
    4.1897  -19.4386   26.3948 N   0  0  0  0  0  0  0  0  0  0  0  0
    1.2352  -19.8339   27.1253 N   0  0  0  0  0  0  0  0  0  0  0  0
    0.0314  -20.3023   26.9267 C   0  0  0  0  0  0  0  0  0  0  0  0
   -0.0816  -21.0594   25.7910 N   0  0  0  0  0  0  0  0  0  0  0  0
  1  2  2  0  0  0  0
  1  6  1  0  0  0  0
  2  3  1  0  0  0  0
  3  4  2  0  0  0  0
  4  5  1  0  0  0  0
  4 10  1  0  0  0  0
  5  6  2  0  0  0  0
  5  8  1  0  0  0  0
  6  7  1  0  0  0  0
  8  9  1  0  0  0  0
  9 10  2  0  0  0  0
M  END
>  <CHROM.1>
1.99759608,-20.59566132,25.55702519,0.30955955,-0.24120215,-2.13047999

>  <Name>
ligand

>  <RI>
0

>  <Rbt.Current_Directory>
/home/itssahil/PROJECTS/Mol_Feturizer/New_Systems/rnas/4LW0

>  <Rbt.Executable>
rbdock ($Id: //depot/dev/client3/rdock/2013.1/src/exe/rbdock.cxx#4 $)

>  <Rbt.Library>
libRbt.so (2013.1, Build901 2013/11/27)

>  <Rbt.Parameter_File>
/export/apps/rDock/src/rDock_2013.1_src/data/scripts/dock_solv.prm

>  <Rbt.Receptor>
prm/pocket_docking_8.prm

>  <SCORE>
-12.4797

>  <SCORE.INTER>
-12.4797

>  <SCORE.INTER.CONST>
1

>  <SCORE.INTER.POLAR>
0

>  <SCORE.INTER.ROT>
0

>  <SCORE.INTER.SOLV>
3.83119

>  <SCORE.INTER.VDW>
-13.1968

>  <SCORE.INTER.norm>
-1.24797

>  <SCORE.INTRA>
0

>  <SCORE.INTRA.DIHEDRAL>
0

>  <SCORE.INTRA.DIHEDRAL.0>
0

>  <SCORE.INTRA.POLAR>
0

>  <SCORE.INTRA.POLAR.0>
0

>  <SCORE.INTRA.REPUL>
0

>  <SCORE.INTRA.REPUL.0>
0

>  <SCORE.INTRA.SOLV>
0

>  <SCORE.INTRA.SOLV.lig_0>
-23.9151

>  <SCORE.INTRA.VDW>
0

>  <SCORE.INTRA.VDW.0>
0

>  <SCORE.INTRA.norm>
0

>  <SCORE.RESTR>
0

>  <SCORE.RESTR.CAVITY>
0

>  <SCORE.RESTR.norm>
0

>  <SCORE.SYSTEM>
0

>  <SCORE.SYSTEM.CONST>
0

>  <SCORE.SYSTEM.DIHEDRAL>
0

>  <SCORE.SYSTEM.SOLV>
0

>  <SCORE.SYSTEM.norm>
0

>  <SCORE.heavy>
10

>  <SCORE.norm>
-1.24797

>  <RMSD>
2.402

$$$$
ligand
 OpenBabel11021811503D
libRbt.so/2013.1/901 2013/11/27
 10 11  0  0  0  0  0  0  0  0999 V2000
    3.6854  -20.4968   24.3606 N   0  0  0  0  0  0  0  0  0  0  0  0
    2.7906  -21.1746   23.6387 C   0  0  0  0  0  0  0  0  0  0  0  0
    1.5119  -21.4504   23.9233 N   0  0  0  0  0  0  0  0  0  0  0  0
    1.1788  -20.9502   25.1285 C   0  0  0  0  0  0  0  0  0  0  0  0
    1.9898  -20.2326   25.9869 C   0  0  0  0  0  0  0  0  0  0  0  0
    3.3143  -19.9995   25.5665 C   0  0  0  0  0  0  0  0  0  0  0  0
    4.2091  -19.3254   26.3069 N   0  0  0  0  0  0  0  0  0  0  0  0
    1.3045  -19.8733   27.1331 N   0  0  0  0  0  0  0  0  0  0  0  0
    0.1071  -20.3643   26.9514 C   0  0  0  0  0  0  0  0  0  0  0  0
   -0.0360  -21.0348   25.7657 N   0  0  0  0  0  0  0  0  0  0  0  0
  1  2  2  0  0  0  0
  1  6  1  0  0  0  0
  2  3  1  0  0  0  0
  3  4  2  0  0  0  0
  4  5  1  0  0  0  0
  4 10  1  0  0  0  0
  5  6  2  0  0  0  0
  5  8  1  0  0  0  0
  6  7  1  0  0  0  0
  8  9  1  0  0  0  0
  9 10  2  0  0  0  0
M  END
>  <CHROM.1>
2.01546947,-20.48603831,25.47782976,0.33426885,-0.29072847,-2.04590477

>  <Name>
ligand

>  <RI>
0

>  <Rbt.Current_Directory>
/home/itssahil/PROJECTS/Mol_Feturizer/New_Systems/rnas/4LW0

>  <Rbt.Executable>
rbdock ($Id: //depot/dev/client3/rdock/2013.1/src/exe/rbdock.cxx#4 $)

>  <Rbt.Library>
libRbt.so (2013.1, Build901 2013/11/27)

>  <Rbt.Parameter_File>
/export/apps/rDock/src/rDock_2013.1_src/data/scripts/dock_solv.prm

>  <Rbt.Receptor>
prm/pocket_docking_8.prm

>  <SCORE>
-12.5311

>  <SCORE.INTER>
-12.5311

>  <SCORE.INTER.CONST>
1

>  <SCORE.INTER.POLAR>
0

>  <SCORE.INTER.ROT>
0

>  <SCORE.INTER.SOLV>
3.89204

>  <SCORE.INTER.VDW>
-13.2514

>  <SCORE.INTER.norm>
-1.25311

>  <SCORE.INTRA>
0

>  <SCORE.INTRA.DIHEDRAL>
0

>  <SCORE.INTRA.DIHEDRAL.0>
0

>  <SCORE.INTRA.POLAR>
0

>  <SCORE.INTRA.POLAR.0>
0

>  <SCORE.INTRA.REPUL>
0

>  <SCORE.INTRA.REPUL.0>
0

>  <SCORE.INTRA.SOLV>
0

>  <SCORE.INTRA.SOLV.lig_0>
-23.9151

>  <SCORE.INTRA.VDW>
0

>  <SCORE.INTRA.VDW.0>
0

>  <SCORE.INTRA.norm>
0

>  <SCORE.RESTR>
0

>  <SCORE.RESTR.CAVITY>
0

>  <SCORE.RESTR.norm>
0

>  <SCORE.SYSTEM>
0

>  <SCORE.SYSTEM.CONST>
0

>  <SCORE.SYSTEM.DIHEDRAL>
0

>  <SCORE.SYSTEM.SOLV>
0

>  <SCORE.SYSTEM.norm>
0

>  <SCORE.heavy>
10

>  <SCORE.norm>
-1.25311

>  <RMSD>
2.402

$$$$
ligand
 OpenBabel11021811503D
libRbt.so/2013.1/901 2013/11/27
 10 11  0  0  0  0  0  0  0  0999 V2000
    3.6533  -20.5334   24.3430 N   0  0  0  0  0  0  0  0  0  0  0  0
    2.7590  -21.2450   23.6541 C   0  0  0  0  0  0  0  0  0  0  0  0
    1.4829  -21.5151   23.9557 N   0  0  0  0  0  0  0  0  0  0  0  0
    1.1526  -20.9668   25.1406 C   0  0  0  0  0  0  0  0  0  0  0  0
    1.9636  -20.2101   25.9648 C   0  0  0  0  0  0  0  0  0  0  0  0
    3.2850  -19.9881   25.5289 C   0  0  0  0  0  0  0  0  0  0  0  0
    4.1795  -19.2795   26.2365 N   0  0  0  0  0  0  0  0  0  0  0  0
    1.2815  -19.8069   27.0982 N   0  0  0  0  0  0  0  0  0  0  0  0
    0.0859  -20.3110   26.9425 C   0  0  0  0  0  0  0  0  0  0  0  0
   -0.0590  -21.0309   25.7864 N   0  0  0  0  0  0  0  0  0  0  0  0
  1  2  2  0  0  0  0
  1  6  1  0  0  0  0
  2  3  1  0  0  0  0
  3  4  2  0  0  0  0
  4  5  1  0  0  0  0
  4 10  1  0  0  0  0
  5  6  2  0  0  0  0
  5  8  1  0  0  0  0
  6  7  1  0  0  0  0
  8  9  1  0  0  0  0
  9 10  2  0  0  0  0
M  END
>  <CHROM.1>
1.98834817,-20.48443481,25.46651089,0.33589331,-0.29732223,-2.08699901

>  <Name>
ligand

>  <RI>
0

>  <Rbt.Current_Directory>
/home/itssahil/PROJECTS/Mol_Feturizer/New_Systems/rnas/4LW0

>  <Rbt.Executable>
rbdock ($Id: //depot/dev/client3/rdock/2013.1/src/exe/rbdock.cxx#4 $)

>  <Rbt.Library>
libRbt.so (2013.1, Build901 2013/11/27)

>  <Rbt.Parameter_File>
/export/apps/rDock/src/rDock_2013.1_src/data/scripts/dock_solv.prm

>  <Rbt.Receptor>
prm/pocket_docking_3.prm

>  <SCORE>
-12.5418

>  <SCORE.INTER>
-12.5418

>  <SCORE.INTER.CONST>
1

>  <SCORE.INTER.POLAR>
0

>  <SCORE.INTER.ROT>
0

>  <SCORE.INTER.SOLV>
3.93839

>  <SCORE.INTER.VDW>
-13.274

>  <SCORE.INTER.norm>
-1.25418

>  <SCORE.INTRA>
0

>  <SCORE.INTRA.DIHEDRAL>
0

>  <SCORE.INTRA.DIHEDRAL.0>
0

>  <SCORE.INTRA.POLAR>
0

>  <SCORE.INTRA.POLAR.0>
0

>  <SCORE.INTRA.REPUL>
0

>  <SCORE.INTRA.REPUL.0>
0

>  <SCORE.INTRA.SOLV>
0

>  <SCORE.INTRA.SOLV.lig_0>
-23.9151

>  <SCORE.INTRA.VDW>
0

>  <SCORE.INTRA.VDW.0>
0

>  <SCORE.INTRA.norm>
0

>  <SCORE.RESTR>
0

>  <SCORE.RESTR.CAVITY>
0

>  <SCORE.RESTR.norm>
0

>  <SCORE.SYSTEM>
0

>  <SCORE.SYSTEM.CONST>
0

>  <SCORE.SYSTEM.DIHEDRAL>
0

>  <SCORE.SYSTEM.SOLV>
0

>  <SCORE.SYSTEM.norm>
0

>  <SCORE.heavy>
10

>  <SCORE.norm>
-1.25418

>  <RMSD>
2.403

$$$$
ligand
 OpenBabel11021811503D
libRbt.so/2013.1/901 2013/11/27
 10 11  0  0  0  0  0  0  0  0999 V2000
    3.6347  -20.5046   24.3410 N   0  0  0  0  0  0  0  0  0  0  0  0
    2.7433  -21.2099   23.6418 C   0  0  0  0  0  0  0  0  0  0  0  0
    1.4717  -21.4992   23.9447 N   0  0  0  0  0  0  0  0  0  0  0  0
    1.1430  -20.9802   25.1431 C   0  0  0  0  0  0  0  0  0  0  0  0
    1.9514  -20.2335   25.9789 C   0  0  0  0  0  0  0  0  0  0  0  0
    3.2680  -19.9890   25.5406 C   0  0  0  0  0  0  0  0  0  0  0  0
    4.1596  -19.2870   26.2584 N   0  0  0  0  0  0  0  0  0  0  0  0
    1.2720  -19.8619   27.1247 N   0  0  0  0  0  0  0  0  0  0  0  0
    0.0805  -20.3743   26.9649 C   0  0  0  0  0  0  0  0  0  0  0  0
   -0.0641  -21.0703   25.7942 N   0  0  0  0  0  0  0  0  0  0  0  0
  1  2  2  0  0  0  0
  1  6  1  0  0  0  0
  2  3  1  0  0  0  0
  3  4  2  0  0  0  0
  4  5  1  0  0  0  0
  4 10  1  0  0  0  0
  5  6  2  0  0  0  0
  5  8  1  0  0  0  0
  6  7  1  0  0  0  0
  8  9  1  0  0  0  0
  9 10  2  0  0  0  0
M  END
>  <CHROM.1>
1.97588850,-20.49665473,25.47470878,0.33616729,-0.30877778,-2.06514901

>  <Name>
ligand

>  <RI>
0

>  <Rbt.Current_Directory>
/home/itssahil/PROJECTS/Mol_Feturizer/New_Systems/rnas/4LW0

>  <Rbt.Executable>
rbdock ($Id: //depot/dev/client3/rdock/2013.1/src/exe/rbdock.cxx#4 $)

>  <Rbt.Library>
libRbt.so (2013.1, Build901 2013/11/27)

>  <Rbt.Parameter_File>
/export/apps/rDock/src/rDock_2013.1_src/data/scripts/dock_solv.prm

>  <Rbt.Receptor>
prm/pocket_docking_3.prm

>  <SCORE>
-12.5343

>  <SCORE.INTER>
-12.5343

>  <SCORE.INTER.CONST>
1

>  <SCORE.INTER.POLAR>
0

>  <SCORE.INTER.ROT>
0

>  <SCORE.INTER.SOLV>
3.99926

>  <SCORE.INTER.VDW>
-13.2893

>  <SCORE.INTER.norm>
-1.25343

>  <SCORE.INTRA>
0

>  <SCORE.INTRA.DIHEDRAL>
0

>  <SCORE.INTRA.DIHEDRAL.0>
0

>  <SCORE.INTRA.POLAR>
0

>  <SCORE.INTRA.POLAR.0>
0

>  <SCORE.INTRA.REPUL>
0

>  <SCORE.INTRA.REPUL.0>
0

>  <SCORE.INTRA.SOLV>
0

>  <SCORE.INTRA.SOLV.lig_0>
-23.9151

>  <SCORE.INTRA.VDW>
0

>  <SCORE.INTRA.VDW.0>
0

>  <SCORE.INTRA.norm>
0

>  <SCORE.RESTR>
0

>  <SCORE.RESTR.CAVITY>
0

>  <SCORE.RESTR.norm>
0

>  <SCORE.SYSTEM>
0

>  <SCORE.SYSTEM.CONST>
0

>  <SCORE.SYSTEM.DIHEDRAL>
0

>  <SCORE.SYSTEM.SOLV>
0

>  <SCORE.SYSTEM.norm>
0

>  <SCORE.heavy>
10

>  <SCORE.norm>
-1.25343

>  <RMSD>
2.403

$$$$
ligand
 OpenBabel11021811503D
libRbt.so/2013.1/901 2013/11/27
 10 11  0  0  0  0  0  0  0  0999 V2000
    3.6567  -20.5405   24.3450 N   0  0  0  0  0  0  0  0  0  0  0  0
    2.7618  -21.2522   23.6567 C   0  0  0  0  0  0  0  0  0  0  0  0
    1.4855  -21.5210   23.9585 N   0  0  0  0  0  0  0  0  0  0  0  0
    1.1554  -20.9711   25.1427 C   0  0  0  0  0  0  0  0  0  0  0  0
    1.9670  -20.2141   25.9661 C   0  0  0  0  0  0  0  0  0  0  0  0
    3.2886  -19.9936   25.5302 C   0  0  0  0  0  0  0  0  0  0  0  0
    4.1835  -19.2848   26.2371 N   0  0  0  0  0  0  0  0  0  0  0  0
    1.2850  -19.8090   27.0989 N   0  0  0  0  0  0  0  0  0  0  0  0
    0.0890  -20.3124   26.9437 C   0  0  0  0  0  0  0  0  0  0  0  0
   -0.0563  -21.0335   25.7884 N   0  0  0  0  0  0  0  0  0  0  0  0
  1  2  2  0  0  0  0
  1  6  1  0  0  0  0
  2  3  1  0  0  0  0
  3  4  2  0  0  0  0
  4  5  1  0  0  0  0
  4 10  1  0  0  0  0
  5  6  2  0  0  0  0
  5  8  1  0  0  0  0
  6  7  1  0  0  0  0
  8  9  1  0  0  0  0
  9 10  2  0  0  0  0
M  END
>  <CHROM.1>
1.99155108,-20.48895958,25.46818614,0.33615681,-0.29660542,-2.08810319

>  <Name>
ligand

>  <RI>
0

>  <Rbt.Current_Directory>
/home/itssahil/PROJECTS/Mol_Feturizer/New_Systems/rnas/4LW0

>  <Rbt.Executable>
rbdock ($Id: //depot/dev/client3/rdock/2013.1/src/exe/rbdock.cxx#4 $)

>  <Rbt.Library>
libRbt.so (2013.1, Build901 2013/11/27)

>  <Rbt.Parameter_File>
/export/apps/rDock/src/rDock_2013.1_src/data/scripts/dock_solv.prm

>  <Rbt.Receptor>
prm/pocket_docking_3.prm

>  <SCORE>
-12.5446

>  <SCORE.INTER>
-12.5446

>  <SCORE.INTER.CONST>
1

>  <SCORE.INTER.POLAR>
0

>  <SCORE.INTER.ROT>
0

>  <SCORE.INTER.SOLV>
3.90739

>  <SCORE.INTER.VDW>
-13.2655

>  <SCORE.INTER.norm>
-1.25446

>  <SCORE.INTRA>
0

>  <SCORE.INTRA.DIHEDRAL>
0

>  <SCORE.INTRA.DIHEDRAL.0>
0

>  <SCORE.INTRA.POLAR>
0

>  <SCORE.INTRA.POLAR.0>
0

>  <SCORE.INTRA.REPUL>
0

>  <SCORE.INTRA.REPUL.0>
0

>  <SCORE.INTRA.SOLV>
0

>  <SCORE.INTRA.SOLV.lig_0>
-23.9151

>  <SCORE.INTRA.VDW>
0

>  <SCORE.INTRA.VDW.0>
0

>  <SCORE.INTRA.norm>
0

>  <SCORE.RESTR>
0

>  <SCORE.RESTR.CAVITY>
0

>  <SCORE.RESTR.norm>
0

>  <SCORE.SYSTEM>
0

>  <SCORE.SYSTEM.CONST>
0

>  <SCORE.SYSTEM.DIHEDRAL>
0

>  <SCORE.SYSTEM.SOLV>
0

>  <SCORE.SYSTEM.norm>
0

>  <SCORE.heavy>
10

>  <SCORE.norm>
-1.25446

>  <RMSD>
2.403

$$$$
ligand
 OpenBabel11021811503D
libRbt.so/2013.1/901 2013/11/27
 10 11  0  0  0  0  0  0  0  0999 V2000
    3.6760  -20.4904   24.3523 N   0  0  0  0  0  0  0  0  0  0  0  0
    2.7777  -21.1634   23.6305 C   0  0  0  0  0  0  0  0  0  0  0  0
    1.4991  -21.4375   23.9178 N   0  0  0  0  0  0  0  0  0  0  0  0
    1.1708  -20.9412   25.1259 C   0  0  0  0  0  0  0  0  0  0  0  0
    1.9859  -20.2286   25.9847 C   0  0  0  0  0  0  0  0  0  0  0  0
    3.3097  -19.9969   25.5613 C   0  0  0  0  0  0  0  0  0  0  0  0
    4.2081  -19.3277   26.3015 N   0  0  0  0  0  0  0  0  0  0  0  0
    1.3048  -19.8723   27.1343 N   0  0  0  0  0  0  0  0  0  0  0  0
    0.1058  -20.3600   26.9542 C   0  0  0  0  0  0  0  0  0  0  0  0
   -0.0424  -21.0255   25.7664 N   0  0  0  0  0  0  0  0  0  0  0  0
  1  2  2  0  0  0  0
  1  6  1  0  0  0  0
  2  3  1  0  0  0  0
  3  4  2  0  0  0  0
  4  5  1  0  0  0  0
  4 10  1  0  0  0  0
  5  6  2  0  0  0  0
  5  8  1  0  0  0  0
  6  7  1  0  0  0  0
  8  9  1  0  0  0  0
  9 10  2  0  0  0  0
M  END
>  <CHROM.1>
2.00949605,-20.48021928,25.47453946,0.33807679,-0.29010728,-2.04095360

>  <Name>
ligand

>  <RI>
0

>  <Rbt.Current_Directory>
/home/itssahil/PROJECTS/Mol_Feturizer/New_Systems/rnas/4LW0

>  <Rbt.Executable>
rbdock ($Id: //depot/dev/client3/rdock/2013.1/src/exe/rbdock.cxx#4 $)

>  <Rbt.Library>
libRbt.so (2013.1, Build901 2013/11/27)

>  <Rbt.Parameter_File>
/export/apps/rDock/src/rDock_2013.1_src/data/scripts/dock_solv.prm

>  <Rbt.Receptor>
prm/pocket_docking_3.prm

>  <SCORE>
-12.5319

>  <SCORE.INTER>
-12.5319

>  <SCORE.INTER.CONST>
1

>  <SCORE.INTER.POLAR>
0

>  <SCORE.INTER.ROT>
0

>  <SCORE.INTER.SOLV>
3.88543

>  <SCORE.INTER.VDW>
-13.2497

>  <SCORE.INTER.norm>
-1.25319

>  <SCORE.INTRA>
0

>  <SCORE.INTRA.DIHEDRAL>
0

>  <SCORE.INTRA.DIHEDRAL.0>
0

>  <SCORE.INTRA.POLAR>
0

>  <SCORE.INTRA.POLAR.0>
0

>  <SCORE.INTRA.REPUL>
0

>  <SCORE.INTRA.REPUL.0>
0

>  <SCORE.INTRA.SOLV>
0

>  <SCORE.INTRA.SOLV.lig_0>
-23.9151

>  <SCORE.INTRA.VDW>
0

>  <SCORE.INTRA.VDW.0>
0

>  <SCORE.INTRA.norm>
0

>  <SCORE.RESTR>
0

>  <SCORE.RESTR.CAVITY>
0

>  <SCORE.RESTR.norm>
0

>  <SCORE.SYSTEM>
0

>  <SCORE.SYSTEM.CONST>
0

>  <SCORE.SYSTEM.DIHEDRAL>
0

>  <SCORE.SYSTEM.SOLV>
0

>  <SCORE.SYSTEM.norm>
0

>  <SCORE.heavy>
10

>  <SCORE.norm>
-1.25319

>  <RMSD>
2.403

$$$$
ligand
 OpenBabel11021811503D
libRbt.so/2013.1/901 2013/11/27
 10 11  0  0  0  0  0  0  0  0999 V2000
    3.6412  -20.5168   24.3260 N   0  0  0  0  0  0  0  0  0  0  0  0
    2.7464  -21.2195   23.6285 C   0  0  0  0  0  0  0  0  0  0  0  0
    1.4744  -21.5047   23.9336 N   0  0  0  0  0  0  0  0  0  0  0  0
    1.1494  -20.9844   25.1324 C   0  0  0  0  0  0  0  0  0  0  0  0
    1.9616  -20.2401   25.9668 C   0  0  0  0  0  0  0  0  0  0  0  0
    3.2782  -19.9998   25.5262 C   0  0  0  0  0  0  0  0  0  0  0  0
    4.1732  -19.3005   26.2423 N   0  0  0  0  0  0  0  0  0  0  0  0
    1.2853  -19.8661   27.1137 N   0  0  0  0  0  0  0  0  0  0  0  0
    0.0920  -20.3749   26.9560 C   0  0  0  0  0  0  0  0  0  0  0  0
   -0.0568  -21.0706   25.7856 N   0  0  0  0  0  0  0  0  0  0  0  0
  1  2  2  0  0  0  0
  1  6  1  0  0  0  0
  2  3  1  0  0  0  0
  3  4  2  0  0  0  0
  4  5  1  0  0  0  0
  4 10  1  0  0  0  0
  5  6  2  0  0  0  0
  5  8  1  0  0  0  0
  6  7  1  0  0  0  0
  8  9  1  0  0  0  0
  9 10  2  0  0  0  0
M  END
>  <CHROM.1>
1.98437717,-20.50344983,25.46256451,0.33930602,-0.30681611,-2.06437782

>  <Name>
ligand

>  <RI>
0

>  <Rbt.Current_Directory>
/home/itssahil/PROJECTS/Mol_Feturizer/New_Systems/rnas/4LW0

>  <Rbt.Executable>
rbdock ($Id: //depot/dev/client3/rdock/2013.1/src/exe/rbdock.cxx#4 $)

>  <Rbt.Library>
libRbt.so (2013.1, Build901 2013/11/27)

>  <Rbt.Parameter_File>
/export/apps/rDock/src/rDock_2013.1_src/data/scripts/dock_solv.prm

>  <Rbt.Receptor>
prm/pocket_docking_3.prm

>  <SCORE>
-12.5329

>  <SCORE.INTER>
-12.5329

>  <SCORE.INTER.CONST>
1

>  <SCORE.INTER.POLAR>
0

>  <SCORE.INTER.ROT>
0

>  <SCORE.INTER.SOLV>
3.89186

>  <SCORE.INTER.VDW>
-13.2525

>  <SCORE.INTER.norm>
-1.25329

>  <SCORE.INTRA>
0

>  <SCORE.INTRA.DIHEDRAL>
0

>  <SCORE.INTRA.DIHEDRAL.0>
0

>  <SCORE.INTRA.POLAR>
0

>  <SCORE.INTRA.POLAR.0>
0

>  <SCORE.INTRA.REPUL>
0

>  <SCORE.INTRA.REPUL.0>
0

>  <SCORE.INTRA.SOLV>
0

>  <SCORE.INTRA.SOLV.lig_0>
-23.9151

>  <SCORE.INTRA.VDW>
0

>  <SCORE.INTRA.VDW.0>
0

>  <SCORE.INTRA.norm>
0

>  <SCORE.RESTR>
0

>  <SCORE.RESTR.CAVITY>
0

>  <SCORE.RESTR.norm>
0

>  <SCORE.SYSTEM>
0

>  <SCORE.SYSTEM.CONST>
0

>  <SCORE.SYSTEM.DIHEDRAL>
0

>  <SCORE.SYSTEM.SOLV>
0

>  <SCORE.SYSTEM.norm>
0

>  <SCORE.heavy>
10

>  <SCORE.norm>
-1.25329

>  <RMSD>
2.403

$$$$
ligand
 OpenBabel11021811503D
libRbt.so/2013.1/901 2013/11/27
 10 11  0  0  0  0  0  0  0  0999 V2000
    3.6520  -20.5288   24.3253 N   0  0  0  0  0  0  0  0  0  0  0  0
    2.7552  -21.2348   23.6337 C   0  0  0  0  0  0  0  0  0  0  0  0
    1.4816  -21.5114   23.9398 N   0  0  0  0  0  0  0  0  0  0  0  0
    1.1570  -20.9773   25.1327 C   0  0  0  0  0  0  0  0  0  0  0  0
    1.9712  -20.2279   25.9605 C   0  0  0  0  0  0  0  0  0  0  0  0
    3.2894  -19.9978   25.5194 C   0  0  0  0  0  0  0  0  0  0  0  0
    4.1864  -19.2949   26.2295 N   0  0  0  0  0  0  0  0  0  0  0  0
    1.2949  -19.8391   27.1024 N   0  0  0  0  0  0  0  0  0  0  0  0
    0.0996  -20.3444   26.9482 C   0  0  0  0  0  0  0  0  0  0  0  0
   -0.0505  -21.0516   25.7849 N   0  0  0  0  0  0  0  0  0  0  0  0
  1  2  2  0  0  0  0
  1  6  1  0  0  0  0
  2  3  1  0  0  0  0
  3  4  2  0  0  0  0
  4  5  1  0  0  0  0
  4 10  1  0  0  0  0
  5  6  2  0  0  0  0
  5  8  1  0  0  0  0
  6  7  1  0  0  0  0
  8  9  1  0  0  0  0
  9 10  2  0  0  0  0
M  END
>  <CHROM.1>
1.99359594,-20.49653481,25.45906427,0.34007667,-0.30235309,-2.07455081

>  <Name>
ligand

>  <RI>
0

>  <Rbt.Current_Directory>
/home/itssahil/PROJECTS/Mol_Feturizer/New_Systems/rnas/4LW0

>  <Rbt.Executable>
rbdock ($Id: //depot/dev/client3/rdock/2013.1/src/exe/rbdock.cxx#4 $)

>  <Rbt.Library>
libRbt.so (2013.1, Build901 2013/11/27)

>  <Rbt.Parameter_File>
/export/apps/rDock/src/rDock_2013.1_src/data/scripts/dock_solv.prm

>  <Rbt.Receptor>
prm/pocket_docking_4.prm

>  <SCORE>
-12.5254

>  <SCORE.INTER>
-12.5254

>  <SCORE.INTER.CONST>
1

>  <SCORE.INTER.POLAR>
0

>  <SCORE.INTER.ROT>
0

>  <SCORE.INTER.SOLV>
3.85261

>  <SCORE.INTER.VDW>
-13.2345

>  <SCORE.INTER.norm>
-1.25254

>  <SCORE.INTRA>
0

>  <SCORE.INTRA.DIHEDRAL>
0

>  <SCORE.INTRA.DIHEDRAL.0>
0

>  <SCORE.INTRA.POLAR>
0

>  <SCORE.INTRA.POLAR.0>
0

>  <SCORE.INTRA.REPUL>
0

>  <SCORE.INTRA.REPUL.0>
0

>  <SCORE.INTRA.SOLV>
0

>  <SCORE.INTRA.SOLV.lig_0>
-23.9151

>  <SCORE.INTRA.VDW>
0

>  <SCORE.INTRA.VDW.0>
0

>  <SCORE.INTRA.norm>
0

>  <SCORE.RESTR>
0

>  <SCORE.RESTR.CAVITY>
0

>  <SCORE.RESTR.norm>
0

>  <SCORE.SYSTEM>
0

>  <SCORE.SYSTEM.CONST>
0

>  <SCORE.SYSTEM.DIHEDRAL>
0

>  <SCORE.SYSTEM.SOLV>
0

>  <SCORE.SYSTEM.norm>
0

>  <SCORE.heavy>
10

>  <SCORE.norm>
-1.25254

>  <RMSD>
2.403

$$$$
ligand
 OpenBabel11021811503D
libRbt.so/2013.1/901 2013/11/27
 10 11  0  0  0  0  0  0  0  0999 V2000
    3.7289  -20.6014   24.3445 N   0  0  0  0  0  0  0  0  0  0  0  0
    2.8052  -21.2189   23.6052 C   0  0  0  0  0  0  0  0  0  0  0  0
    1.5152  -21.4449   23.8830 N   0  0  0  0  0  0  0  0  0  0  0  0
    1.2041  -20.9628   25.1013 C   0  0  0  0  0  0  0  0  0  0  0  0
    2.0458  -20.3054   25.9783 C   0  0  0  0  0  0  0  0  0  0  0  0
    3.3797  -20.1204   25.5635 C   0  0  0  0  0  0  0  0  0  0  0  0
    4.3032  -19.5072   26.3211 N   0  0  0  0  0  0  0  0  0  0  0  0
    1.3765  -19.9467   27.1341 N   0  0  0  0  0  0  0  0  0  0  0  0
    0.1585  -20.3787   26.9400 C   0  0  0  0  0  0  0  0  0  0  0  0
   -0.0137  -21.0101   25.7368 N   0  0  0  0  0  0  0  0  0  0  0  0
  1  2  2  0  0  0  0
  1  6  1  0  0  0  0
  2  3  1  0  0  0  0
  3  4  2  0  0  0  0
  4  5  1  0  0  0  0
  4 10  1  0  0  0  0
  5  6  2  0  0  0  0
  5  8  1  0  0  0  0
  6  7  1  0  0  0  0
  8  9  1  0  0  0  0
  9 10  2  0  0  0  0
M  END
>  <CHROM.1>
2.06044894,-20.54598487,25.46253918,0.35479487,-0.25067370,-2.01357079

>  <Name>
ligand

>  <RI>
0

>  <Rbt.Current_Directory>
/home/itssahil/PROJECTS/Mol_Feturizer/New_Systems/rnas/4LW0

>  <Rbt.Executable>
rbdock ($Id: //depot/dev/client3/rdock/2013.1/src/exe/rbdock.cxx#4 $)

>  <Rbt.Library>
libRbt.so (2013.1, Build901 2013/11/27)

>  <Rbt.Parameter_File>
/export/apps/rDock/src/rDock_2013.1_src/data/scripts/dock_solv.prm

>  <Rbt.Receptor>
prm/pocket_docking_4.prm

>  <SCORE>
-12.4522

>  <SCORE.INTER>
-12.4522

>  <SCORE.INTER.CONST>
1

>  <SCORE.INTER.POLAR>
0

>  <SCORE.INTER.ROT>
0

>  <SCORE.INTER.SOLV>
3.25663

>  <SCORE.INTER.VDW>
-12.987

>  <SCORE.INTER.norm>
-1.24522

>  <SCORE.INTRA>
0

>  <SCORE.INTRA.DIHEDRAL>
0

>  <SCORE.INTRA.DIHEDRAL.0>
0

>  <SCORE.INTRA.POLAR>
0

>  <SCORE.INTRA.POLAR.0>
0

>  <SCORE.INTRA.REPUL>
0

>  <SCORE.INTRA.REPUL.0>
0

>  <SCORE.INTRA.SOLV>
0

>  <SCORE.INTRA.SOLV.lig_0>
-23.9151

>  <SCORE.INTRA.VDW>
0

>  <SCORE.INTRA.VDW.0>
0

>  <SCORE.INTRA.norm>
0

>  <SCORE.RESTR>
0

>  <SCORE.RESTR.CAVITY>
0

>  <SCORE.RESTR.norm>
0

>  <SCORE.SYSTEM>
0

>  <SCORE.SYSTEM.CONST>
0

>  <SCORE.SYSTEM.DIHEDRAL>
0

>  <SCORE.SYSTEM.SOLV>
0

>  <SCORE.SYSTEM.norm>
0

>  <SCORE.heavy>
10

>  <SCORE.norm>
-1.24522

>  <RMSD>
2.403

$$$$
ligand
 OpenBabel11021811503D
libRbt.so/2013.1/901 2013/11/27
 10 11  0  0  0  0  0  0  0  0999 V2000
    3.6725  -20.5965   24.3759 N   0  0  0  0  0  0  0  0  0  0  0  0
    2.7718  -21.2776   23.6646 C   0  0  0  0  0  0  0  0  0  0  0  0
    1.4868  -21.5255   23.9467 N   0  0  0  0  0  0  0  0  0  0  0  0
    1.1537  -20.9901   25.1366 C   0  0  0  0  0  0  0  0  0  0  0  0
    1.9705  -20.2645   25.9829 C   0  0  0  0  0  0  0  0  0  0  0  0
    3.3014  -20.0633   25.5664 C   0  0  0  0  0  0  0  0  0  0  0  0
    4.2020  -19.3856   26.2962 N   0  0  0  0  0  0  0  0  0  0  0  0
    1.2833  -19.8657   27.1148 N   0  0  0  0  0  0  0  0  0  0  0  0
    0.0794  -20.3418   26.9367 C   0  0  0  0  0  0  0  0  0  0  0  0
   -0.0666  -21.0392   25.7670 N   0  0  0  0  0  0  0  0  0  0  0  0
  1  2  2  0  0  0  0
  1  6  1  0  0  0  0
  2  3  1  0  0  0  0
  3  4  2  0  0  0  0
  4  5  1  0  0  0  0
  4 10  1  0  0  0  0
  5  6  2  0  0  0  0
  5  8  1  0  0  0  0
  6  7  1  0  0  0  0
  8  9  1  0  0  0  0
  9 10  2  0  0  0  0
M  END
>  <CHROM.1>
1.99547006,-20.53094440,25.48042100,0.33571575,-0.27312058,-2.07037630

>  <Name>
ligand

>  <RI>
0

>  <Rbt.Current_Directory>
/home/itssahil/PROJECTS/Mol_Feturizer/New_Systems/rnas/4LW0

>  <Rbt.Executable>
rbdock ($Id: //depot/dev/client3/rdock/2013.1/src/exe/rbdock.cxx#4 $)

>  <Rbt.Library>
libRbt.so (2013.1, Build901 2013/11/27)

>  <Rbt.Parameter_File>
/export/apps/rDock/src/rDock_2013.1_src/data/scripts/dock_solv.prm

>  <Rbt.Receptor>
prm/pocket_docking_4.prm

>  <SCORE>
-12.5035

>  <SCORE.INTER>
-12.5035

>  <SCORE.INTER.CONST>
1

>  <SCORE.INTER.POLAR>
0

>  <SCORE.INTER.ROT>
0

>  <SCORE.INTER.SOLV>
3.67826

>  <SCORE.INTER.VDW>
-13.1618

>  <SCORE.INTER.norm>
-1.25035

>  <SCORE.INTRA>
0

>  <SCORE.INTRA.DIHEDRAL>
0

>  <SCORE.INTRA.DIHEDRAL.0>
0

>  <SCORE.INTRA.POLAR>
0

>  <SCORE.INTRA.POLAR.0>
0

>  <SCORE.INTRA.REPUL>
0

>  <SCORE.INTRA.REPUL.0>
0

>  <SCORE.INTRA.SOLV>
0

>  <SCORE.INTRA.SOLV.lig_0>
-23.9151

>  <SCORE.INTRA.VDW>
0

>  <SCORE.INTRA.VDW.0>
0

>  <SCORE.INTRA.norm>
0

>  <SCORE.RESTR>
0

>  <SCORE.RESTR.CAVITY>
0

>  <SCORE.RESTR.norm>
0

>  <SCORE.SYSTEM>
0

>  <SCORE.SYSTEM.CONST>
0

>  <SCORE.SYSTEM.DIHEDRAL>
0

>  <SCORE.SYSTEM.SOLV>
0

>  <SCORE.SYSTEM.norm>
0

>  <SCORE.heavy>
10

>  <SCORE.norm>
-1.25035

>  <RMSD>
2.403

$$$$
ligand
 OpenBabel11021811503D
libRbt.so/2013.1/901 2013/11/27
 10 11  0  0  0  0  0  0  0  0999 V2000
    3.6784  -20.4948   24.3553 N   0  0  0  0  0  0  0  0  0  0  0  0
    2.7816  -21.1704   23.6340 C   0  0  0  0  0  0  0  0  0  0  0  0
    1.5029  -21.4448   23.9203 N   0  0  0  0  0  0  0  0  0  0  0  0
    1.1726  -20.9457   25.1268 C   0  0  0  0  0  0  0  0  0  0  0  0
    1.9860  -20.2304   25.9849 C   0  0  0  0  0  0  0  0  0  0  0  0
    3.3101  -19.9986   25.5625 C   0  0  0  0  0  0  0  0  0  0  0  0
    4.2071  -19.3268   26.3023 N   0  0  0  0  0  0  0  0  0  0  0  0
    1.3032  -19.8718   27.1327 N   0  0  0  0  0  0  0  0  0  0  0  0
    0.1048  -20.3609   26.9524 C   0  0  0  0  0  0  0  0  0  0  0  0
   -0.0413  -21.0295   25.7660 N   0  0  0  0  0  0  0  0  0  0  0  0
  1  2  2  0  0  0  0
  1  6  1  0  0  0  0
  2  3  1  0  0  0  0
  3  4  2  0  0  0  0
  4  5  1  0  0  0  0
  4 10  1  0  0  0  0
  5  6  2  0  0  0  0
  5  8  1  0  0  0  0
  6  7  1  0  0  0  0
  8  9  1  0  0  0  0
  9 10  2  0  0  0  0
M  END
>  <CHROM.1>
2.01046207,-20.48325458,25.47537948,0.33651055,-0.29027582,-2.04388479

>  <Name>
ligand

>  <RI>
0

>  <Rbt.Current_Directory>
/home/itssahil/PROJECTS/Mol_Feturizer/New_Systems/rnas/4LW0

>  <Rbt.Executable>
rbdock ($Id: //depot/dev/client3/rdock/2013.1/src/exe/rbdock.cxx#4 $)

>  <Rbt.Library>
libRbt.so (2013.1, Build901 2013/11/27)

>  <Rbt.Parameter_File>
/export/apps/rDock/src/rDock_2013.1_src/data/scripts/dock_solv.prm

>  <Rbt.Receptor>
prm/pocket_docking_5.prm

>  <SCORE>
-12.5322

>  <SCORE.INTER>
-12.5322

>  <SCORE.INTER.CONST>
1

>  <SCORE.INTER.POLAR>
0

>  <SCORE.INTER.ROT>
0

>  <SCORE.INTER.SOLV>
3.88546

>  <SCORE.INTER.VDW>
-13.2499

>  <SCORE.INTER.norm>
-1.25322

>  <SCORE.INTRA>
0

>  <SCORE.INTRA.DIHEDRAL>
0

>  <SCORE.INTRA.DIHEDRAL.0>
0

>  <SCORE.INTRA.POLAR>
0

>  <SCORE.INTRA.POLAR.0>
0

>  <SCORE.INTRA.REPUL>
0

>  <SCORE.INTRA.REPUL.0>
0

>  <SCORE.INTRA.SOLV>
0

>  <SCORE.INTRA.SOLV.lig_0>
-23.9151

>  <SCORE.INTRA.VDW>
0

>  <SCORE.INTRA.VDW.0>
0

>  <SCORE.INTRA.norm>
0

>  <SCORE.RESTR>
0

>  <SCORE.RESTR.CAVITY>
0

>  <SCORE.RESTR.norm>
0

>  <SCORE.SYSTEM>
0

>  <SCORE.SYSTEM.CONST>
0

>  <SCORE.SYSTEM.DIHEDRAL>
0

>  <SCORE.SYSTEM.SOLV>
0

>  <SCORE.SYSTEM.norm>
0

>  <SCORE.heavy>
10

>  <SCORE.norm>
-1.25322

>  <RMSD>
2.403

$$$$
ligand
 OpenBabel11021811503D
libRbt.so/2013.1/901 2013/11/27
 10 11  0  0  0  0  0  0  0  0999 V2000
    3.6416  -20.5095   24.3000 N   0  0  0  0  0  0  0  0  0  0  0  0
    2.7443  -21.2148   23.6084 C   0  0  0  0  0  0  0  0  0  0  0  0
    1.4765  -21.5072   23.9239 N   0  0  0  0  0  0  0  0  0  0  0  0
    1.1594  -20.9919   25.1270 C   0  0  0  0  0  0  0  0  0  0  0  0
    1.9752  -20.2459   25.9563 C   0  0  0  0  0  0  0  0  0  0  0  0
    3.2866  -19.9977   25.5047 C   0  0  0  0  0  0  0  0  0  0  0  0
    4.1845  -19.2959   26.2149 N   0  0  0  0  0  0  0  0  0  0  0  0
    1.3073  -19.8784   27.1101 N   0  0  0  0  0  0  0  0  0  0  0  0
    0.1151  -20.3927   26.9615 C   0  0  0  0  0  0  0  0  0  0  0  0
   -0.0406  -21.0860   25.7905 N   0  0  0  0  0  0  0  0  0  0  0  0
  1  2  2  0  0  0  0
  1  6  1  0  0  0  0
  2  3  1  0  0  0  0
  3  4  2  0  0  0  0
  4  5  1  0  0  0  0
  4 10  1  0  0  0  0
  5  6  2  0  0  0  0
  5  8  1  0  0  0  0
  6  7  1  0  0  0  0
  8  9  1  0  0  0  0
  9 10  2  0  0  0  0
M  END
>  <CHROM.1>
1.99487666,-20.50765522,25.45111250,0.34498597,-0.31539493,-2.05987273

>  <Name>
ligand

>  <RI>
0

>  <Rbt.Current_Directory>
/home/itssahil/PROJECTS/Mol_Feturizer/New_Systems/rnas/4LW0

>  <Rbt.Executable>
rbdock ($Id: //depot/dev/client3/rdock/2013.1/src/exe/rbdock.cxx#4 $)

>  <Rbt.Library>
libRbt.so (2013.1, Build901 2013/11/27)

>  <Rbt.Parameter_File>
/export/apps/rDock/src/rDock_2013.1_src/data/scripts/dock_solv.prm

>  <Rbt.Receptor>
prm/pocket_docking_6.prm

>  <SCORE>
-12.5244

>  <SCORE.INTER>
-12.5244

>  <SCORE.INTER.CONST>
1

>  <SCORE.INTER.POLAR>
0

>  <SCORE.INTER.ROT>
0

>  <SCORE.INTER.SOLV>
3.81316

>  <SCORE.INTER.VDW>
-13.2207

>  <SCORE.INTER.norm>
-1.25244

>  <SCORE.INTRA>
0

>  <SCORE.INTRA.DIHEDRAL>
0

>  <SCORE.INTRA.DIHEDRAL.0>
0

>  <SCORE.INTRA.POLAR>
0

>  <SCORE.INTRA.POLAR.0>
0

>  <SCORE.INTRA.REPUL>
0

>  <SCORE.INTRA.REPUL.0>
0

>  <SCORE.INTRA.SOLV>
0

>  <SCORE.INTRA.SOLV.lig_0>
-23.9151

>  <SCORE.INTRA.VDW>
0

>  <SCORE.INTRA.VDW.0>
0

>  <SCORE.INTRA.norm>
0

>  <SCORE.RESTR>
0

>  <SCORE.RESTR.CAVITY>
0

>  <SCORE.RESTR.norm>
0

>  <SCORE.SYSTEM>
0

>  <SCORE.SYSTEM.CONST>
0

>  <SCORE.SYSTEM.DIHEDRAL>
0

>  <SCORE.SYSTEM.SOLV>
0

>  <SCORE.SYSTEM.norm>
0

>  <SCORE.heavy>
10

>  <SCORE.norm>
-1.25244

>  <RMSD>
2.403

$$$$
ligand
 OpenBabel11021811503D
libRbt.so/2013.1/901 2013/11/27
 10 11  0  0  0  0  0  0  0  0999 V2000
    3.6639  -20.5192   24.3385 N   0  0  0  0  0  0  0  0  0  0  0  0
    2.7727  -21.2300   23.6445 C   0  0  0  0  0  0  0  0  0  0  0  0
    1.4973  -21.5066   23.9433 N   0  0  0  0  0  0  0  0  0  0  0  0
    1.1639  -20.9665   25.1311 C   0  0  0  0  0  0  0  0  0  0  0  0
    1.9714  -20.2118   25.9605 C   0  0  0  0  0  0  0  0  0  0  0  0
    3.2924  -19.9824   25.5273 C   0  0  0  0  0  0  0  0  0  0  0  0
    4.1837  -19.2747   26.2399 N   0  0  0  0  0  0  0  0  0  0  0  0
    1.2868  -19.8178   27.0956 N   0  0  0  0  0  0  0  0  0  0  0  0
    0.0932  -20.3253   26.9358 C   0  0  0  0  0  0  0  0  0  0  0  0
   -0.0480  -21.0388   25.7753 N   0  0  0  0  0  0  0  0  0  0  0  0
  1  2  2  0  0  0  0
  1  6  1  0  0  0  0
  2  3  1  0  0  0  0
  3  4  2  0  0  0  0
  4  5  1  0  0  0  0
  4 10  1  0  0  0  0
  5  6  2  0  0  0  0
  5  8  1  0  0  0  0
  6  7  1  0  0  0  0
  8  9  1  0  0  0  0
  9 10  2  0  0  0  0
M  END
>  <CHROM.1>
1.99763975,-20.48303038,25.46065317,0.33315574,-0.30004255,-2.08188487

>  <Name>
ligand

>  <RI>
0

>  <Rbt.Current_Directory>
/home/itssahil/PROJECTS/Mol_Feturizer/New_Systems/rnas/4LW0

>  <Rbt.Executable>
rbdock ($Id: //depot/dev/client3/rdock/2013.1/src/exe/rbdock.cxx#4 $)

>  <Rbt.Library>
libRbt.so (2013.1, Build901 2013/11/27)

>  <Rbt.Parameter_File>
/export/apps/rDock/src/rDock_2013.1_src/data/scripts/dock_solv.prm

>  <Rbt.Receptor>
prm/pocket_docking_6.prm

>  <SCORE>
-12.5115

>  <SCORE.INTER>
-12.5115

>  <SCORE.INTER.CONST>
1

>  <SCORE.INTER.POLAR>
0

>  <SCORE.INTER.ROT>
0

>  <SCORE.INTER.SOLV>
3.94614

>  <SCORE.INTER.VDW>
-13.2564

>  <SCORE.INTER.norm>
-1.25115

>  <SCORE.INTRA>
0

>  <SCORE.INTRA.DIHEDRAL>
0

>  <SCORE.INTRA.DIHEDRAL.0>
0

>  <SCORE.INTRA.POLAR>
0

>  <SCORE.INTRA.POLAR.0>
0

>  <SCORE.INTRA.REPUL>
0

>  <SCORE.INTRA.REPUL.0>
0

>  <SCORE.INTRA.SOLV>
0

>  <SCORE.INTRA.SOLV.lig_0>
-23.9151

>  <SCORE.INTRA.VDW>
0

>  <SCORE.INTRA.VDW.0>
0

>  <SCORE.INTRA.norm>
0

>  <SCORE.RESTR>
0

>  <SCORE.RESTR.CAVITY>
0

>  <SCORE.RESTR.norm>
0

>  <SCORE.SYSTEM>
0

>  <SCORE.SYSTEM.CONST>
0

>  <SCORE.SYSTEM.DIHEDRAL>
0

>  <SCORE.SYSTEM.SOLV>
0

>  <SCORE.SYSTEM.norm>
0

>  <SCORE.heavy>
10

>  <SCORE.norm>
-1.25115

>  <RMSD>
2.403

$$$$
ligand
 OpenBabel11021811503D
libRbt.so/2013.1/901 2013/11/27
 10 11  0  0  0  0  0  0  0  0999 V2000
    3.6488  -20.5236   24.3394 N   0  0  0  0  0  0  0  0  0  0  0  0
    2.7533  -21.2319   23.6485 C   0  0  0  0  0  0  0  0  0  0  0  0
    1.4785  -21.5057   23.9521 N   0  0  0  0  0  0  0  0  0  0  0  0
    1.1509  -20.9656   25.1415 C   0  0  0  0  0  0  0  0  0  0  0  0
    1.9634  -20.2131   25.9682 C   0  0  0  0  0  0  0  0  0  0  0  0
    3.2832  -19.9865   25.5299 C   0  0  0  0  0  0  0  0  0  0  0  0
    4.1789  -19.2812   26.2394 N   0  0  0  0  0  0  0  0  0  0  0  0
    1.2841  -19.8181   27.1062 N   0  0  0  0  0  0  0  0  0  0  0  0
    0.0887  -20.3229   26.9508 C   0  0  0  0  0  0  0  0  0  0  0  0
   -0.0587  -21.0354   25.7904 N   0  0  0  0  0  0  0  0  0  0  0  0
  1  2  2  0  0  0  0
  1  6  1  0  0  0  0
  2  3  1  0  0  0  0
  3  4  2  0  0  0  0
  4  5  1  0  0  0  0
  4 10  1  0  0  0  0
  5  6  2  0  0  0  0
  5  8  1  0  0  0  0
  6  7  1  0  0  0  0
  8  9  1  0  0  0  0
  9 10  2  0  0  0  0
M  END
>  <CHROM.1>
1.98702692,-20.48413578,25.46808935,0.33788262,-0.29994488,-2.07995999

>  <Name>
ligand

>  <RI>
0

>  <Rbt.Current_Directory>
/home/itssahil/PROJECTS/Mol_Feturizer/New_Systems/rnas/4LW0

>  <Rbt.Executable>
rbdock ($Id: //depot/dev/client3/rdock/2013.1/src/exe/rbdock.cxx#4 $)

>  <Rbt.Library>
libRbt.so (2013.1, Build901 2013/11/27)

>  <Rbt.Parameter_File>
/export/apps/rDock/src/rDock_2013.1_src/data/scripts/dock_solv.prm

>  <Rbt.Receptor>
prm/pocket_docking_6.prm

>  <SCORE>
-12.5373

>  <SCORE.INTER>
-12.5373

>  <SCORE.INTER.CONST>
1

>  <SCORE.INTER.POLAR>
0

>  <SCORE.INTER.ROT>
0

>  <SCORE.INTER.SOLV>
3.94316

>  <SCORE.INTER.VDW>
-13.2726

>  <SCORE.INTER.norm>
-1.25373

>  <SCORE.INTRA>
0

>  <SCORE.INTRA.DIHEDRAL>
0

>  <SCORE.INTRA.DIHEDRAL.0>
0

>  <SCORE.INTRA.POLAR>
0

>  <SCORE.INTRA.POLAR.0>
0

>  <SCORE.INTRA.REPUL>
0

>  <SCORE.INTRA.REPUL.0>
0

>  <SCORE.INTRA.SOLV>
0

>  <SCORE.INTRA.SOLV.lig_0>
-23.9151

>  <SCORE.INTRA.VDW>
0

>  <SCORE.INTRA.VDW.0>
0

>  <SCORE.INTRA.norm>
0

>  <SCORE.RESTR>
0

>  <SCORE.RESTR.CAVITY>
0

>  <SCORE.RESTR.norm>
0

>  <SCORE.SYSTEM>
0

>  <SCORE.SYSTEM.CONST>
0

>  <SCORE.SYSTEM.DIHEDRAL>
0

>  <SCORE.SYSTEM.SOLV>
0

>  <SCORE.SYSTEM.norm>
0

>  <SCORE.heavy>
10

>  <SCORE.norm>
-1.25373

>  <RMSD>
2.403

$$$$
ligand
 OpenBabel11021811503D
libRbt.so/2013.1/901 2013/11/27
 10 11  0  0  0  0  0  0  0  0999 V2000
    3.6364  -20.5227   24.2834 N   0  0  0  0  0  0  0  0  0  0  0  0
    2.7420  -21.2571   23.6188 C   0  0  0  0  0  0  0  0  0  0  0  0
    1.4774  -21.5479   23.9483 N   0  0  0  0  0  0  0  0  0  0  0  0
    1.1604  -20.9948   25.1346 C   0  0  0  0  0  0  0  0  0  0  0  0
    1.9734  -20.2156   25.9356 C   0  0  0  0  0  0  0  0  0  0  0  0
    3.2816  -19.9733   25.4715 C   0  0  0  0  0  0  0  0  0  0  0  0
    4.1766  -19.2417   26.1547 N   0  0  0  0  0  0  0  0  0  0  0  0
    1.3065  -19.8145   27.0787 N   0  0  0  0  0  0  0  0  0  0  0  0
    0.1176  -20.3420   26.9515 C   0  0  0  0  0  0  0  0  0  0  0  0
   -0.0367  -21.0752   25.8050 N   0  0  0  0  0  0  0  0  0  0  0  0
  1  2  2  0  0  0  0
  1  6  1  0  0  0  0
  2  3  1  0  0  0  0
  3  4  2  0  0  0  0
  4  5  1  0  0  0  0
  4 10  1  0  0  0  0
  5  6  2  0  0  0  0
  5  8  1  0  0  0  0
  6  7  1  0  0  0  0
  8  9  1  0  0  0  0
  9 10  2  0  0  0  0
M  END
>  <CHROM.1>
1.99336833,-20.49402444,25.43943710,0.34436139,-0.32330495,-2.09356709

>  <Name>
ligand

>  <RI>
0

>  <Rbt.Current_Directory>
/home/itssahil/PROJECTS/Mol_Feturizer/New_Systems/rnas/4LW0

>  <Rbt.Executable>
rbdock ($Id: //depot/dev/client3/rdock/2013.1/src/exe/rbdock.cxx#4 $)

>  <Rbt.Library>
libRbt.so (2013.1, Build901 2013/11/27)

>  <Rbt.Parameter_File>
/export/apps/rDock/src/rDock_2013.1_src/data/scripts/dock_solv.prm

>  <Rbt.Receptor>
prm/pocket_docking_7.prm

>  <SCORE>
-12.5115

>  <SCORE.INTER>
-12.5115

>  <SCORE.INTER.CONST>
1

>  <SCORE.INTER.POLAR>
0

>  <SCORE.INTER.ROT>
0

>  <SCORE.INTER.SOLV>
3.85411

>  <SCORE.INTER.VDW>
-13.2257

>  <SCORE.INTER.norm>
-1.25115

>  <SCORE.INTRA>
0

>  <SCORE.INTRA.DIHEDRAL>
0

>  <SCORE.INTRA.DIHEDRAL.0>
0

>  <SCORE.INTRA.POLAR>
0

>  <SCORE.INTRA.POLAR.0>
0

>  <SCORE.INTRA.REPUL>
0

>  <SCORE.INTRA.REPUL.0>
0

>  <SCORE.INTRA.SOLV>
0

>  <SCORE.INTRA.SOLV.lig_0>
-23.9151

>  <SCORE.INTRA.VDW>
0

>  <SCORE.INTRA.VDW.0>
0

>  <SCORE.INTRA.norm>
0

>  <SCORE.RESTR>
0

>  <SCORE.RESTR.CAVITY>
0

>  <SCORE.RESTR.norm>
0

>  <SCORE.SYSTEM>
0

>  <SCORE.SYSTEM.CONST>
0

>  <SCORE.SYSTEM.DIHEDRAL>
0

>  <SCORE.SYSTEM.SOLV>
0

>  <SCORE.SYSTEM.norm>
0

>  <SCORE.heavy>
10

>  <SCORE.norm>
-1.25115

>  <RMSD>
2.403

$$$$
ligand
 OpenBabel11021811503D
libRbt.so/2013.1/901 2013/11/27
 10 11  0  0  0  0  0  0  0  0999 V2000
    3.6393  -20.5148   24.3386 N   0  0  0  0  0  0  0  0  0  0  0  0
    2.7503  -21.2237   23.6398 C   0  0  0  0  0  0  0  0  0  0  0  0
    1.4781  -21.5126   23.9404 N   0  0  0  0  0  0  0  0  0  0  0  0
    1.1458  -20.9889   25.1358 C   0  0  0  0  0  0  0  0  0  0  0  0
    1.9514  -20.2383   25.9708 C   0  0  0  0  0  0  0  0  0  0  0  0
    3.2690  -19.9946   25.5350 C   0  0  0  0  0  0  0  0  0  0  0  0
    4.1582  -19.2892   26.2524 N   0  0  0  0  0  0  0  0  0  0  0  0
    1.2687  -19.8625   27.1132 N   0  0  0  0  0  0  0  0  0  0  0  0
    0.0780  -20.3765   26.9522 C   0  0  0  0  0  0  0  0  0  0  0  0
   -0.0630  -21.0773   25.7840 N   0  0  0  0  0  0  0  0  0  0  0  0
  1  2  2  0  0  0  0
  1  6  1  0  0  0  0
  2  3  1  0  0  0  0
  3  4  2  0  0  0  0
  4  5  1  0  0  0  0
  4 10  1  0  0  0  0
  5  6  2  0  0  0  0
  5  8  1  0  0  0  0
  6  7  1  0  0  0  0
  8  9  1  0  0  0  0
  9 10  2  0  0  0  0
M  END
>  <CHROM.1>
1.97748164,-20.50350145,25.46770615,0.33331386,-0.30808958,-2.07006153

>  <Name>
ligand

>  <RI>
0

>  <Rbt.Current_Directory>
/home/itssahil/PROJECTS/Mol_Feturizer/New_Systems/rnas/4LW0

>  <Rbt.Executable>
rbdock ($Id: //depot/dev/client3/rdock/2013.1/src/exe/rbdock.cxx#4 $)

>  <Rbt.Library>
libRbt.so (2013.1, Build901 2013/11/27)

>  <Rbt.Parameter_File>
/export/apps/rDock/src/rDock_2013.1_src/data/scripts/dock_solv.prm

>  <Rbt.Receptor>
prm/pocket_docking_7.prm

>  <SCORE>
-12.5293

>  <SCORE.INTER>
-12.5293

>  <SCORE.INTER.CONST>
1

>  <SCORE.INTER.POLAR>
0

>  <SCORE.INTER.ROT>
0

>  <SCORE.INTER.SOLV>
3.97632

>  <SCORE.INTER.VDW>
-13.2783

>  <SCORE.INTER.norm>
-1.25293

>  <SCORE.INTRA>
0

>  <SCORE.INTRA.DIHEDRAL>
0

>  <SCORE.INTRA.DIHEDRAL.0>
0

>  <SCORE.INTRA.POLAR>
0

>  <SCORE.INTRA.POLAR.0>
0

>  <SCORE.INTRA.REPUL>
0

>  <SCORE.INTRA.REPUL.0>
0

>  <SCORE.INTRA.SOLV>
0

>  <SCORE.INTRA.SOLV.lig_0>
-23.9151

>  <SCORE.INTRA.VDW>
0

>  <SCORE.INTRA.VDW.0>
0

>  <SCORE.INTRA.norm>
0

>  <SCORE.RESTR>
0

>  <SCORE.RESTR.CAVITY>
0

>  <SCORE.RESTR.norm>
0

>  <SCORE.SYSTEM>
0

>  <SCORE.SYSTEM.CONST>
0

>  <SCORE.SYSTEM.DIHEDRAL>
0

>  <SCORE.SYSTEM.SOLV>
0

>  <SCORE.SYSTEM.norm>
0

>  <SCORE.heavy>
10

>  <SCORE.norm>
-1.25293

>  <RMSD>
2.403

$$$$
ligand
 OpenBabel11021811503D
libRbt.so/2013.1/901 2013/11/27
 10 11  0  0  0  0  0  0  0  0999 V2000
    3.6878  -20.4849   24.3431 N   0  0  0  0  0  0  0  0  0  0  0  0
    2.7934  -21.1602   23.6185 C   0  0  0  0  0  0  0  0  0  0  0  0
    1.5148  -21.4378   23.9019 N   0  0  0  0  0  0  0  0  0  0  0  0
    1.1815  -20.9428   25.1091 C   0  0  0  0  0  0  0  0  0  0  0  0
    1.9921  -20.2283   25.9706 C   0  0  0  0  0  0  0  0  0  0  0  0
    3.3165  -19.9928   25.5511 C   0  0  0  0  0  0  0  0  0  0  0  0
    4.2109  -19.3214   26.2942 N   0  0  0  0  0  0  0  0  0  0  0  0
    1.3067  -19.8742   27.1182 N   0  0  0  0  0  0  0  0  0  0  0  0
    0.1095  -20.3650   26.9345 C   0  0  0  0  0  0  0  0  0  0  0  0
   -0.0333  -21.0306   25.7460 N   0  0  0  0  0  0  0  0  0  0  0  0
  1  2  2  0  0  0  0
  1  6  1  0  0  0  0
  2  3  1  0  0  0  0
  3  4  2  0  0  0  0
  4  5  1  0  0  0  0
  4 10  1  0  0  0  0
  5  6  2  0  0  0  0
  5  8  1  0  0  0  0
  6  7  1  0  0  0  0
  8  9  1  0  0  0  0
  9 10  2  0  0  0  0
M  END
>  <CHROM.1>
2.01790815,-20.47965732,25.46041728,0.33404224,-0.29120303,-2.04180731

>  <Name>
ligand

>  <RI>
0

>  <Rbt.Current_Directory>
/home/itssahil/PROJECTS/Mol_Feturizer/New_Systems/rnas/4LW0

>  <Rbt.Executable>
rbdock ($Id: //depot/dev/client3/rdock/2013.1/src/exe/rbdock.cxx#4 $)

>  <Rbt.Library>
libRbt.so (2013.1, Build901 2013/11/27)

>  <Rbt.Parameter_File>
/export/apps/rDock/src/rDock_2013.1_src/data/scripts/dock_solv.prm

>  <Rbt.Receptor>
prm/pocket_docking_7.prm

>  <SCORE>
-12.5092

>  <SCORE.INTER>
-12.5092

>  <SCORE.INTER.CONST>
1

>  <SCORE.INTER.POLAR>
0

>  <SCORE.INTER.ROT>
0

>  <SCORE.INTER.SOLV>
3.8746

>  <SCORE.INTER.VDW>
-13.231

>  <SCORE.INTER.norm>
-1.25092

>  <SCORE.INTRA>
0

>  <SCORE.INTRA.DIHEDRAL>
0

>  <SCORE.INTRA.DIHEDRAL.0>
0

>  <SCORE.INTRA.POLAR>
0

>  <SCORE.INTRA.POLAR.0>
0

>  <SCORE.INTRA.REPUL>
0

>  <SCORE.INTRA.REPUL.0>
0

>  <SCORE.INTRA.SOLV>
0

>  <SCORE.INTRA.SOLV.lig_0>
-23.9151

>  <SCORE.INTRA.VDW>
0

>  <SCORE.INTRA.VDW.0>
0

>  <SCORE.INTRA.norm>
0

>  <SCORE.RESTR>
0

>  <SCORE.RESTR.CAVITY>
0

>  <SCORE.RESTR.norm>
0

>  <SCORE.SYSTEM>
0

>  <SCORE.SYSTEM.CONST>
0

>  <SCORE.SYSTEM.DIHEDRAL>
0

>  <SCORE.SYSTEM.SOLV>
0

>  <SCORE.SYSTEM.norm>
0

>  <SCORE.heavy>
10

>  <SCORE.norm>
-1.25092

>  <RMSD>
2.403

$$$$
ligand
 OpenBabel11021811503D
libRbt.so/2013.1/901 2013/11/27
 10 11  0  0  0  0  0  0  0  0999 V2000
    3.6803  -20.4855   24.3555 N   0  0  0  0  0  0  0  0  0  0  0  0
    2.7805  -21.1550   23.6321 C   0  0  0  0  0  0  0  0  0  0  0  0
    1.5020  -21.4289   23.9198 N   0  0  0  0  0  0  0  0  0  0  0  0
    1.1754  -20.9368   25.1301 C   0  0  0  0  0  0  0  0  0  0  0  0
    1.9921  -20.2282   25.9906 C   0  0  0  0  0  0  0  0  0  0  0  0
    3.3157  -19.9961   25.5666 C   0  0  0  0  0  0  0  0  0  0  0  0
    4.2155  -19.3305   26.3084 N   0  0  0  0  0  0  0  0  0  0  0  0
    1.3126  -19.8755   27.1423 N   0  0  0  0  0  0  0  0  0  0  0  0
    0.1130  -20.3613   26.9617 C   0  0  0  0  0  0  0  0  0  0  0  0
   -0.0371  -21.0224   25.7716 N   0  0  0  0  0  0  0  0  0  0  0  0
  1  2  2  0  0  0  0
  1  6  1  0  0  0  0
  2  3  1  0  0  0  0
  3  4  2  0  0  0  0
  4  5  1  0  0  0  0
  4 10  1  0  0  0  0
  5  6  2  0  0  0  0
  5  8  1  0  0  0  0
  6  7  1  0  0  0  0
  8  9  1  0  0  0  0
  9 10  2  0  0  0  0
M  END
>  <CHROM.1>
2.01495716,-20.47791730,25.47951896,0.33952740,-0.28975983,-2.03684447

>  <Name>
ligand

>  <RI>
0

>  <Rbt.Current_Directory>
/home/itssahil/PROJECTS/Mol_Feturizer/New_Systems/rnas/4LW0

>  <Rbt.Executable>
rbdock ($Id: //depot/dev/client3/rdock/2013.1/src/exe/rbdock.cxx#4 $)

>  <Rbt.Library>
libRbt.so (2013.1, Build901 2013/11/27)

>  <Rbt.Parameter_File>
/export/apps/rDock/src/rDock_2013.1_src/data/scripts/dock_solv.prm

>  <Rbt.Receptor>
prm/pocket_docking_8.prm

>  <SCORE>
-12.528

>  <SCORE.INTER>
-12.528

>  <SCORE.INTER.CONST>
1

>  <SCORE.INTER.POLAR>
0

>  <SCORE.INTER.ROT>
0

>  <SCORE.INTER.SOLV>
3.88825

>  <SCORE.INTER.VDW>
-13.2481

>  <SCORE.INTER.norm>
-1.2528

>  <SCORE.INTRA>
0

>  <SCORE.INTRA.DIHEDRAL>
0

>  <SCORE.INTRA.DIHEDRAL.0>
0

>  <SCORE.INTRA.POLAR>
0

>  <SCORE.INTRA.POLAR.0>
0

>  <SCORE.INTRA.REPUL>
0

>  <SCORE.INTRA.REPUL.0>
0

>  <SCORE.INTRA.SOLV>
0

>  <SCORE.INTRA.SOLV.lig_0>
-23.9151

>  <SCORE.INTRA.VDW>
0

>  <SCORE.INTRA.VDW.0>
0

>  <SCORE.INTRA.norm>
0

>  <SCORE.RESTR>
0

>  <SCORE.RESTR.CAVITY>
0

>  <SCORE.RESTR.norm>
0

>  <SCORE.SYSTEM>
0

>  <SCORE.SYSTEM.CONST>
0

>  <SCORE.SYSTEM.DIHEDRAL>
0

>  <SCORE.SYSTEM.SOLV>
0

>  <SCORE.SYSTEM.norm>
0

>  <SCORE.heavy>
10

>  <SCORE.norm>
-1.2528

>  <RMSD>
2.403

$$$$
ligand
 OpenBabel11021811503D
libRbt.so/2013.1/901 2013/11/27
 10 11  0  0  0  0  0  0  0  0999 V2000
    3.6573  -20.5428   24.3429 N   0  0  0  0  0  0  0  0  0  0  0  0
    2.7637  -21.2571   23.6557 C   0  0  0  0  0  0  0  0  0  0  0  0
    1.4874  -21.5262   23.9570 N   0  0  0  0  0  0  0  0  0  0  0  0
    1.1558  -20.9736   25.1395 C   0  0  0  0  0  0  0  0  0  0  0  0
    1.9660  -20.2137   25.9617 C   0  0  0  0  0  0  0  0  0  0  0  0
    3.2878  -19.9932   25.5264 C   0  0  0  0  0  0  0  0  0  0  0  0
    4.1815  -19.2818   26.2322 N   0  0  0  0  0  0  0  0  0  0  0  0
    1.2827  -19.8063   27.0929 N   0  0  0  0  0  0  0  0  0  0  0  0
    0.0873  -20.3111   26.9379 C   0  0  0  0  0  0  0  0  0  0  0  0
   -0.0564  -21.0353   25.7844 N   0  0  0  0  0  0  0  0  0  0  0  0
  1  2  2  0  0  0  0
  1  6  1  0  0  0  0
  2  3  1  0  0  0  0
  3  4  2  0  0  0  0
  4  5  1  0  0  0  0
  4 10  1  0  0  0  0
  5  6  2  0  0  0  0
  5  8  1  0  0  0  0
  6  7  1  0  0  0  0
  8  9  1  0  0  0  0
  9 10  2  0  0  0  0
M  END
>  <CHROM.1>
1.99121793,-20.48985220,25.46449279,0.33493290,-0.29692685,-2.09102276

>  <Name>
ligand

>  <RI>
0

>  <Rbt.Current_Directory>
/home/itssahil/PROJECTS/Mol_Feturizer/New_Systems/rnas/4LW0

>  <Rbt.Executable>
rbdock ($Id: //depot/dev/client3/rdock/2013.1/src/exe/rbdock.cxx#4 $)

>  <Rbt.Library>
libRbt.so (2013.1, Build901 2013/11/27)

>  <Rbt.Parameter_File>
/export/apps/rDock/src/rDock_2013.1_src/data/scripts/dock_solv.prm

>  <Rbt.Receptor>
prm/pocket_docking_8.prm

>  <SCORE>
-12.5417

>  <SCORE.INTER>
-12.5417

>  <SCORE.INTER.CONST>
1

>  <SCORE.INTER.POLAR>
0

>  <SCORE.INTER.ROT>
0

>  <SCORE.INTER.SOLV>
3.90923

>  <SCORE.INTER.VDW>
-13.2642

>  <SCORE.INTER.norm>
-1.25417

>  <SCORE.INTRA>
0

>  <SCORE.INTRA.DIHEDRAL>
0

>  <SCORE.INTRA.DIHEDRAL.0>
0

>  <SCORE.INTRA.POLAR>
0

>  <SCORE.INTRA.POLAR.0>
0

>  <SCORE.INTRA.REPUL>
0

>  <SCORE.INTRA.REPUL.0>
0

>  <SCORE.INTRA.SOLV>
0

>  <SCORE.INTRA.SOLV.lig_0>
-23.9151

>  <SCORE.INTRA.VDW>
0

>  <SCORE.INTRA.VDW.0>
0

>  <SCORE.INTRA.norm>
0

>  <SCORE.RESTR>
0

>  <SCORE.RESTR.CAVITY>
0

>  <SCORE.RESTR.norm>
0

>  <SCORE.SYSTEM>
0

>  <SCORE.SYSTEM.CONST>
0

>  <SCORE.SYSTEM.DIHEDRAL>
0

>  <SCORE.SYSTEM.SOLV>
0

>  <SCORE.SYSTEM.norm>
0

>  <SCORE.heavy>
10

>  <SCORE.norm>
-1.25417

>  <RMSD>
2.403

$$$$
ligand
 OpenBabel11021811503D
libRbt.so/2013.1/901 2013/11/27
 10 11  0  0  0  0  0  0  0  0999 V2000
    3.6771  -20.4924   24.3507 N   0  0  0  0  0  0  0  0  0  0  0  0
    2.7792  -21.1671   23.6297 C   0  0  0  0  0  0  0  0  0  0  0  0
    1.5010  -21.4419   23.9175 N   0  0  0  0  0  0  0  0  0  0  0  0
    1.1723  -20.9445   25.1251 C   0  0  0  0  0  0  0  0  0  0  0  0
    1.9870  -20.2303   25.9829 C   0  0  0  0  0  0  0  0  0  0  0  0
    3.3105  -19.9978   25.5591 C   0  0  0  0  0  0  0  0  0  0  0  0
    4.2084  -19.3270   26.2984 N   0  0  0  0  0  0  0  0  0  0  0  0
    1.3057  -19.8732   27.1322 N   0  0  0  0  0  0  0  0  0  0  0  0
    0.1071  -20.3622   26.9529 C   0  0  0  0  0  0  0  0  0  0  0  0
   -0.0406  -21.0292   25.7658 N   0  0  0  0  0  0  0  0  0  0  0  0
  1  2  2  0  0  0  0
  1  6  1  0  0  0  0
  2  3  1  0  0  0  0
  3  4  2  0  0  0  0
  4  5  1  0  0  0  0
  4 10  1  0  0  0  0
  5  6  2  0  0  0  0
  5  8  1  0  0  0  0
  6  7  1  0  0  0  0
  8  9  1  0  0  0  0
  9 10  2  0  0  0  0
M  END
>  <CHROM.1>
2.01069868,-20.48244334,25.47308080,0.33779074,-0.29095657,-2.04218737

>  <Name>
ligand

>  <RI>
0

>  <Rbt.Current_Directory>
/home/itssahil/PROJECTS/Mol_Feturizer/New_Systems/rnas/4LW0

>  <Rbt.Executable>
rbdock ($Id: //depot/dev/client3/rdock/2013.1/src/exe/rbdock.cxx#4 $)

>  <Rbt.Library>
libRbt.so (2013.1, Build901 2013/11/27)

>  <Rbt.Parameter_File>
/export/apps/rDock/src/rDock_2013.1_src/data/scripts/dock_solv.prm

>  <Rbt.Receptor>
prm/pocket_docking_8.prm

>  <SCORE>
-12.5333

>  <SCORE.INTER>
-12.5333

>  <SCORE.INTER.CONST>
1

>  <SCORE.INTER.POLAR>
0

>  <SCORE.INTER.ROT>
0

>  <SCORE.INTER.SOLV>
3.87199

>  <SCORE.INTER.VDW>
-13.2462

>  <SCORE.INTER.norm>
-1.25333

>  <SCORE.INTRA>
0

>  <SCORE.INTRA.DIHEDRAL>
0

>  <SCORE.INTRA.DIHEDRAL.0>
0

>  <SCORE.INTRA.POLAR>
0

>  <SCORE.INTRA.POLAR.0>
0

>  <SCORE.INTRA.REPUL>
0

>  <SCORE.INTRA.REPUL.0>
0

>  <SCORE.INTRA.SOLV>
0

>  <SCORE.INTRA.SOLV.lig_0>
-23.9151

>  <SCORE.INTRA.VDW>
0

>  <SCORE.INTRA.VDW.0>
0

>  <SCORE.INTRA.norm>
0

>  <SCORE.RESTR>
0

>  <SCORE.RESTR.CAVITY>
0

>  <SCORE.RESTR.norm>
0

>  <SCORE.SYSTEM>
0

>  <SCORE.SYSTEM.CONST>
0

>  <SCORE.SYSTEM.DIHEDRAL>
0

>  <SCORE.SYSTEM.SOLV>
0

>  <SCORE.SYSTEM.norm>
0

>  <SCORE.heavy>
10

>  <SCORE.norm>
-1.25333

>  <RMSD>
2.403

$$$$
ligand
 OpenBabel11021811503D
libRbt.so/2013.1/901 2013/11/27
 10 11  0  0  0  0  0  0  0  0999 V2000
    3.6456  -20.5206   24.3258 N   0  0  0  0  0  0  0  0  0  0  0  0
    2.7522  -21.2263   23.6297 C   0  0  0  0  0  0  0  0  0  0  0  0
    1.4807  -21.5131   23.9352 N   0  0  0  0  0  0  0  0  0  0  0  0
    1.1546  -20.9908   25.1329 C   0  0  0  0  0  0  0  0  0  0  0  0
    1.9653  -20.2433   25.9658 C   0  0  0  0  0  0  0  0  0  0  0  0
    3.2816  -20.0016   25.5248 C   0  0  0  0  0  0  0  0  0  0  0  0
    4.1753  -19.2992   26.2395 N   0  0  0  0  0  0  0  0  0  0  0  0
    1.2883  -19.8680   27.1117 N   0  0  0  0  0  0  0  0  0  0  0  0
    0.0958  -20.3791   26.9550 C   0  0  0  0  0  0  0  0  0  0  0  0
   -0.0516  -21.0777   25.7861 N   0  0  0  0  0  0  0  0  0  0  0  0
  1  2  2  0  0  0  0
  1  6  1  0  0  0  0
  2  3  1  0  0  0  0
  3  4  2  0  0  0  0
  4  5  1  0  0  0  0
  4 10  1  0  0  0  0
  5  6  2  0  0  0  0
  5  8  1  0  0  0  0
  6  7  1  0  0  0  0
  8  9  1  0  0  0  0
  9 10  2  0  0  0  0
M  END
>  <CHROM.1>
1.98867397,-20.50765407,25.46210209,0.33831733,-0.30827577,-2.06685522

>  <Name>
ligand

>  <RI>
0

>  <Rbt.Current_Directory>
/home/itssahil/PROJECTS/Mol_Feturizer/New_Systems/rnas/4LW0

>  <Rbt.Executable>
rbdock ($Id: //depot/dev/client3/rdock/2013.1/src/exe/rbdock.cxx#4 $)

>  <Rbt.Library>
libRbt.so (2013.1, Build901 2013/11/27)

>  <Rbt.Parameter_File>
/export/apps/rDock/src/rDock_2013.1_src/data/scripts/dock_solv.prm

>  <Rbt.Receptor>
prm/pocket_docking_8.prm

>  <SCORE>
-12.5329

>  <SCORE.INTER>
-12.5329

>  <SCORE.INTER.CONST>
1

>  <SCORE.INTER.POLAR>
0

>  <SCORE.INTER.ROT>
0

>  <SCORE.INTER.SOLV>
3.87492

>  <SCORE.INTER.VDW>
-13.2469

>  <SCORE.INTER.norm>
-1.25329

>  <SCORE.INTRA>
0

>  <SCORE.INTRA.DIHEDRAL>
0

>  <SCORE.INTRA.DIHEDRAL.0>
0

>  <SCORE.INTRA.POLAR>
0

>  <SCORE.INTRA.POLAR.0>
0

>  <SCORE.INTRA.REPUL>
0

>  <SCORE.INTRA.REPUL.0>
0

>  <SCORE.INTRA.SOLV>
0

>  <SCORE.INTRA.SOLV.lig_0>
-23.9151

>  <SCORE.INTRA.VDW>
0

>  <SCORE.INTRA.VDW.0>
0

>  <SCORE.INTRA.norm>
0

>  <SCORE.RESTR>
0

>  <SCORE.RESTR.CAVITY>
0

>  <SCORE.RESTR.norm>
0

>  <SCORE.SYSTEM>
0

>  <SCORE.SYSTEM.CONST>
0

>  <SCORE.SYSTEM.DIHEDRAL>
0

>  <SCORE.SYSTEM.SOLV>
0

>  <SCORE.SYSTEM.norm>
0

>  <SCORE.heavy>
10

>  <SCORE.norm>
-1.25329

>  <RMSD>
2.403

$$$$
ligand
 OpenBabel11021811503D
libRbt.so/2013.1/901 2013/11/27
 10 11  0  0  0  0  0  0  0  0999 V2000
    3.6589  -20.5485   24.3512 N   0  0  0  0  0  0  0  0  0  0  0  0
    2.7657  -21.2619   23.6626 C   0  0  0  0  0  0  0  0  0  0  0  0
    1.4880  -21.5280   23.9609 N   0  0  0  0  0  0  0  0  0  0  0  0
    1.1543  -20.9730   25.1417 C   0  0  0  0  0  0  0  0  0  0  0  0
    1.9638  -20.2136   25.9650 C   0  0  0  0  0  0  0  0  0  0  0  0
    3.2873  -19.9964   25.5329 C   0  0  0  0  0  0  0  0  0  0  0  0
    4.1806  -19.2859   26.2401 N   0  0  0  0  0  0  0  0  0  0  0  0
    1.2783  -19.8032   27.0937 N   0  0  0  0  0  0  0  0  0  0  0  0
    0.0823  -20.3058   26.9363 C   0  0  0  0  0  0  0  0  0  0  0  0
   -0.0597  -21.0313   25.7833 N   0  0  0  0  0  0  0  0  0  0  0  0
  1  2  2  0  0  0  0
  1  6  1  0  0  0  0
  2  3  1  0  0  0  0
  3  4  2  0  0  0  0
  4  5  1  0  0  0  0
  4 10  1  0  0  0  0
  5  6  2  0  0  0  0
  5  8  1  0  0  0  0
  6  7  1  0  0  0  0
  8  9  1  0  0  0  0
  9 10  2  0  0  0  0
M  END
>  <CHROM.1>
1.98987057,-20.49050776,25.46822284,0.33354264,-0.29379677,-2.09283637

>  <Name>
ligand

>  <RI>
0

>  <Rbt.Current_Directory>
/home/itssahil/PROJECTS/Mol_Feturizer/New_Systems/rnas/4LW0

>  <Rbt.Executable>
rbdock ($Id: //depot/dev/client3/rdock/2013.1/src/exe/rbdock.cxx#4 $)

>  <Rbt.Library>
libRbt.so (2013.1, Build901 2013/11/27)

>  <Rbt.Parameter_File>
/export/apps/rDock/src/rDock_2013.1_src/data/scripts/dock_solv.prm

>  <Rbt.Receptor>
prm/pocket_docking_8.prm

>  <SCORE>
-12.5443

>  <SCORE.INTER>
-12.5443

>  <SCORE.INTER.CONST>
1

>  <SCORE.INTER.POLAR>
0

>  <SCORE.INTER.ROT>
0

>  <SCORE.INTER.SOLV>
3.91654

>  <SCORE.INTER.VDW>
-13.2684

>  <SCORE.INTER.norm>
-1.25443

>  <SCORE.INTRA>
0

>  <SCORE.INTRA.DIHEDRAL>
0

>  <SCORE.INTRA.DIHEDRAL.0>
0

>  <SCORE.INTRA.POLAR>
0

>  <SCORE.INTRA.POLAR.0>
0

>  <SCORE.INTRA.REPUL>
0

>  <SCORE.INTRA.REPUL.0>
0

>  <SCORE.INTRA.SOLV>
0

>  <SCORE.INTRA.SOLV.lig_0>
-23.9151

>  <SCORE.INTRA.VDW>
0

>  <SCORE.INTRA.VDW.0>
0

>  <SCORE.INTRA.norm>
0

>  <SCORE.RESTR>
0

>  <SCORE.RESTR.CAVITY>
0

>  <SCORE.RESTR.norm>
0

>  <SCORE.SYSTEM>
0

>  <SCORE.SYSTEM.CONST>
0

>  <SCORE.SYSTEM.DIHEDRAL>
0

>  <SCORE.SYSTEM.SOLV>
0

>  <SCORE.SYSTEM.norm>
0

>  <SCORE.heavy>
10

>  <SCORE.norm>
-1.25443

>  <RMSD>
2.403

$$$$
ligand
 OpenBabel11021811503D
libRbt.so/2013.1/901 2013/11/27
 10 11  0  0  0  0  0  0  0  0999 V2000
    3.6829  -20.5128   24.3000 N   0  0  0  0  0  0  0  0  0  0  0  0
    2.7843  -21.2159   23.6078 C   0  0  0  0  0  0  0  0  0  0  0  0
    1.5097  -21.4888   23.9133 N   0  0  0  0  0  0  0  0  0  0  0  0
    1.1863  -20.9541   25.1063 C   0  0  0  0  0  0  0  0  0  0  0  0
    2.0023  -20.2075   25.9347 C   0  0  0  0  0  0  0  0  0  0  0  0
    3.3215  -19.9812   25.4942 C   0  0  0  0  0  0  0  0  0  0  0  0
    4.2203  -19.2813   26.2050 N   0  0  0  0  0  0  0  0  0  0  0  0
    1.3268  -19.8171   27.0765 N   0  0  0  0  0  0  0  0  0  0  0  0
    0.1300  -20.3187   26.9216 C   0  0  0  0  0  0  0  0  0  0  0  0
   -0.0217  -21.0250   25.7580 N   0  0  0  0  0  0  0  0  0  0  0  0
  1  2  2  0  0  0  0
  1  6  1  0  0  0  0
  2  3  1  0  0  0  0
  3  4  2  0  0  0  0
  4  5  1  0  0  0  0
  4 10  1  0  0  0  0
  5  6  2  0  0  0  0
  5  8  1  0  0  0  0
  6  7  1  0  0  0  0
  8  9  1  0  0  0  0
  9 10  2  0  0  0  0
M  END
>  <CHROM.1>
2.02415978,-20.47601487,25.43320725,0.34124532,-0.29950524,-2.07380451

>  <Name>
ligand

>  <RI>
0

>  <Rbt.Current_Directory>
/home/itssahil/PROJECTS/Mol_Feturizer/New_Systems/rnas/4LW0

>  <Rbt.Executable>
rbdock ($Id: //depot/dev/client3/rdock/2013.1/src/exe/rbdock.cxx#4 $)

>  <Rbt.Library>
libRbt.so (2013.1, Build901 2013/11/27)

>  <Rbt.Parameter_File>
/export/apps/rDock/src/rDock_2013.1_src/data/scripts/dock_solv.prm

>  <Rbt.Receptor>
prm/pocket_docking_4.prm

>  <SCORE>
-12.4954

>  <SCORE.INTER>
-12.4954

>  <SCORE.INTER.CONST>
1

>  <SCORE.INTER.POLAR>
0

>  <SCORE.INTER.ROT>
0

>  <SCORE.INTER.SOLV>
3.777

>  <SCORE.INTER.VDW>
-13.1892

>  <SCORE.INTER.norm>
-1.24954

>  <SCORE.INTRA>
0

>  <SCORE.INTRA.DIHEDRAL>
0

>  <SCORE.INTRA.DIHEDRAL.0>
0

>  <SCORE.INTRA.POLAR>
0

>  <SCORE.INTRA.POLAR.0>
0

>  <SCORE.INTRA.REPUL>
0

>  <SCORE.INTRA.REPUL.0>
0

>  <SCORE.INTRA.SOLV>
0

>  <SCORE.INTRA.SOLV.lig_0>
-23.9151

>  <SCORE.INTRA.VDW>
0

>  <SCORE.INTRA.VDW.0>
0

>  <SCORE.INTRA.norm>
0

>  <SCORE.RESTR>
0

>  <SCORE.RESTR.CAVITY>
0

>  <SCORE.RESTR.norm>
0

>  <SCORE.SYSTEM>
0

>  <SCORE.SYSTEM.CONST>
0

>  <SCORE.SYSTEM.DIHEDRAL>
0

>  <SCORE.SYSTEM.SOLV>
0

>  <SCORE.SYSTEM.norm>
0

>  <SCORE.heavy>
10

>  <SCORE.norm>
-1.24954

>  <RMSD>
2.404

$$$$
ligand
 OpenBabel11021811503D
libRbt.so/2013.1/901 2013/11/27
 10 11  0  0  0  0  0  0  0  0999 V2000
    3.6437  -20.5157   24.3394 N   0  0  0  0  0  0  0  0  0  0  0  0
    2.7474  -21.2209   23.6464 C   0  0  0  0  0  0  0  0  0  0  0  0
    1.4732  -21.4969   23.9508 N   0  0  0  0  0  0  0  0  0  0  0  0
    1.1475  -20.9632   25.1436 C   0  0  0  0  0  0  0  0  0  0  0  0
    1.9611  -20.2146   25.9727 C   0  0  0  0  0  0  0  0  0  0  0  0
    3.2800  -19.9850   25.5333 C   0  0  0  0  0  0  0  0  0  0  0  0
    4.1765  -19.2830   26.2449 N   0  0  0  0  0  0  0  0  0  0  0  0
    1.2836  -19.8260   27.1140 N   0  0  0  0  0  0  0  0  0  0  0  0
    0.0882  -20.3305   26.9581 C   0  0  0  0  0  0  0  0  0  0  0  0
   -0.0609  -21.0371   25.7943 N   0  0  0  0  0  0  0  0  0  0  0  0
  1  2  2  0  0  0  0
  1  6  1  0  0  0  0
  2  3  1  0  0  0  0
  3  4  2  0  0  0  0
  4  5  1  0  0  0  0
  4 10  1  0  0  0  0
  5  6  2  0  0  0  0
  5  8  1  0  0  0  0
  6  7  1  0  0  0  0
  8  9  1  0  0  0  0
  9 10  2  0  0  0  0
M  END
>  <CHROM.1>
1.98395634,-20.48301009,25.47120155,0.33924909,-0.30126413,-2.07432686

>  <Name>
ligand

>  <RI>
0

>  <Rbt.Current_Directory>
/home/itssahil/PROJECTS/Mol_Feturizer/New_Systems/rnas/4LW0

>  <Rbt.Executable>
rbdock ($Id: //depot/dev/client3/rdock/2013.1/src/exe/rbdock.cxx#4 $)

>  <Rbt.Library>
libRbt.so (2013.1, Build901 2013/11/27)

>  <Rbt.Parameter_File>
/export/apps/rDock/src/rDock_2013.1_src/data/scripts/dock_solv.prm

>  <Rbt.Receptor>
prm/pocket_docking_4.prm

>  <SCORE>
-12.5321

>  <SCORE.INTER>
-12.5321

>  <SCORE.INTER.CONST>
1

>  <SCORE.INTER.POLAR>
0

>  <SCORE.INTER.ROT>
0

>  <SCORE.INTER.SOLV>
3.95843

>  <SCORE.INTER.VDW>
-13.2742

>  <SCORE.INTER.norm>
-1.25321

>  <SCORE.INTRA>
0

>  <SCORE.INTRA.DIHEDRAL>
0

>  <SCORE.INTRA.DIHEDRAL.0>
0

>  <SCORE.INTRA.POLAR>
0

>  <SCORE.INTRA.POLAR.0>
0

>  <SCORE.INTRA.REPUL>
0

>  <SCORE.INTRA.REPUL.0>
0

>  <SCORE.INTRA.SOLV>
0

>  <SCORE.INTRA.SOLV.lig_0>
-23.9151

>  <SCORE.INTRA.VDW>
0

>  <SCORE.INTRA.VDW.0>
0

>  <SCORE.INTRA.norm>
0

>  <SCORE.RESTR>
0

>  <SCORE.RESTR.CAVITY>
0

>  <SCORE.RESTR.norm>
0

>  <SCORE.SYSTEM>
0

>  <SCORE.SYSTEM.CONST>
0

>  <SCORE.SYSTEM.DIHEDRAL>
0

>  <SCORE.SYSTEM.SOLV>
0

>  <SCORE.SYSTEM.norm>
0

>  <SCORE.heavy>
10

>  <SCORE.norm>
-1.25321

>  <RMSD>
2.404

$$$$
ligand
 OpenBabel11021811503D
libRbt.so/2013.1/901 2013/11/27
 10 11  0  0  0  0  0  0  0  0999 V2000
    3.6946  -20.5292   24.3763 N   0  0  0  0  0  0  0  0  0  0  0  0
    2.8002  -21.2133   23.6601 C   0  0  0  0  0  0  0  0  0  0  0  0
    1.5150  -21.4672   23.9359 N   0  0  0  0  0  0  0  0  0  0  0  0
    1.1741  -20.9346   25.1250 C   0  0  0  0  0  0  0  0  0  0  0  0
    1.9838  -20.2064   25.9758 C   0  0  0  0  0  0  0  0  0  0  0  0
    3.3157  -19.9990   25.5656 C   0  0  0  0  0  0  0  0  0  0  0  0
    4.2100  -19.3182   26.3004 N   0  0  0  0  0  0  0  0  0  0  0  0
    1.2897  -19.8120   27.1050 N   0  0  0  0  0  0  0  0  0  0  0  0
    0.0887  -20.2931   26.9208 C   0  0  0  0  0  0  0  0  0  0  0  0
   -0.0489  -20.9897   25.7496 N   0  0  0  0  0  0  0  0  0  0  0  0
  1  2  2  0  0  0  0
  1  6  1  0  0  0  0
  2  3  1  0  0  0  0
  3  4  2  0  0  0  0
  4  5  1  0  0  0  0
  4 10  1  0  0  0  0
  5  6  2  0  0  0  0
  5  8  1  0  0  0  0
  6  7  1  0  0  0  0
  8  9  1  0  0  0  0
  9 10  2  0  0  0  0
M  END
>  <CHROM.1>
2.01224399,-20.47221588,25.47312761,0.32936202,-0.27473021,-2.07094445

>  <Name>
ligand

>  <RI>
0

>  <Rbt.Current_Directory>
/home/itssahil/PROJECTS/Mol_Feturizer/New_Systems/rnas/4LW0

>  <Rbt.Executable>
rbdock ($Id: //depot/dev/client3/rdock/2013.1/src/exe/rbdock.cxx#4 $)

>  <Rbt.Library>
libRbt.so (2013.1, Build901 2013/11/27)

>  <Rbt.Parameter_File>
/export/apps/rDock/src/rDock_2013.1_src/data/scripts/dock_solv.prm

>  <Rbt.Receptor>
prm/pocket_docking_5.prm

>  <SCORE>
-12.4863

>  <SCORE.INTER>
-12.4863

>  <SCORE.INTER.CONST>
1

>  <SCORE.INTER.POLAR>
0

>  <SCORE.INTER.ROT>
0

>  <SCORE.INTER.SOLV>
3.90957

>  <SCORE.INTER.VDW>
-13.2274

>  <SCORE.INTER.norm>
-1.24863

>  <SCORE.INTRA>
0

>  <SCORE.INTRA.DIHEDRAL>
0

>  <SCORE.INTRA.DIHEDRAL.0>
0

>  <SCORE.INTRA.POLAR>
0

>  <SCORE.INTRA.POLAR.0>
0

>  <SCORE.INTRA.REPUL>
0

>  <SCORE.INTRA.REPUL.0>
0

>  <SCORE.INTRA.SOLV>
0

>  <SCORE.INTRA.SOLV.lig_0>
-23.9151

>  <SCORE.INTRA.VDW>
0

>  <SCORE.INTRA.VDW.0>
0

>  <SCORE.INTRA.norm>
0

>  <SCORE.RESTR>
0

>  <SCORE.RESTR.CAVITY>
0

>  <SCORE.RESTR.norm>
0

>  <SCORE.SYSTEM>
0

>  <SCORE.SYSTEM.CONST>
0

>  <SCORE.SYSTEM.DIHEDRAL>
0

>  <SCORE.SYSTEM.SOLV>
0

>  <SCORE.SYSTEM.norm>
0

>  <SCORE.heavy>
10

>  <SCORE.norm>
-1.24863

>  <RMSD>
2.404

$$$$
ligand
 OpenBabel11021811503D
libRbt.so/2013.1/901 2013/11/27
 10 11  0  0  0  0  0  0  0  0999 V2000
    3.6527  -20.5300   24.3331 N   0  0  0  0  0  0  0  0  0  0  0  0
    2.7560  -21.2365   23.6418 C   0  0  0  0  0  0  0  0  0  0  0  0
    1.4803  -21.5070   23.9445 N   0  0  0  0  0  0  0  0  0  0  0  0
    1.1531  -20.9655   25.1334 C   0  0  0  0  0  0  0  0  0  0  0  0
    1.9668  -20.2146   25.9603 C   0  0  0  0  0  0  0  0  0  0  0  0
    3.2875  -19.9915   25.5230 C   0  0  0  0  0  0  0  0  0  0  0  0
    4.1843  -19.2881   26.2329 N   0  0  0  0  0  0  0  0  0  0  0  0
    1.2876  -19.8175   27.0976 N   0  0  0  0  0  0  0  0  0  0  0  0
    0.0911  -20.3193   26.9415 C   0  0  0  0  0  0  0  0  0  0  0  0
   -0.0571  -21.0321   25.7814 N   0  0  0  0  0  0  0  0  0  0  0  0
  1  2  2  0  0  0  0
  1  6  1  0  0  0  0
  2  3  1  0  0  0  0
  3  4  2  0  0  0  0
  4  5  1  0  0  0  0
  4 10  1  0  0  0  0
  5  6  2  0  0  0  0
  5  8  1  0  0  0  0
  6  7  1  0  0  0  0
  8  9  1  0  0  0  0
  9 10  2  0  0  0  0
M  END
>  <CHROM.1>
1.99014520,-20.48596787,25.46041151,0.33842895,-0.29740449,-2.08025361

>  <Name>
ligand

>  <RI>
0

>  <Rbt.Current_Directory>
/home/itssahil/PROJECTS/Mol_Feturizer/New_Systems/rnas/4LW0

>  <Rbt.Executable>
rbdock ($Id: //depot/dev/client3/rdock/2013.1/src/exe/rbdock.cxx#4 $)

>  <Rbt.Library>
libRbt.so (2013.1, Build901 2013/11/27)

>  <Rbt.Parameter_File>
/export/apps/rDock/src/rDock_2013.1_src/data/scripts/dock_solv.prm

>  <Rbt.Receptor>
prm/pocket_docking_6.prm

>  <SCORE>
-12.5378

>  <SCORE.INTER>
-12.5378

>  <SCORE.INTER.CONST>
1

>  <SCORE.INTER.POLAR>
0

>  <SCORE.INTER.ROT>
0

>  <SCORE.INTER.SOLV>
3.89918

>  <SCORE.INTER.VDW>
-13.2583

>  <SCORE.INTER.norm>
-1.25378

>  <SCORE.INTRA>
0

>  <SCORE.INTRA.DIHEDRAL>
0

>  <SCORE.INTRA.DIHEDRAL.0>
0

>  <SCORE.INTRA.POLAR>
0

>  <SCORE.INTRA.POLAR.0>
0

>  <SCORE.INTRA.REPUL>
0

>  <SCORE.INTRA.REPUL.0>
0

>  <SCORE.INTRA.SOLV>
0

>  <SCORE.INTRA.SOLV.lig_0>
-23.9151

>  <SCORE.INTRA.VDW>
0

>  <SCORE.INTRA.VDW.0>
0

>  <SCORE.INTRA.norm>
0

>  <SCORE.RESTR>
0

>  <SCORE.RESTR.CAVITY>
0

>  <SCORE.RESTR.norm>
0

>  <SCORE.SYSTEM>
0

>  <SCORE.SYSTEM.CONST>
0

>  <SCORE.SYSTEM.DIHEDRAL>
0

>  <SCORE.SYSTEM.SOLV>
0

>  <SCORE.SYSTEM.norm>
0

>  <SCORE.heavy>
10

>  <SCORE.norm>
-1.25378

>  <RMSD>
2.404

$$$$
ligand
 OpenBabel11021811503D
libRbt.so/2013.1/901 2013/11/27
 10 11  0  0  0  0  0  0  0  0999 V2000
    3.6772  -20.4648   24.2772 N   0  0  0  0  0  0  0  0  0  0  0  0
    2.7852  -21.1839   23.5928 C   0  0  0  0  0  0  0  0  0  0  0  0
    1.5185  -21.4795   23.9096 N   0  0  0  0  0  0  0  0  0  0  0  0
    1.1961  -20.9508   25.1055 C   0  0  0  0  0  0  0  0  0  0  0  0
    2.0060  -20.1897   25.9268 C   0  0  0  0  0  0  0  0  0  0  0  0
    3.3169  -19.9398   25.4746 C   0  0  0  0  0  0  0  0  0  0  0  0
    4.2094  -19.2240   26.1775 N   0  0  0  0  0  0  0  0  0  0  0  0
    1.3338  -19.8115   27.0746 N   0  0  0  0  0  0  0  0  0  0  0  0
    0.1448  -20.3344   26.9302 C   0  0  0  0  0  0  0  0  0  0  0  0
   -0.0046  -21.0433   25.7679 N   0  0  0  0  0  0  0  0  0  0  0  0
  1  2  2  0  0  0  0
  1  6  1  0  0  0  0
  2  3  1  0  0  0  0
  3  4  2  0  0  0  0
  4  5  1  0  0  0  0
  4 10  1  0  0  0  0
  5  6  2  0  0  0  0
  5  8  1  0  0  0  0
  6  7  1  0  0  0  0
  8  9  1  0  0  0  0
  9 10  2  0  0  0  0
M  END
>  <CHROM.1>
2.02819868,-20.45773697,25.42501432,0.34035177,-0.31947148,-2.07398214

>  <Name>
ligand

>  <RI>
0

>  <Rbt.Current_Directory>
/home/itssahil/PROJECTS/Mol_Feturizer/New_Systems/rnas/4LW0

>  <Rbt.Executable>
rbdock ($Id: //depot/dev/client3/rdock/2013.1/src/exe/rbdock.cxx#4 $)

>  <Rbt.Library>
libRbt.so (2013.1, Build901 2013/11/27)

>  <Rbt.Parameter_File>
/export/apps/rDock/src/rDock_2013.1_src/data/scripts/dock_solv.prm

>  <Rbt.Receptor>
prm/pocket_docking_8.prm

>  <SCORE>
-12.4742

>  <SCORE.INTER>
-12.4742

>  <SCORE.INTER.CONST>
1

>  <SCORE.INTER.POLAR>
0

>  <SCORE.INTER.ROT>
0

>  <SCORE.INTER.SOLV>
3.90867

>  <SCORE.INTER.VDW>
-13.2191

>  <SCORE.INTER.norm>
-1.24742

>  <SCORE.INTRA>
0

>  <SCORE.INTRA.DIHEDRAL>
0

>  <SCORE.INTRA.DIHEDRAL.0>
0

>  <SCORE.INTRA.POLAR>
0

>  <SCORE.INTRA.POLAR.0>
0

>  <SCORE.INTRA.REPUL>
0

>  <SCORE.INTRA.REPUL.0>
0

>  <SCORE.INTRA.SOLV>
0

>  <SCORE.INTRA.SOLV.lig_0>
-23.9151

>  <SCORE.INTRA.VDW>
0

>  <SCORE.INTRA.VDW.0>
0

>  <SCORE.INTRA.norm>
0

>  <SCORE.RESTR>
0

>  <SCORE.RESTR.CAVITY>
0

>  <SCORE.RESTR.norm>
0

>  <SCORE.SYSTEM>
0

>  <SCORE.SYSTEM.CONST>
0

>  <SCORE.SYSTEM.DIHEDRAL>
0

>  <SCORE.SYSTEM.SOLV>
0

>  <SCORE.SYSTEM.norm>
0

>  <SCORE.heavy>
10

>  <SCORE.norm>
-1.24742

>  <RMSD>
2.404

$$$$
ligand
 OpenBabel11021811503D
libRbt.so/2013.1/901 2013/11/27
 10 11  0  0  0  0  0  0  0  0999 V2000
    3.6970  -20.6525   24.3886 N   0  0  0  0  0  0  0  0  0  0  0  0
    2.7731  -21.2782   23.6565 C   0  0  0  0  0  0  0  0  0  0  0  0
    1.4789  -21.4855   23.9293 N   0  0  0  0  0  0  0  0  0  0  0  0
    1.1632  -20.9724   25.1338 C   0  0  0  0  0  0  0  0  0  0  0  0
    2.0045  -20.3029   26.0019 C   0  0  0  0  0  0  0  0  0  0  0  0
    3.3432  -20.1402   25.5934 C   0  0  0  0  0  0  0  0  0  0  0  0
    4.2668  -19.5183   26.3439 N   0  0  0  0  0  0  0  0  0  0  0  0
    1.3300  -19.9113   27.1439 N   0  0  0  0  0  0  0  0  0  0  0  0
    0.1094  -20.3362   26.9502 C   0  0  0  0  0  0  0  0  0  0  0  0
   -0.0598  -20.9935   25.7606 N   0  0  0  0  0  0  0  0  0  0  0  0
  1  2  2  0  0  0  0
  1  6  1  0  0  0  0
  2  3  1  0  0  0  0
  3  4  2  0  0  0  0
  4  5  1  0  0  0  0
  4 10  1  0  0  0  0
  5  6  2  0  0  0  0
  5  8  1  0  0  0  0
  6  7  1  0  0  0  0
  8  9  1  0  0  0  0
  9 10  2  0  0  0  0
M  END
>  <CHROM.1>
2.02077395,-20.55548651,25.49197797,0.35197050,-0.23872365,-2.03733937

>  <Name>
ligand

>  <RI>
0

>  <Rbt.Current_Directory>
/home/itssahil/PROJECTS/Mol_Feturizer/New_Systems/rnas/4LW0

>  <Rbt.Executable>
rbdock ($Id: //depot/dev/client3/rdock/2013.1/src/exe/rbdock.cxx#4 $)

>  <Rbt.Library>
libRbt.so (2013.1, Build901 2013/11/27)

>  <Rbt.Parameter_File>
/export/apps/rDock/src/rDock_2013.1_src/data/scripts/dock_solv.prm

>  <Rbt.Receptor>
prm/pocket_docking_6.prm

>  <SCORE>
-12.4397

>  <SCORE.INTER>
-12.4397

>  <SCORE.INTER.CONST>
1

>  <SCORE.INTER.POLAR>
0

>  <SCORE.INTER.ROT>
0

>  <SCORE.INTER.SOLV>
3.37063

>  <SCORE.INTER.VDW>
-13.0167

>  <SCORE.INTER.norm>
-1.24397

>  <SCORE.INTRA>
0

>  <SCORE.INTRA.DIHEDRAL>
0

>  <SCORE.INTRA.DIHEDRAL.0>
0

>  <SCORE.INTRA.POLAR>
0

>  <SCORE.INTRA.POLAR.0>
0

>  <SCORE.INTRA.REPUL>
0

>  <SCORE.INTRA.REPUL.0>
0

>  <SCORE.INTRA.SOLV>
0

>  <SCORE.INTRA.SOLV.lig_0>
-23.9151

>  <SCORE.INTRA.VDW>
0

>  <SCORE.INTRA.VDW.0>
0

>  <SCORE.INTRA.norm>
0

>  <SCORE.RESTR>
0

>  <SCORE.RESTR.CAVITY>
0

>  <SCORE.RESTR.norm>
0

>  <SCORE.SYSTEM>
0

>  <SCORE.SYSTEM.CONST>
0

>  <SCORE.SYSTEM.DIHEDRAL>
0

>  <SCORE.SYSTEM.SOLV>
0

>  <SCORE.SYSTEM.norm>
0

>  <SCORE.heavy>
10

>  <SCORE.norm>
-1.24397

>  <RMSD>
2.405

$$$$
ligand
 OpenBabel11021811503D
libRbt.so/2013.1/901 2013/11/27
 10 11  0  0  0  0  0  0  0  0999 V2000
    3.5346  -20.3629   24.5823 N   0  0  0  0  0  0  0  0  0  0  0  0
    2.6451  -20.7875   23.6826 C   0  0  0  0  0  0  0  0  0  0  0  0
    1.3792  -21.1814   23.8689 N   0  0  0  0  0  0  0  0  0  0  0  0
    1.0548  -21.1230   25.1746 C   0  0  0  0  0  0  0  0  0  0  0  0
    1.8621  -20.7091   26.2171 C   0  0  0  0  0  0  0  0  0  0  0  0
    3.1724  -20.3087   25.8881 C   0  0  0  0  0  0  0  0  0  0  0  0
    4.0624  -19.8939   26.8039 N   0  0  0  0  0  0  0  0  0  0  0  0
    1.1883  -20.7746   27.4230 N   0  0  0  0  0  0  0  0  0  0  0  0
    0.0011  -21.2129   27.0972 C   0  0  0  0  0  0  0  0  0  0  0  0
   -0.1458  -21.4527   25.7568 N   0  0  0  0  0  0  0  0  0  0  0  0
  1  2  2  0  0  0  0
  1  6  1  0  0  0  0
  2  3  1  0  0  0  0
  3  4  2  0  0  0  0
  4  5  1  0  0  0  0
  4 10  1  0  0  0  0
  5  6  2  0  0  0  0
  5  8  1  0  0  0  0
  6  7  1  0  0  0  0
  8  9  1  0  0  0  0
  9 10  2  0  0  0  0
M  END
>  <CHROM.1>
1.88526765,-20.77702074,25.65232048,0.33849879,-0.32204348,-1.70361921

>  <Name>
ligand

>  <RI>
0

>  <Rbt.Current_Directory>
/home/itssahil/PROJECTS/Mol_Feturizer/New_Systems/rnas/4LW0

>  <Rbt.Executable>
rbdock ($Id: //depot/dev/client3/rdock/2013.1/src/exe/rbdock.cxx#4 $)

>  <Rbt.Library>
libRbt.so (2013.1, Build901 2013/11/27)

>  <Rbt.Parameter_File>
/export/apps/rDock/src/rDock_2013.1_src/data/scripts/dock_solv.prm

>  <Rbt.Receptor>
prm/pocket_docking_8.prm

>  <SCORE>
-12.4508

>  <SCORE.INTER>
-12.4508

>  <SCORE.INTER.CONST>
1

>  <SCORE.INTER.POLAR>
0

>  <SCORE.INTER.ROT>
0

>  <SCORE.INTER.SOLV>
4.65882

>  <SCORE.INTER.VDW>
-13.4534

>  <SCORE.INTER.norm>
-1.24508

>  <SCORE.INTRA>
0

>  <SCORE.INTRA.DIHEDRAL>
0

>  <SCORE.INTRA.DIHEDRAL.0>
0

>  <SCORE.INTRA.POLAR>
0

>  <SCORE.INTRA.POLAR.0>
0

>  <SCORE.INTRA.REPUL>
0

>  <SCORE.INTRA.REPUL.0>
0

>  <SCORE.INTRA.SOLV>
0

>  <SCORE.INTRA.SOLV.lig_0>
-23.9151

>  <SCORE.INTRA.VDW>
0

>  <SCORE.INTRA.VDW.0>
0

>  <SCORE.INTRA.norm>
0

>  <SCORE.RESTR>
0

>  <SCORE.RESTR.CAVITY>
0

>  <SCORE.RESTR.norm>
0

>  <SCORE.SYSTEM>
0

>  <SCORE.SYSTEM.CONST>
0

>  <SCORE.SYSTEM.DIHEDRAL>
0

>  <SCORE.SYSTEM.SOLV>
0

>  <SCORE.SYSTEM.norm>
0

>  <SCORE.heavy>
10

>  <SCORE.norm>
-1.24508

>  <RMSD>
2.406

$$$$
ligand
 OpenBabel11021811503D
libRbt.so/2013.1/901 2013/11/27
 10 11  0  0  0  0  0  0  0  0999 V2000
    3.5387  -20.3511   24.5801 N   0  0  0  0  0  0  0  0  0  0  0  0
    2.6643  -20.8021   23.6784 C   0  0  0  0  0  0  0  0  0  0  0  0
    1.4016  -21.2094   23.8581 N   0  0  0  0  0  0  0  0  0  0  0  0
    1.0627  -21.1335   25.1593 C   0  0  0  0  0  0  0  0  0  0  0  0
    1.8535  -20.6918   26.2030 C   0  0  0  0  0  0  0  0  0  0  0  0
    3.1619  -20.2798   25.8810 C   0  0  0  0  0  0  0  0  0  0  0  0
    4.0367  -19.8382   26.7989 N   0  0  0  0  0  0  0  0  0  0  0  0
    1.1678  -20.7460   27.4027 N   0  0  0  0  0  0  0  0  0  0  0  0
   -0.0102  -21.2051   27.0720 C   0  0  0  0  0  0  0  0  0  0  0  0
   -0.1397  -21.4691   25.7343 N   0  0  0  0  0  0  0  0  0  0  0  0
  1  2  2  0  0  0  0
  1  6  1  0  0  0  0
  2  3  1  0  0  0  0
  3  4  2  0  0  0  0
  4  5  1  0  0  0  0
  4 10  1  0  0  0  0
  5  6  2  0  0  0  0
  5  8  1  0  0  0  0
  6  7  1  0  0  0  0
  8  9  1  0  0  0  0
  9 10  2  0  0  0  0
M  END
>  <CHROM.1>
1.88348091,-20.76878363,25.63968697,0.32552879,-0.33337548,-1.72452971

>  <Name>
ligand

>  <RI>
0

>  <Rbt.Current_Directory>
/home/itssahil/PROJECTS/Mol_Feturizer/New_Systems/rnas/4LW0

>  <Rbt.Executable>
rbdock ($Id: //depot/dev/client3/rdock/2013.1/src/exe/rbdock.cxx#4 $)

>  <Rbt.Library>
libRbt.so (2013.1, Build901 2013/11/27)

>  <Rbt.Parameter_File>
/export/apps/rDock/src/rDock_2013.1_src/data/scripts/dock_solv.prm

>  <Rbt.Receptor>
prm/pocket_docking_3.prm

>  <SCORE>
-12.4882

>  <SCORE.INTER>
-12.4882

>  <SCORE.INTER.CONST>
1

>  <SCORE.INTER.POLAR>
0

>  <SCORE.INTER.ROT>
0

>  <SCORE.INTER.SOLV>
4.7362

>  <SCORE.INTER.VDW>
-13.5042

>  <SCORE.INTER.norm>
-1.24882

>  <SCORE.INTRA>
0

>  <SCORE.INTRA.DIHEDRAL>
0

>  <SCORE.INTRA.DIHEDRAL.0>
0

>  <SCORE.INTRA.POLAR>
0

>  <SCORE.INTRA.POLAR.0>
0

>  <SCORE.INTRA.REPUL>
0

>  <SCORE.INTRA.REPUL.0>
0

>  <SCORE.INTRA.SOLV>
0

>  <SCORE.INTRA.SOLV.lig_0>
-23.9151

>  <SCORE.INTRA.VDW>
0

>  <SCORE.INTRA.VDW.0>
0

>  <SCORE.INTRA.norm>
0

>  <SCORE.RESTR>
0

>  <SCORE.RESTR.CAVITY>
0

>  <SCORE.RESTR.norm>
0

>  <SCORE.SYSTEM>
0

>  <SCORE.SYSTEM.CONST>
0

>  <SCORE.SYSTEM.DIHEDRAL>
0

>  <SCORE.SYSTEM.SOLV>
0

>  <SCORE.SYSTEM.norm>
0

>  <SCORE.heavy>
10

>  <SCORE.norm>
-1.24882

>  <RMSD>
2.408

$$$$
ligand
 OpenBabel11021811503D
libRbt.so/2013.1/901 2013/11/27
 10 11  0  0  0  0  0  0  0  0999 V2000
    3.5225  -20.3497   24.5812 N   0  0  0  0  0  0  0  0  0  0  0  0
    2.6393  -20.7725   23.6744 C   0  0  0  0  0  0  0  0  0  0  0  0
    1.3759  -21.1777   23.8525 N   0  0  0  0  0  0  0  0  0  0  0  0
    1.0465  -21.1342   25.1576 C   0  0  0  0  0  0  0  0  0  0  0  0
    1.8470  -20.7240   26.2067 C   0  0  0  0  0  0  0  0  0  0  0  0
    3.1553  -20.3105   25.8862 C   0  0  0  0  0  0  0  0  0  0  0  0
    4.0389  -19.8976   26.8091 N   0  0  0  0  0  0  0  0  0  0  0  0
    1.1695  -20.8060   27.4095 N   0  0  0  0  0  0  0  0  0  0  0  0
   -0.0132  -21.2503   27.0754 C   0  0  0  0  0  0  0  0  0  0  0  0
   -0.1536  -21.4785   25.7323 N   0  0  0  0  0  0  0  0  0  0  0  0
  1  2  2  0  0  0  0
  1  6  1  0  0  0  0
  2  3  1  0  0  0  0
  3  4  2  0  0  0  0
  4  5  1  0  0  0  0
  4 10  1  0  0  0  0
  5  6  2  0  0  0  0
  5  8  1  0  0  0  0
  6  7  1  0  0  0  0
  8  9  1  0  0  0  0
  9 10  2  0  0  0  0
M  END
>  <CHROM.1>
1.87260942,-20.78640655,25.64143553,0.33376188,-0.32917535,-1.69570909

>  <Name>
ligand

>  <RI>
0

>  <Rbt.Current_Directory>
/home/itssahil/PROJECTS/Mol_Feturizer/New_Systems/rnas/4LW0

>  <Rbt.Executable>
rbdock ($Id: //depot/dev/client3/rdock/2013.1/src/exe/rbdock.cxx#4 $)

>  <Rbt.Library>
libRbt.so (2013.1, Build901 2013/11/27)

>  <Rbt.Parameter_File>
/export/apps/rDock/src/rDock_2013.1_src/data/scripts/dock_solv.prm

>  <Rbt.Receptor>
prm/pocket_docking_4.prm

>  <SCORE>
-12.4831

>  <SCORE.INTER>
-12.4831

>  <SCORE.INTER.CONST>
1

>  <SCORE.INTER.POLAR>
0

>  <SCORE.INTER.ROT>
0

>  <SCORE.INTER.SOLV>
4.72779

>  <SCORE.INTER.VDW>
-13.498

>  <SCORE.INTER.norm>
-1.24831

>  <SCORE.INTRA>
0

>  <SCORE.INTRA.DIHEDRAL>
0

>  <SCORE.INTRA.DIHEDRAL.0>
0

>  <SCORE.INTRA.POLAR>
0

>  <SCORE.INTRA.POLAR.0>
0

>  <SCORE.INTRA.REPUL>
0

>  <SCORE.INTRA.REPUL.0>
0

>  <SCORE.INTRA.SOLV>
0

>  <SCORE.INTRA.SOLV.lig_0>
-23.9151

>  <SCORE.INTRA.VDW>
0

>  <SCORE.INTRA.VDW.0>
0

>  <SCORE.INTRA.norm>
0

>  <SCORE.RESTR>
0

>  <SCORE.RESTR.CAVITY>
0

>  <SCORE.RESTR.norm>
0

>  <SCORE.SYSTEM>
0

>  <SCORE.SYSTEM.CONST>
0

>  <SCORE.SYSTEM.DIHEDRAL>
0

>  <SCORE.SYSTEM.SOLV>
0

>  <SCORE.SYSTEM.norm>
0

>  <SCORE.heavy>
10

>  <SCORE.norm>
-1.24831

>  <RMSD>
2.408

$$$$
ligand
 OpenBabel11021811503D
libRbt.so/2013.1/901 2013/11/27
 10 11  0  0  0  0  0  0  0  0999 V2000
    3.5575  -20.3327   24.5894 N   0  0  0  0  0  0  0  0  0  0  0  0
    2.6987  -20.8092   23.6859 C   0  0  0  0  0  0  0  0  0  0  0  0
    1.4404  -21.2323   23.8592 N   0  0  0  0  0  0  0  0  0  0  0  0
    1.0877  -21.1431   25.1558 C   0  0  0  0  0  0  0  0  0  0  0  0
    1.8616  -20.6753   26.2007 C   0  0  0  0  0  0  0  0  0  0  0  0
    3.1670  -20.2487   25.8855 C   0  0  0  0  0  0  0  0  0  0  0  0
    4.0263  -19.7814   26.8055 N   0  0  0  0  0  0  0  0  0  0  0  0
    1.1651  -20.7226   27.3944 N   0  0  0  0  0  0  0  0  0  0  0  0
   -0.0028  -21.2036   27.0590 C   0  0  0  0  0  0  0  0  0  0  0  0
   -0.1153  -21.4882   25.7240 N   0  0  0  0  0  0  0  0  0  0  0  0
  1  2  2  0  0  0  0
  1  6  1  0  0  0  0
  2  3  1  0  0  0  0
  3  4  2  0  0  0  0
  4  5  1  0  0  0  0
  4 10  1  0  0  0  0
  5  6  2  0  0  0  0
  5  8  1  0  0  0  0
  6  7  1  0  0  0  0
  8  9  1  0  0  0  0
  9 10  2  0  0  0  0
M  END
>  <CHROM.1>
1.89828639,-20.75970359,25.63890112,0.31285414,-0.34621452,-1.74287763

>  <Name>
ligand

>  <RI>
0

>  <Rbt.Current_Directory>
/home/itssahil/PROJECTS/Mol_Feturizer/New_Systems/rnas/4LW0

>  <Rbt.Executable>
rbdock ($Id: //depot/dev/client3/rdock/2013.1/src/exe/rbdock.cxx#4 $)

>  <Rbt.Library>
libRbt.so (2013.1, Build901 2013/11/27)

>  <Rbt.Parameter_File>
/export/apps/rDock/src/rDock_2013.1_src/data/scripts/dock_solv.prm

>  <Rbt.Receptor>
prm/pocket_docking_6.prm

>  <SCORE>
-12.4709

>  <SCORE.INTER>
-12.4709

>  <SCORE.INTER.CONST>
1

>  <SCORE.INTER.POLAR>
0

>  <SCORE.INTER.ROT>
0

>  <SCORE.INTER.SOLV>
4.8516

>  <SCORE.INTER.VDW>
-13.5312

>  <SCORE.INTER.norm>
-1.24709

>  <SCORE.INTRA>
0

>  <SCORE.INTRA.DIHEDRAL>
0

>  <SCORE.INTRA.DIHEDRAL.0>
0

>  <SCORE.INTRA.POLAR>
0

>  <SCORE.INTRA.POLAR.0>
0

>  <SCORE.INTRA.REPUL>
0

>  <SCORE.INTRA.REPUL.0>
0

>  <SCORE.INTRA.SOLV>
0

>  <SCORE.INTRA.SOLV.lig_0>
-23.9151

>  <SCORE.INTRA.VDW>
0

>  <SCORE.INTRA.VDW.0>
0

>  <SCORE.INTRA.norm>
0

>  <SCORE.RESTR>
0

>  <SCORE.RESTR.CAVITY>
0

>  <SCORE.RESTR.norm>
0

>  <SCORE.SYSTEM>
0

>  <SCORE.SYSTEM.CONST>
0

>  <SCORE.SYSTEM.DIHEDRAL>
0

>  <SCORE.SYSTEM.SOLV>
0

>  <SCORE.SYSTEM.norm>
0

>  <SCORE.heavy>
10

>  <SCORE.norm>
-1.24709

>  <RMSD>
2.408

$$$$
ligand
 OpenBabel11021811503D
libRbt.so/2013.1/901 2013/11/27
 10 11  0  0  0  0  0  0  0  0999 V2000
    3.5174  -20.3120   24.5171 N   0  0  0  0  0  0  0  0  0  0  0  0
    2.6388  -20.7947   23.6361 C   0  0  0  0  0  0  0  0  0  0  0  0
    1.3866  -21.2216   23.8410 N   0  0  0  0  0  0  0  0  0  0  0  0
    1.0648  -21.1292   25.1455 C   0  0  0  0  0  0  0  0  0  0  0  0
    1.8620  -20.6550   26.1699 C   0  0  0  0  0  0  0  0  0  0  0  0
    3.1579  -20.2249   25.8219 C   0  0  0  0  0  0  0  0  0  0  0  0
    4.0373  -19.7514   26.7193 N   0  0  0  0  0  0  0  0  0  0  0  0
    1.1945  -20.7006   27.3801 N   0  0  0  0  0  0  0  0  0  0  0  0
    0.0206  -21.1869   27.0745 C   0  0  0  0  0  0  0  0  0  0  0  0
   -0.1229  -21.4765   25.7436 N   0  0  0  0  0  0  0  0  0  0  0  0
  1  2  2  0  0  0  0
  1  6  1  0  0  0  0
  2  3  1  0  0  0  0
  3  4  2  0  0  0  0
  4  5  1  0  0  0  0
  4 10  1  0  0  0  0
  5  6  2  0  0  0  0
  5  8  1  0  0  0  0
  6  7  1  0  0  0  0
  8  9  1  0  0  0  0
  9 10  2  0  0  0  0
M  END
>  <CHROM.1>
1.88543539,-20.74123784,25.60761643,0.33744014,-0.35378803,-1.73787765

>  <Name>
ligand

>  <RI>
0

>  <Rbt.Current_Directory>
/home/itssahil/PROJECTS/Mol_Feturizer/New_Systems/rnas/4LW0

>  <Rbt.Executable>
rbdock ($Id: //depot/dev/client3/rdock/2013.1/src/exe/rbdock.cxx#4 $)

>  <Rbt.Library>
libRbt.so (2013.1, Build901 2013/11/27)

>  <Rbt.Parameter_File>
/export/apps/rDock/src/rDock_2013.1_src/data/scripts/dock_solv.prm

>  <Rbt.Receptor>
prm/pocket_docking_3.prm

>  <SCORE>
-12.4413

>  <SCORE.INTER>
-12.4413

>  <SCORE.INTER.CONST>
1

>  <SCORE.INTER.POLAR>
0

>  <SCORE.INTER.ROT>
0

>  <SCORE.INTER.SOLV>
4.65986

>  <SCORE.INTER.VDW>
-13.4475

>  <SCORE.INTER.norm>
-1.24413

>  <SCORE.INTRA>
0

>  <SCORE.INTRA.DIHEDRAL>
0

>  <SCORE.INTRA.DIHEDRAL.0>
0

>  <SCORE.INTRA.POLAR>
0

>  <SCORE.INTRA.POLAR.0>
0

>  <SCORE.INTRA.REPUL>
0

>  <SCORE.INTRA.REPUL.0>
0

>  <SCORE.INTRA.SOLV>
0

>  <SCORE.INTRA.SOLV.lig_0>
-23.9151

>  <SCORE.INTRA.VDW>
0

>  <SCORE.INTRA.VDW.0>
0

>  <SCORE.INTRA.norm>
0

>  <SCORE.RESTR>
0

>  <SCORE.RESTR.CAVITY>
0

>  <SCORE.RESTR.norm>
0

>  <SCORE.SYSTEM>
0

>  <SCORE.SYSTEM.CONST>
0

>  <SCORE.SYSTEM.DIHEDRAL>
0

>  <SCORE.SYSTEM.SOLV>
0

>  <SCORE.SYSTEM.norm>
0

>  <SCORE.heavy>
10

>  <SCORE.norm>
-1.24413

>  <RMSD>
2.409

$$$$
ligand
 OpenBabel11021811503D
libRbt.so/2013.1/901 2013/11/27
 10 11  0  0  0  0  0  0  0  0999 V2000
    3.5165  -20.2878   24.5776 N   0  0  0  0  0  0  0  0  0  0  0  0
    2.6466  -20.7464   23.6754 C   0  0  0  0  0  0  0  0  0  0  0  0
    1.3921  -21.1775   23.8563 N   0  0  0  0  0  0  0  0  0  0  0  0
    1.0572  -21.1192   25.1594 C   0  0  0  0  0  0  0  0  0  0  0  0
    1.8442  -20.6728   26.2039 C   0  0  0  0  0  0  0  0  0  0  0  0
    3.1438  -20.2348   25.8805 C   0  0  0  0  0  0  0  0  0  0  0  0
    4.0143  -19.7859   26.7990 N   0  0  0  0  0  0  0  0  0  0  0  0
    1.1644  -20.7498   27.4058 N   0  0  0  0  0  0  0  0  0  0  0  0
   -0.0066  -21.2269   27.0756 C   0  0  0  0  0  0  0  0  0  0  0  0
   -0.1368  -21.4812   25.7361 N   0  0  0  0  0  0  0  0  0  0  0  0
  1  2  2  0  0  0  0
  1  6  1  0  0  0  0
  2  3  1  0  0  0  0
  3  4  2  0  0  0  0
  4  5  1  0  0  0  0
  4 10  1  0  0  0  0
  5  6  2  0  0  0  0
  5  8  1  0  0  0  0
  6  7  1  0  0  0  0
  8  9  1  0  0  0  0
  9 10  2  0  0  0  0
M  END
>  <CHROM.1>
1.87329068,-20.74427355,25.63986950,0.32689033,-0.35153227,-1.71516965

>  <Name>
ligand

>  <RI>
0

>  <Rbt.Current_Directory>
/home/itssahil/PROJECTS/Mol_Feturizer/New_Systems/rnas/4LW0

>  <Rbt.Executable>
rbdock ($Id: //depot/dev/client3/rdock/2013.1/src/exe/rbdock.cxx#4 $)

>  <Rbt.Library>
libRbt.so (2013.1, Build901 2013/11/27)

>  <Rbt.Parameter_File>
/export/apps/rDock/src/rDock_2013.1_src/data/scripts/dock_solv.prm

>  <Rbt.Receptor>
prm/pocket_docking_3.prm

>  <SCORE>
-12.5107

>  <SCORE.INTER>
-12.5107

>  <SCORE.INTER.CONST>
1

>  <SCORE.INTER.POLAR>
0

>  <SCORE.INTER.ROT>
0

>  <SCORE.INTER.SOLV>
4.88722

>  <SCORE.INTER.VDW>
-13.5695

>  <SCORE.INTER.norm>
-1.25107

>  <SCORE.INTRA>
0

>  <SCORE.INTRA.DIHEDRAL>
0

>  <SCORE.INTRA.DIHEDRAL.0>
0

>  <SCORE.INTRA.POLAR>
0

>  <SCORE.INTRA.POLAR.0>
0

>  <SCORE.INTRA.REPUL>
0

>  <SCORE.INTRA.REPUL.0>
0

>  <SCORE.INTRA.SOLV>
0

>  <SCORE.INTRA.SOLV.lig_0>
-23.9151

>  <SCORE.INTRA.VDW>
0

>  <SCORE.INTRA.VDW.0>
0

>  <SCORE.INTRA.norm>
0

>  <SCORE.RESTR>
0

>  <SCORE.RESTR.CAVITY>
0

>  <SCORE.RESTR.norm>
0

>  <SCORE.SYSTEM>
0

>  <SCORE.SYSTEM.CONST>
0

>  <SCORE.SYSTEM.DIHEDRAL>
0

>  <SCORE.SYSTEM.SOLV>
0

>  <SCORE.SYSTEM.norm>
0

>  <SCORE.heavy>
10

>  <SCORE.norm>
-1.25107

>  <RMSD>
2.409

$$$$
ligand
 OpenBabel11021811503D
libRbt.so/2013.1/901 2013/11/27
 10 11  0  0  0  0  0  0  0  0999 V2000
    3.5592  -20.3103   24.6236 N   0  0  0  0  0  0  0  0  0  0  0  0
    2.7203  -20.7668   23.6915 C   0  0  0  0  0  0  0  0  0  0  0  0
    1.4564  -21.1869   23.8271 N   0  0  0  0  0  0  0  0  0  0  0  0
    1.0730  -21.1188   25.1163 C   0  0  0  0  0  0  0  0  0  0  0  0
    1.8236  -20.6729   26.1875 C   0  0  0  0  0  0  0  0  0  0  0  0
    3.1380  -20.2471   25.9112 C   0  0  0  0  0  0  0  0  0  0  0  0
    3.9769  -19.8001   26.8596 N   0  0  0  0  0  0  0  0  0  0  0  0
    1.0983  -20.7378   27.3631 N   0  0  0  0  0  0  0  0  0  0  0  0
   -0.0632  -21.2074   26.9914 C   0  0  0  0  0  0  0  0  0  0  0  0
   -0.1448  -21.4680   25.6493 N   0  0  0  0  0  0  0  0  0  0  0  0
  1  2  2  0  0  0  0
  1  6  1  0  0  0  0
  2  3  1  0  0  0  0
  3  4  2  0  0  0  0
  4  5  1  0  0  0  0
  4 10  1  0  0  0  0
  5  6  2  0  0  0  0
  5  8  1  0  0  0  0
  6  7  1  0  0  0  0
  8  9  1  0  0  0  0
  9 10  2  0  0  0  0
M  END
>  <CHROM.1>
1.87338962,-20.74770431,25.62529605,0.28851828,-0.33775123,-1.73350012

>  <Name>
ligand

>  <RI>
0

>  <Rbt.Current_Directory>
/home/itssahil/PROJECTS/Mol_Feturizer/New_Systems/rnas/4LW0

>  <Rbt.Executable>
rbdock ($Id: //depot/dev/client3/rdock/2013.1/src/exe/rbdock.cxx#4 $)

>  <Rbt.Library>
libRbt.so (2013.1, Build901 2013/11/27)

>  <Rbt.Parameter_File>
/export/apps/rDock/src/rDock_2013.1_src/data/scripts/dock_solv.prm

>  <Rbt.Receptor>
prm/pocket_docking_5.prm

>  <SCORE>
-12.4844

>  <SCORE.INTER>
-12.4844

>  <SCORE.INTER.CONST>
1

>  <SCORE.INTER.POLAR>
0

>  <SCORE.INTER.ROT>
0

>  <SCORE.INTER.SOLV>
5.05794

>  <SCORE.INTER.VDW>
-13.6089

>  <SCORE.INTER.norm>
-1.24844

>  <SCORE.INTRA>
0

>  <SCORE.INTRA.DIHEDRAL>
0

>  <SCORE.INTRA.DIHEDRAL.0>
0

>  <SCORE.INTRA.POLAR>
0

>  <SCORE.INTRA.POLAR.0>
0

>  <SCORE.INTRA.REPUL>
0

>  <SCORE.INTRA.REPUL.0>
0

>  <SCORE.INTRA.SOLV>
0

>  <SCORE.INTRA.SOLV.lig_0>
-23.9151

>  <SCORE.INTRA.VDW>
0

>  <SCORE.INTRA.VDW.0>
0

>  <SCORE.INTRA.norm>
0

>  <SCORE.RESTR>
0

>  <SCORE.RESTR.CAVITY>
0

>  <SCORE.RESTR.norm>
0

>  <SCORE.SYSTEM>
0

>  <SCORE.SYSTEM.CONST>
0

>  <SCORE.SYSTEM.DIHEDRAL>
0

>  <SCORE.SYSTEM.SOLV>
0

>  <SCORE.SYSTEM.norm>
0

>  <SCORE.heavy>
10

>  <SCORE.norm>
-1.24844

>  <RMSD>
2.409

$$$$
ligand
 OpenBabel11021811503D
libRbt.so/2013.1/901 2013/11/27
 10 11  0  0  0  0  0  0  0  0999 V2000
    3.5233  -20.3552   24.5845 N   0  0  0  0  0  0  0  0  0  0  0  0
    2.6389  -20.7796   23.6797 C   0  0  0  0  0  0  0  0  0  0  0  0
    1.3760  -21.1857   23.8604 N   0  0  0  0  0  0  0  0  0  0  0  0
    1.0490  -21.1412   25.1661 C   0  0  0  0  0  0  0  0  0  0  0  0
    1.8511  -20.7295   26.2134 C   0  0  0  0  0  0  0  0  0  0  0  0
    3.1584  -20.3152   25.8901 C   0  0  0  0  0  0  0  0  0  0  0  0
    4.0434  -19.9007   26.8110 N   0  0  0  0  0  0  0  0  0  0  0  0
    1.1758  -20.8109   27.4175 N   0  0  0  0  0  0  0  0  0  0  0  0
   -0.0071  -21.2565   27.0860 C   0  0  0  0  0  0  0  0  0  0  0  0
   -0.1497  -21.4860   25.7433 N   0  0  0  0  0  0  0  0  0  0  0  0
  1  2  2  0  0  0  0
  1  6  1  0  0  0  0
  2  3  1  0  0  0  0
  3  4  2  0  0  0  0
  4  5  1  0  0  0  0
  4 10  1  0  0  0  0
  5  6  2  0  0  0  0
  5  8  1  0  0  0  0
  6  7  1  0  0  0  0
  8  9  1  0  0  0  0
  9 10  2  0  0  0  0
M  END
>  <CHROM.1>
1.87571817,-20.79234412,25.64813674,0.33556942,-0.33020980,-1.69602381

>  <Name>
ligand

>  <RI>
0

>  <Rbt.Current_Directory>
/home/itssahil/PROJECTS/Mol_Feturizer/New_Systems/rnas/4LW0

>  <Rbt.Executable>
rbdock ($Id: //depot/dev/client3/rdock/2013.1/src/exe/rbdock.cxx#4 $)

>  <Rbt.Library>
libRbt.so (2013.1, Build901 2013/11/27)

>  <Rbt.Parameter_File>
/export/apps/rDock/src/rDock_2013.1_src/data/scripts/dock_solv.prm

>  <Rbt.Receptor>
prm/pocket_docking_6.prm

>  <SCORE>
-12.475

>  <SCORE.INTER>
-12.475

>  <SCORE.INTER.CONST>
1

>  <SCORE.INTER.POLAR>
0

>  <SCORE.INTER.ROT>
0

>  <SCORE.INTER.SOLV>
4.72361

>  <SCORE.INTER.VDW>
-13.4912

>  <SCORE.INTER.norm>
-1.2475

>  <SCORE.INTRA>
0

>  <SCORE.INTRA.DIHEDRAL>
0

>  <SCORE.INTRA.DIHEDRAL.0>
0

>  <SCORE.INTRA.POLAR>
0

>  <SCORE.INTRA.POLAR.0>
0

>  <SCORE.INTRA.REPUL>
0

>  <SCORE.INTRA.REPUL.0>
0

>  <SCORE.INTRA.SOLV>
0

>  <SCORE.INTRA.SOLV.lig_0>
-23.9151

>  <SCORE.INTRA.VDW>
0

>  <SCORE.INTRA.VDW.0>
0

>  <SCORE.INTRA.norm>
0

>  <SCORE.RESTR>
0

>  <SCORE.RESTR.CAVITY>
0

>  <SCORE.RESTR.norm>
0

>  <SCORE.SYSTEM>
0

>  <SCORE.SYSTEM.CONST>
0

>  <SCORE.SYSTEM.DIHEDRAL>
0

>  <SCORE.SYSTEM.SOLV>
0

>  <SCORE.SYSTEM.norm>
0

>  <SCORE.heavy>
10

>  <SCORE.norm>
-1.2475

>  <RMSD>
2.409

$$$$
ligand
 OpenBabel11021811503D
libRbt.so/2013.1/901 2013/11/27
 10 11  0  0  0  0  0  0  0  0999 V2000
    3.5108  -20.3493   24.5716 N   0  0  0  0  0  0  0  0  0  0  0  0
    2.6254  -20.7733   23.6675 C   0  0  0  0  0  0  0  0  0  0  0  0
    1.3627  -21.1793   23.8493 N   0  0  0  0  0  0  0  0  0  0  0  0
    1.0369  -21.1352   25.1553 C   0  0  0  0  0  0  0  0  0  0  0  0
    1.8400  -20.7239   26.2020 C   0  0  0  0  0  0  0  0  0  0  0  0
    3.1472  -20.3096   25.8776 C   0  0  0  0  0  0  0  0  0  0  0  0
    4.0330  -19.8956   26.7978 N   0  0  0  0  0  0  0  0  0  0  0  0
    1.1659  -20.8056   27.4067 N   0  0  0  0  0  0  0  0  0  0  0  0
   -0.0174  -21.2509   27.0762 C   0  0  0  0  0  0  0  0  0  0  0  0
   -0.1613  -21.4799   25.7335 N   0  0  0  0  0  0  0  0  0  0  0  0
  1  2  2  0  0  0  0
  1  6  1  0  0  0  0
  2  3  1  0  0  0  0
  3  4  2  0  0  0  0
  4  5  1  0  0  0  0
  4 10  1  0  0  0  0
  5  6  2  0  0  0  0
  5  8  1  0  0  0  0
  6  7  1  0  0  0  0
  8  9  1  0  0  0  0
  9 10  2  0  0  0  0
M  END
>  <CHROM.1>
1.86413368,-20.78653715,25.63667301,0.33658795,-0.33017879,-1.69538472

>  <Name>
ligand

>  <RI>
0

>  <Rbt.Current_Directory>
/home/itssahil/PROJECTS/Mol_Feturizer/New_Systems/rnas/4LW0

>  <Rbt.Executable>
rbdock ($Id: //depot/dev/client3/rdock/2013.1/src/exe/rbdock.cxx#4 $)

>  <Rbt.Library>
libRbt.so (2013.1, Build901 2013/11/27)

>  <Rbt.Parameter_File>
/export/apps/rDock/src/rDock_2013.1_src/data/scripts/dock_solv.prm

>  <Rbt.Receptor>
prm/pocket_docking_8.prm

>  <SCORE>
-12.4812

>  <SCORE.INTER>
-12.4812

>  <SCORE.INTER.CONST>
1

>  <SCORE.INTER.POLAR>
0

>  <SCORE.INTER.ROT>
0

>  <SCORE.INTER.SOLV>
4.70965

>  <SCORE.INTER.VDW>
-13.4907

>  <SCORE.INTER.norm>
-1.24812

>  <SCORE.INTRA>
0

>  <SCORE.INTRA.DIHEDRAL>
0

>  <SCORE.INTRA.DIHEDRAL.0>
0

>  <SCORE.INTRA.POLAR>
0

>  <SCORE.INTRA.POLAR.0>
0

>  <SCORE.INTRA.REPUL>
0

>  <SCORE.INTRA.REPUL.0>
0

>  <SCORE.INTRA.SOLV>
0

>  <SCORE.INTRA.SOLV.lig_0>
-23.9151

>  <SCORE.INTRA.VDW>
0

>  <SCORE.INTRA.VDW.0>
0

>  <SCORE.INTRA.norm>
0

>  <SCORE.RESTR>
0

>  <SCORE.RESTR.CAVITY>
0

>  <SCORE.RESTR.norm>
0

>  <SCORE.SYSTEM>
0

>  <SCORE.SYSTEM.CONST>
0

>  <SCORE.SYSTEM.DIHEDRAL>
0

>  <SCORE.SYSTEM.SOLV>
0

>  <SCORE.SYSTEM.norm>
0

>  <SCORE.heavy>
10

>  <SCORE.norm>
-1.24812

>  <RMSD>
2.409

$$$$
ligand
 OpenBabel11021811503D
libRbt.so/2013.1/901 2013/11/27
 10 11  0  0  0  0  0  0  0  0999 V2000
    3.5260  -20.3176   24.5713 N   0  0  0  0  0  0  0  0  0  0  0  0
    2.6581  -20.7831   23.6707 C   0  0  0  0  0  0  0  0  0  0  0  0
    1.4012  -21.2072   23.8513 N   0  0  0  0  0  0  0  0  0  0  0  0
    1.0610  -21.1325   25.1522 C   0  0  0  0  0  0  0  0  0  0  0  0
    1.8453  -20.6772   26.1949 C   0  0  0  0  0  0  0  0  0  0  0  0
    3.1480  -20.2481   25.8720 C   0  0  0  0  0  0  0  0  0  0  0  0
    4.0165  -19.7920   26.7889 N   0  0  0  0  0  0  0  0  0  0  0  0
    1.1602  -20.7375   27.3946 N   0  0  0  0  0  0  0  0  0  0  0  0
   -0.0113  -21.2138   27.0650 C   0  0  0  0  0  0  0  0  0  0  0  0
   -0.1368  -21.4831   25.7280 N   0  0  0  0  0  0  0  0  0  0  0  0
  1  2  2  0  0  0  0
  1  6  1  0  0  0  0
  2  3  1  0  0  0  0
  3  4  2  0  0  0  0
  4  5  1  0  0  0  0
  4 10  1  0  0  0  0
  5  6  2  0  0  0  0
  5  8  1  0  0  0  0
  6  7  1  0  0  0  0
  8  9  1  0  0  0  0
  9 10  2  0  0  0  0
M  END
>  <CHROM.1>
1.87652942,-20.75523246,25.63179630,0.32308015,-0.34696770,-1.72802666

>  <Name>
ligand

>  <RI>
0

>  <Rbt.Current_Directory>
/home/itssahil/PROJECTS/Mol_Feturizer/New_Systems/rnas/4LW0

>  <Rbt.Executable>
rbdock ($Id: //depot/dev/client3/rdock/2013.1/src/exe/rbdock.cxx#4 $)

>  <Rbt.Library>
libRbt.so (2013.1, Build901 2013/11/27)

>  <Rbt.Parameter_File>
/export/apps/rDock/src/rDock_2013.1_src/data/scripts/dock_solv.prm

>  <Rbt.Receptor>
prm/pocket_docking_3.prm

>  <SCORE>
-12.5089

>  <SCORE.INTER>
-12.5089

>  <SCORE.INTER.CONST>
1

>  <SCORE.INTER.POLAR>
0

>  <SCORE.INTER.ROT>
0

>  <SCORE.INTER.SOLV>
4.81939

>  <SCORE.INTER.VDW>
-13.5457

>  <SCORE.INTER.norm>
-1.25089

>  <SCORE.INTRA>
0

>  <SCORE.INTRA.DIHEDRAL>
0

>  <SCORE.INTRA.DIHEDRAL.0>
0

>  <SCORE.INTRA.POLAR>
0

>  <SCORE.INTRA.POLAR.0>
0

>  <SCORE.INTRA.REPUL>
0

>  <SCORE.INTRA.REPUL.0>
0

>  <SCORE.INTRA.SOLV>
0

>  <SCORE.INTRA.SOLV.lig_0>
-23.9151

>  <SCORE.INTRA.VDW>
0

>  <SCORE.INTRA.VDW.0>
0

>  <SCORE.INTRA.norm>
0

>  <SCORE.RESTR>
0

>  <SCORE.RESTR.CAVITY>
0

>  <SCORE.RESTR.norm>
0

>  <SCORE.SYSTEM>
0

>  <SCORE.SYSTEM.CONST>
0

>  <SCORE.SYSTEM.DIHEDRAL>
0

>  <SCORE.SYSTEM.SOLV>
0

>  <SCORE.SYSTEM.norm>
0

>  <SCORE.heavy>
10

>  <SCORE.norm>
-1.25089

>  <RMSD>
2.410

$$$$
ligand
 OpenBabel11021811503D
libRbt.so/2013.1/901 2013/11/27
 10 11  0  0  0  0  0  0  0  0999 V2000
    3.5259  -20.3057   24.6132 N   0  0  0  0  0  0  0  0  0  0  0  0
    2.6646  -20.7614   23.7013 C   0  0  0  0  0  0  0  0  0  0  0  0
    1.4061  -21.1864   23.8680 N   0  0  0  0  0  0  0  0  0  0  0  0
    1.0561  -21.1248   25.1670 C   0  0  0  0  0  0  0  0  0  0  0  0
    1.8328  -20.6807   26.2201 C   0  0  0  0  0  0  0  0  0  0  0  0
    3.1381  -20.2491   25.9115 C   0  0  0  0  0  0  0  0  0  0  0  0
    3.9999  -19.8030   26.8396 N   0  0  0  0  0  0  0  0  0  0  0  0
    1.1386  -20.7528   27.4140 N   0  0  0  0  0  0  0  0  0  0  0  0
   -0.0307  -21.2249   27.0706 C   0  0  0  0  0  0  0  0  0  0  0  0
   -0.1462  -21.4805   25.7300 N   0  0  0  0  0  0  0  0  0  0  0  0
  1  2  2  0  0  0  0
  1  6  1  0  0  0  0
  2  3  1  0  0  0  0
  3  4  2  0  0  0  0
  4  5  1  0  0  0  0
  4 10  1  0  0  0  0
  5  6  2  0  0  0  0
  5  8  1  0  0  0  0
  6  7  1  0  0  0  0
  8  9  1  0  0  0  0
  9 10  2  0  0  0  0
M  END
>  <CHROM.1>
1.86821234,-20.75300130,25.65656168,0.31520678,-0.34518802,-1.72049088

>  <Name>
ligand

>  <RI>
0

>  <Rbt.Current_Directory>
/home/itssahil/PROJECTS/Mol_Feturizer/New_Systems/rnas/4LW0

>  <Rbt.Executable>
rbdock ($Id: //depot/dev/client3/rdock/2013.1/src/exe/rbdock.cxx#4 $)

>  <Rbt.Library>
libRbt.so (2013.1, Build901 2013/11/27)

>  <Rbt.Parameter_File>
/export/apps/rDock/src/rDock_2013.1_src/data/scripts/dock_solv.prm

>  <Rbt.Receptor>
prm/pocket_docking_4.prm

>  <SCORE>
-12.5047

>  <SCORE.INTER>
-12.5047

>  <SCORE.INTER.CONST>
1

>  <SCORE.INTER.POLAR>
0

>  <SCORE.INTER.ROT>
0

>  <SCORE.INTER.SOLV>
4.98287

>  <SCORE.INTER.VDW>
-13.5974

>  <SCORE.INTER.norm>
-1.25047

>  <SCORE.INTRA>
0

>  <SCORE.INTRA.DIHEDRAL>
0

>  <SCORE.INTRA.DIHEDRAL.0>
0

>  <SCORE.INTRA.POLAR>
0

>  <SCORE.INTRA.POLAR.0>
0

>  <SCORE.INTRA.REPUL>
0

>  <SCORE.INTRA.REPUL.0>
0

>  <SCORE.INTRA.SOLV>
0

>  <SCORE.INTRA.SOLV.lig_0>
-23.9151

>  <SCORE.INTRA.VDW>
0

>  <SCORE.INTRA.VDW.0>
0

>  <SCORE.INTRA.norm>
0

>  <SCORE.RESTR>
0

>  <SCORE.RESTR.CAVITY>
0

>  <SCORE.RESTR.norm>
0

>  <SCORE.SYSTEM>
0

>  <SCORE.SYSTEM.CONST>
0

>  <SCORE.SYSTEM.DIHEDRAL>
0

>  <SCORE.SYSTEM.SOLV>
0

>  <SCORE.SYSTEM.norm>
0

>  <SCORE.heavy>
10

>  <SCORE.norm>
-1.25047

>  <RMSD>
2.410

$$$$
ligand
 OpenBabel11021811503D
libRbt.so/2013.1/901 2013/11/27
 10 11  0  0  0  0  0  0  0  0999 V2000
    3.5179  -20.2981   24.6067 N   0  0  0  0  0  0  0  0  0  0  0  0
    2.6579  -20.7429   23.6882 C   0  0  0  0  0  0  0  0  0  0  0  0
    1.3995  -21.1709   23.8481 N   0  0  0  0  0  0  0  0  0  0  0  0
    1.0480  -21.1259   25.1474 C   0  0  0  0  0  0  0  0  0  0  0  0
    1.8232  -20.6944   26.2069 C   0  0  0  0  0  0  0  0  0  0  0  0
    3.1286  -20.2582   25.9052 C   0  0  0  0  0  0  0  0  0  0  0  0
    3.9890  -19.8231   26.8398 N   0  0  0  0  0  0  0  0  0  0  0  0
    1.1277  -20.7821   27.3990 N   0  0  0  0  0  0  0  0  0  0  0  0
   -0.0408  -21.2506   27.0484 C   0  0  0  0  0  0  0  0  0  0  0  0
   -0.1547  -21.4894   25.7045 N   0  0  0  0  0  0  0  0  0  0  0  0
  1  2  2  0  0  0  0
  1  6  1  0  0  0  0
  2  3  1  0  0  0  0
  3  4  2  0  0  0  0
  4  5  1  0  0  0  0
  4 10  1  0  0  0  0
  5  6  2  0  0  0  0
  5  8  1  0  0  0  0
  6  7  1  0  0  0  0
  8  9  1  0  0  0  0
  9 10  2  0  0  0  0
M  END
>  <CHROM.1>
1.85932286,-20.75967254,25.64249160,0.31392717,-0.34572440,-1.70836209

>  <Name>
ligand

>  <RI>
0

>  <Rbt.Current_Directory>
/home/itssahil/PROJECTS/Mol_Feturizer/New_Systems/rnas/4LW0

>  <Rbt.Executable>
rbdock ($Id: //depot/dev/client3/rdock/2013.1/src/exe/rbdock.cxx#4 $)

>  <Rbt.Library>
libRbt.so (2013.1, Build901 2013/11/27)

>  <Rbt.Parameter_File>
/export/apps/rDock/src/rDock_2013.1_src/data/scripts/dock_solv.prm

>  <Rbt.Receptor>
prm/pocket_docking_5.prm

>  <SCORE>
-12.4828

>  <SCORE.INTER>
-12.4828

>  <SCORE.INTER.CONST>
1

>  <SCORE.INTER.POLAR>
0

>  <SCORE.INTER.ROT>
0

>  <SCORE.INTER.SOLV>
4.99022

>  <SCORE.INTER.VDW>
-13.5852

>  <SCORE.INTER.norm>
-1.24828

>  <SCORE.INTRA>
0

>  <SCORE.INTRA.DIHEDRAL>
0

>  <SCORE.INTRA.DIHEDRAL.0>
0

>  <SCORE.INTRA.POLAR>
0

>  <SCORE.INTRA.POLAR.0>
0

>  <SCORE.INTRA.REPUL>
0

>  <SCORE.INTRA.REPUL.0>
0

>  <SCORE.INTRA.SOLV>
0

>  <SCORE.INTRA.SOLV.lig_0>
-23.9151

>  <SCORE.INTRA.VDW>
0

>  <SCORE.INTRA.VDW.0>
0

>  <SCORE.INTRA.norm>
0

>  <SCORE.RESTR>
0

>  <SCORE.RESTR.CAVITY>
0

>  <SCORE.RESTR.norm>
0

>  <SCORE.SYSTEM>
0

>  <SCORE.SYSTEM.CONST>
0

>  <SCORE.SYSTEM.DIHEDRAL>
0

>  <SCORE.SYSTEM.SOLV>
0

>  <SCORE.SYSTEM.norm>
0

>  <SCORE.heavy>
10

>  <SCORE.norm>
-1.24828

>  <RMSD>
2.410

$$$$
ligand
 OpenBabel11021811503D
libRbt.so/2013.1/901 2013/11/27
 10 11  0  0  0  0  0  0  0  0999 V2000
    3.5644  -20.3345   24.6217 N   0  0  0  0  0  0  0  0  0  0  0  0
    2.7336  -20.7789   23.6765 C   0  0  0  0  0  0  0  0  0  0  0  0
    1.4649  -21.1899   23.7939 N   0  0  0  0  0  0  0  0  0  0  0  0
    1.0660  -21.1264   25.0786 C   0  0  0  0  0  0  0  0  0  0  0  0
    1.8066  -20.6928   26.1617 C   0  0  0  0  0  0  0  0  0  0  0  0
    3.1277  -20.2757   25.9043 C   0  0  0  0  0  0  0  0  0  0  0  0
    3.9581  -19.8409   26.8657 N   0  0  0  0  0  0  0  0  0  0  0  0
    1.0663  -20.7589   27.3278 N   0  0  0  0  0  0  0  0  0  0  0  0
   -0.0942  -21.2171   26.9389 C   0  0  0  0  0  0  0  0  0  0  0  0
   -0.1611  -21.4692   25.5943 N   0  0  0  0  0  0  0  0  0  0  0  0
  1  2  2  0  0  0  0
  1  6  1  0  0  0  0
  2  3  1  0  0  0  0
  3  4  2  0  0  0  0
  4  5  1  0  0  0  0
  4 10  1  0  0  0  0
  5  6  2  0  0  0  0
  5  8  1  0  0  0  0
  6  7  1  0  0  0  0
  8  9  1  0  0  0  0
  9 10  2  0  0  0  0
M  END
>  <CHROM.1>
1.86284322,-20.76459435,25.59972350,0.27686306,-0.32801907,-1.73134209

>  <Name>
ligand

>  <RI>
0

>  <Rbt.Current_Directory>
/home/itssahil/PROJECTS/Mol_Feturizer/New_Systems/rnas/4LW0

>  <Rbt.Executable>
rbdock ($Id: //depot/dev/client3/rdock/2013.1/src/exe/rbdock.cxx#4 $)

>  <Rbt.Library>
libRbt.so (2013.1, Build901 2013/11/27)

>  <Rbt.Parameter_File>
/export/apps/rDock/src/rDock_2013.1_src/data/scripts/dock_solv.prm

>  <Rbt.Receptor>
prm/pocket_docking_5.prm

>  <SCORE>
-12.4539

>  <SCORE.INTER>
-12.4539

>  <SCORE.INTER.CONST>
1

>  <SCORE.INTER.POLAR>
0

>  <SCORE.INTER.ROT>
0

>  <SCORE.INTER.SOLV>
5.03227

>  <SCORE.INTER.VDW>
-13.58

>  <SCORE.INTER.norm>
-1.24539

>  <SCORE.INTRA>
0

>  <SCORE.INTRA.DIHEDRAL>
0

>  <SCORE.INTRA.DIHEDRAL.0>
0

>  <SCORE.INTRA.POLAR>
0

>  <SCORE.INTRA.POLAR.0>
0

>  <SCORE.INTRA.REPUL>
0

>  <SCORE.INTRA.REPUL.0>
0

>  <SCORE.INTRA.SOLV>
0

>  <SCORE.INTRA.SOLV.lig_0>
-23.9151

>  <SCORE.INTRA.VDW>
0

>  <SCORE.INTRA.VDW.0>
0

>  <SCORE.INTRA.norm>
0

>  <SCORE.RESTR>
0

>  <SCORE.RESTR.CAVITY>
0

>  <SCORE.RESTR.norm>
0

>  <SCORE.SYSTEM>
0

>  <SCORE.SYSTEM.CONST>
0

>  <SCORE.SYSTEM.DIHEDRAL>
0

>  <SCORE.SYSTEM.SOLV>
0

>  <SCORE.SYSTEM.norm>
0

>  <SCORE.heavy>
10

>  <SCORE.norm>
-1.24539

>  <RMSD>
2.410

$$$$
ligand
 OpenBabel11021811503D
libRbt.so/2013.1/901 2013/11/27
 10 11  0  0  0  0  0  0  0  0999 V2000
    3.5329  -20.3069   24.6142 N   0  0  0  0  0  0  0  0  0  0  0  0
    2.6780  -20.7568   23.6935 C   0  0  0  0  0  0  0  0  0  0  0  0
    1.4195  -21.1861   23.8491 N   0  0  0  0  0  0  0  0  0  0  0  0
    1.0617  -21.1362   25.1465 C   0  0  0  0  0  0  0  0  0  0  0  0
    1.8312  -20.6991   26.2079 C   0  0  0  0  0  0  0  0  0  0  0  0
    3.1373  -20.2621   25.9107 C   0  0  0  0  0  0  0  0  0  0  0  0
    3.9926  -19.8219   26.8475 N   0  0  0  0  0  0  0  0  0  0  0  0
    1.1301  -20.7829   27.3970 N   0  0  0  0  0  0  0  0  0  0  0  0
   -0.0360  -21.2547   27.0427 C   0  0  0  0  0  0  0  0  0  0  0  0
   -0.1431  -21.4992   25.6994 N   0  0  0  0  0  0  0  0  0  0  0  0
  1  2  2  0  0  0  0
  1  6  1  0  0  0  0
  2  3  1  0  0  0  0
  3  4  2  0  0  0  0
  4  5  1  0  0  0  0
  4 10  1  0  0  0  0
  5  6  2  0  0  0  0
  5  8  1  0  0  0  0
  6  7  1  0  0  0  0
  8  9  1  0  0  0  0
  9 10  2  0  0  0  0
M  END
>  <CHROM.1>
1.87009714,-20.76666473,25.64396185,0.30864745,-0.34655725,-1.71431919

>  <Name>
ligand

>  <RI>
0

>  <Rbt.Current_Directory>
/home/itssahil/PROJECTS/Mol_Feturizer/New_Systems/rnas/4LW0

>  <Rbt.Executable>
rbdock ($Id: //depot/dev/client3/rdock/2013.1/src/exe/rbdock.cxx#4 $)

>  <Rbt.Library>
libRbt.so (2013.1, Build901 2013/11/27)

>  <Rbt.Parameter_File>
/export/apps/rDock/src/rDock_2013.1_src/data/scripts/dock_solv.prm

>  <Rbt.Receptor>
prm/pocket_docking_5.prm

>  <SCORE>
-12.4925

>  <SCORE.INTER>
-12.4925

>  <SCORE.INTER.CONST>
1

>  <SCORE.INTER.POLAR>
0

>  <SCORE.INTER.ROT>
0

>  <SCORE.INTER.SOLV>
4.99763

>  <SCORE.INTER.VDW>
-13.5942

>  <SCORE.INTER.norm>
-1.24925

>  <SCORE.INTRA>
0

>  <SCORE.INTRA.DIHEDRAL>
0

>  <SCORE.INTRA.DIHEDRAL.0>
0

>  <SCORE.INTRA.POLAR>
0

>  <SCORE.INTRA.POLAR.0>
0

>  <SCORE.INTRA.REPUL>
0

>  <SCORE.INTRA.REPUL.0>
0

>  <SCORE.INTRA.SOLV>
0

>  <SCORE.INTRA.SOLV.lig_0>
-23.9151

>  <SCORE.INTRA.VDW>
0

>  <SCORE.INTRA.VDW.0>
0

>  <SCORE.INTRA.norm>
0

>  <SCORE.RESTR>
0

>  <SCORE.RESTR.CAVITY>
0

>  <SCORE.RESTR.norm>
0

>  <SCORE.SYSTEM>
0

>  <SCORE.SYSTEM.CONST>
0

>  <SCORE.SYSTEM.DIHEDRAL>
0

>  <SCORE.SYSTEM.SOLV>
0

>  <SCORE.SYSTEM.norm>
0

>  <SCORE.heavy>
10

>  <SCORE.norm>
-1.24925

>  <RMSD>
2.410

$$$$
ligand
 OpenBabel11021811503D
libRbt.so/2013.1/901 2013/11/27
 10 11  0  0  0  0  0  0  0  0999 V2000
    3.5319  -20.2976   24.6124 N   0  0  0  0  0  0  0  0  0  0  0  0
    2.6775  -20.7556   23.6952 C   0  0  0  0  0  0  0  0  0  0  0  0
    1.4190  -21.1838   23.8540 N   0  0  0  0  0  0  0  0  0  0  0  0
    1.0606  -21.1230   25.1507 C   0  0  0  0  0  0  0  0  0  0  0  0
    1.8295  -20.6768   26.2087 C   0  0  0  0  0  0  0  0  0  0  0  0
    3.1357  -20.2420   25.9083 C   0  0  0  0  0  0  0  0  0  0  0  0
    3.9905  -19.7936   26.8418 N   0  0  0  0  0  0  0  0  0  0  0  0
    1.1280  -20.7506   27.3981 N   0  0  0  0  0  0  0  0  0  0  0  0
   -0.0379  -21.2256   27.0474 C   0  0  0  0  0  0  0  0  0  0  0  0
   -0.1443  -21.4816   25.7062 N   0  0  0  0  0  0  0  0  0  0  0  0
  1  2  2  0  0  0  0
  1  6  1  0  0  0  0
  2  3  1  0  0  0  0
  3  4  2  0  0  0  0
  4  5  1  0  0  0  0
  4 10  1  0  0  0  0
  5  6  2  0  0  0  0
  5  8  1  0  0  0  0
  6  7  1  0  0  0  0
  8  9  1  0  0  0  0
  9 10  2  0  0  0  0
M  END
>  <CHROM.1>
1.86869965,-20.74904554,25.64536468,0.30816929,-0.34672432,-1.72297223

>  <Name>
ligand

>  <RI>
0

>  <Rbt.Current_Directory>
/home/itssahil/PROJECTS/Mol_Feturizer/New_Systems/rnas/4LW0

>  <Rbt.Executable>
rbdock ($Id: //depot/dev/client3/rdock/2013.1/src/exe/rbdock.cxx#4 $)

>  <Rbt.Library>
libRbt.so (2013.1, Build901 2013/11/27)

>  <Rbt.Parameter_File>
/export/apps/rDock/src/rDock_2013.1_src/data/scripts/dock_solv.prm

>  <Rbt.Receptor>
prm/pocket_docking_5.prm

>  <SCORE>
-12.4828

>  <SCORE.INTER>
-12.4828

>  <SCORE.INTER.CONST>
1

>  <SCORE.INTER.POLAR>
0

>  <SCORE.INTER.ROT>
0

>  <SCORE.INTER.SOLV>
5.01436

>  <SCORE.INTER.VDW>
-13.5933

>  <SCORE.INTER.norm>
-1.24828

>  <SCORE.INTRA>
0

>  <SCORE.INTRA.DIHEDRAL>
0

>  <SCORE.INTRA.DIHEDRAL.0>
0

>  <SCORE.INTRA.POLAR>
0

>  <SCORE.INTRA.POLAR.0>
0

>  <SCORE.INTRA.REPUL>
0

>  <SCORE.INTRA.REPUL.0>
0

>  <SCORE.INTRA.SOLV>
0

>  <SCORE.INTRA.SOLV.lig_0>
-23.9151

>  <SCORE.INTRA.VDW>
0

>  <SCORE.INTRA.VDW.0>
0

>  <SCORE.INTRA.norm>
0

>  <SCORE.RESTR>
0

>  <SCORE.RESTR.CAVITY>
0

>  <SCORE.RESTR.norm>
0

>  <SCORE.SYSTEM>
0

>  <SCORE.SYSTEM.CONST>
0

>  <SCORE.SYSTEM.DIHEDRAL>
0

>  <SCORE.SYSTEM.SOLV>
0

>  <SCORE.SYSTEM.norm>
0

>  <SCORE.heavy>
10

>  <SCORE.norm>
-1.24828

>  <RMSD>
2.410

$$$$
ligand
 OpenBabel11021811503D
libRbt.so/2013.1/901 2013/11/27
 10 11  0  0  0  0  0  0  0  0999 V2000
    3.5575  -20.3417   24.6203 N   0  0  0  0  0  0  0  0  0  0  0  0
    2.7202  -20.7723   23.6745 C   0  0  0  0  0  0  0  0  0  0  0  0
    1.4495  -21.1766   23.7933 N   0  0  0  0  0  0  0  0  0  0  0  0
    1.0561  -21.1225   25.0802 C   0  0  0  0  0  0  0  0  0  0  0  0
    1.8038  -20.7035   26.1642 C   0  0  0  0  0  0  0  0  0  0  0  0
    3.1264  -20.2921   25.9052 C   0  0  0  0  0  0  0  0  0  0  0  0
    3.9634  -19.8713   26.8672 N   0  0  0  0  0  0  0  0  0  0  0  0
    1.0678  -20.7759   27.3327 N   0  0  0  0  0  0  0  0  0  0  0  0
   -0.0970  -21.2234   26.9443 C   0  0  0  0  0  0  0  0  0  0  0  0
   -0.1709  -21.4626   25.5978 N   0  0  0  0  0  0  0  0  0  0  0  0
  1  2  2  0  0  0  0
  1  6  1  0  0  0  0
  2  3  1  0  0  0  0
  3  4  2  0  0  0  0
  4  5  1  0  0  0  0
  4 10  1  0  0  0  0
  5  6  2  0  0  0  0
  5  8  1  0  0  0  0
  6  7  1  0  0  0  0
  8  9  1  0  0  0  0
  9 10  2  0  0  0  0
M  END
>  <CHROM.1>
1.85734008,-20.77046587,25.60137409,0.28212742,-0.32260469,-1.72040125

>  <Name>
ligand

>  <RI>
0

>  <Rbt.Current_Directory>
/home/itssahil/PROJECTS/Mol_Feturizer/New_Systems/rnas/4LW0

>  <Rbt.Executable>
rbdock ($Id: //depot/dev/client3/rdock/2013.1/src/exe/rbdock.cxx#4 $)

>  <Rbt.Library>
libRbt.so (2013.1, Build901 2013/11/27)

>  <Rbt.Parameter_File>
/export/apps/rDock/src/rDock_2013.1_src/data/scripts/dock_solv.prm

>  <Rbt.Receptor>
prm/pocket_docking_6.prm

>  <SCORE>
-12.454

>  <SCORE.INTER>
-12.454

>  <SCORE.INTER.CONST>
1

>  <SCORE.INTER.POLAR>
0

>  <SCORE.INTER.ROT>
0

>  <SCORE.INTER.SOLV>
5.00207

>  <SCORE.INTER.VDW>
-13.57

>  <SCORE.INTER.norm>
-1.2454

>  <SCORE.INTRA>
0

>  <SCORE.INTRA.DIHEDRAL>
0

>  <SCORE.INTRA.DIHEDRAL.0>
0

>  <SCORE.INTRA.POLAR>
0

>  <SCORE.INTRA.POLAR.0>
0

>  <SCORE.INTRA.REPUL>
0

>  <SCORE.INTRA.REPUL.0>
0

>  <SCORE.INTRA.SOLV>
0

>  <SCORE.INTRA.SOLV.lig_0>
-23.9151

>  <SCORE.INTRA.VDW>
0

>  <SCORE.INTRA.VDW.0>
0

>  <SCORE.INTRA.norm>
0

>  <SCORE.RESTR>
0

>  <SCORE.RESTR.CAVITY>
0

>  <SCORE.RESTR.norm>
0

>  <SCORE.SYSTEM>
0

>  <SCORE.SYSTEM.CONST>
0

>  <SCORE.SYSTEM.DIHEDRAL>
0

>  <SCORE.SYSTEM.SOLV>
0

>  <SCORE.SYSTEM.norm>
0

>  <SCORE.heavy>
10

>  <SCORE.norm>
-1.2454

>  <RMSD>
2.410

$$$$
ligand
 OpenBabel11021811503D
libRbt.so/2013.1/901 2013/11/27
 10 11  0  0  0  0  0  0  0  0999 V2000
    3.5214  -20.2974   24.6097 N   0  0  0  0  0  0  0  0  0  0  0  0
    2.6594  -20.7538   23.6989 C   0  0  0  0  0  0  0  0  0  0  0  0
    1.4028  -21.1837   23.8676 N   0  0  0  0  0  0  0  0  0  0  0  0
    1.0558  -21.1264   25.1676 C   0  0  0  0  0  0  0  0  0  0  0  0
    1.8335  -20.6822   26.2199 C   0  0  0  0  0  0  0  0  0  0  0  0
    3.1366  -20.2454   25.9092 C   0  0  0  0  0  0  0  0  0  0  0  0
    3.9991  -19.7986   26.8363 N   0  0  0  0  0  0  0  0  0  0  0  0
    1.1425  -20.7596   27.4153 N   0  0  0  0  0  0  0  0  0  0  0  0
   -0.0260  -21.2349   27.0736 C   0  0  0  0  0  0  0  0  0  0  0  0
   -0.1440  -21.4876   25.7327 N   0  0  0  0  0  0  0  0  0  0  0  0
  1  2  2  0  0  0  0
  1  6  1  0  0  0  0
  2  3  1  0  0  0  0
  3  4  2  0  0  0  0
  4  5  1  0  0  0  0
  4 10  1  0  0  0  0
  5  6  2  0  0  0  0
  5  8  1  0  0  0  0
  6  7  1  0  0  0  0
  8  9  1  0  0  0  0
  9 10  2  0  0  0  0
M  END
>  <CHROM.1>
1.86780326,-20.75301119,25.65607479,0.31724216,-0.34895414,-1.71735067

>  <Name>
ligand

>  <RI>
0

>  <Rbt.Current_Directory>
/home/itssahil/PROJECTS/Mol_Feturizer/New_Systems/rnas/4LW0

>  <Rbt.Executable>
rbdock ($Id: //depot/dev/client3/rdock/2013.1/src/exe/rbdock.cxx#4 $)

>  <Rbt.Library>
libRbt.so (2013.1, Build901 2013/11/27)

>  <Rbt.Parameter_File>
/export/apps/rDock/src/rDock_2013.1_src/data/scripts/dock_solv.prm

>  <Rbt.Receptor>
prm/pocket_docking_6.prm

>  <SCORE>
-12.5044

>  <SCORE.INTER>
-12.5044

>  <SCORE.INTER.CONST>
1

>  <SCORE.INTER.POLAR>
0

>  <SCORE.INTER.ROT>
0

>  <SCORE.INTER.SOLV>
4.98743

>  <SCORE.INTER.VDW>
-13.5987

>  <SCORE.INTER.norm>
-1.25044

>  <SCORE.INTRA>
0

>  <SCORE.INTRA.DIHEDRAL>
0

>  <SCORE.INTRA.DIHEDRAL.0>
0

>  <SCORE.INTRA.POLAR>
0

>  <SCORE.INTRA.POLAR.0>
0

>  <SCORE.INTRA.REPUL>
0

>  <SCORE.INTRA.REPUL.0>
0

>  <SCORE.INTRA.SOLV>
0

>  <SCORE.INTRA.SOLV.lig_0>
-23.9151

>  <SCORE.INTRA.VDW>
0

>  <SCORE.INTRA.VDW.0>
0

>  <SCORE.INTRA.norm>
0

>  <SCORE.RESTR>
0

>  <SCORE.RESTR.CAVITY>
0

>  <SCORE.RESTR.norm>
0

>  <SCORE.SYSTEM>
0

>  <SCORE.SYSTEM.CONST>
0

>  <SCORE.SYSTEM.DIHEDRAL>
0

>  <SCORE.SYSTEM.SOLV>
0

>  <SCORE.SYSTEM.norm>
0

>  <SCORE.heavy>
10

>  <SCORE.norm>
-1.25044

>  <RMSD>
2.410

$$$$
ligand
 OpenBabel11021811503D
libRbt.so/2013.1/901 2013/11/27
 10 11  0  0  0  0  0  0  0  0999 V2000
    3.5219  -20.3134   24.5696 N   0  0  0  0  0  0  0  0  0  0  0  0
    2.6533  -20.7771   23.6688 C   0  0  0  0  0  0  0  0  0  0  0  0
    1.3969  -21.2027   23.8497 N   0  0  0  0  0  0  0  0  0  0  0  0
    1.0582  -21.1319   25.1512 C   0  0  0  0  0  0  0  0  0  0  0  0
    1.8435  -20.6788   26.1942 C   0  0  0  0  0  0  0  0  0  0  0  0
    3.1455  -20.2478   25.8709 C   0  0  0  0  0  0  0  0  0  0  0  0
    4.0147  -19.7936   26.7880 N   0  0  0  0  0  0  0  0  0  0  0  0
    1.1599  -20.7430   27.3946 N   0  0  0  0  0  0  0  0  0  0  0  0
   -0.0116  -21.2193   27.0650 C   0  0  0  0  0  0  0  0  0  0  0  0
   -0.1386  -21.4850   25.7274 N   0  0  0  0  0  0  0  0  0  0  0  0
  1  2  2  0  0  0  0
  1  6  1  0  0  0  0
  2  3  1  0  0  0  0
  3  4  2  0  0  0  0
  4  5  1  0  0  0  0
  4 10  1  0  0  0  0
  5  6  2  0  0  0  0
  5  8  1  0  0  0  0
  6  7  1  0  0  0  0
  8  9  1  0  0  0  0
  9 10  2  0  0  0  0
M  END
>  <CHROM.1>
1.87409110,-20.75527820,25.63085269,0.32421473,-0.34791750,-1.72486605

>  <Name>
ligand

>  <RI>
0

>  <Rbt.Current_Directory>
/home/itssahil/PROJECTS/Mol_Feturizer/New_Systems/rnas/4LW0

>  <Rbt.Executable>
rbdock ($Id: //depot/dev/client3/rdock/2013.1/src/exe/rbdock.cxx#4 $)

>  <Rbt.Library>
libRbt.so (2013.1, Build901 2013/11/27)

>  <Rbt.Parameter_File>
/export/apps/rDock/src/rDock_2013.1_src/data/scripts/dock_solv.prm

>  <Rbt.Receptor>
prm/pocket_docking_7.prm

>  <SCORE>
-12.5088

>  <SCORE.INTER>
-12.5088

>  <SCORE.INTER.CONST>
1

>  <SCORE.INTER.POLAR>
0

>  <SCORE.INTER.ROT>
0

>  <SCORE.INTER.SOLV>
4.82085

>  <SCORE.INTER.VDW>
-13.5461

>  <SCORE.INTER.norm>
-1.25088

>  <SCORE.INTRA>
0

>  <SCORE.INTRA.DIHEDRAL>
0

>  <SCORE.INTRA.DIHEDRAL.0>
0

>  <SCORE.INTRA.POLAR>
0

>  <SCORE.INTRA.POLAR.0>
0

>  <SCORE.INTRA.REPUL>
0

>  <SCORE.INTRA.REPUL.0>
0

>  <SCORE.INTRA.SOLV>
0

>  <SCORE.INTRA.SOLV.lig_0>
-23.9151

>  <SCORE.INTRA.VDW>
0

>  <SCORE.INTRA.VDW.0>
0

>  <SCORE.INTRA.norm>
0

>  <SCORE.RESTR>
0

>  <SCORE.RESTR.CAVITY>
0

>  <SCORE.RESTR.norm>
0

>  <SCORE.SYSTEM>
0

>  <SCORE.SYSTEM.CONST>
0

>  <SCORE.SYSTEM.DIHEDRAL>
0

>  <SCORE.SYSTEM.SOLV>
0

>  <SCORE.SYSTEM.norm>
0

>  <SCORE.heavy>
10

>  <SCORE.norm>
-1.25088

>  <RMSD>
2.410

$$$$
ligand
 OpenBabel11021811503D
libRbt.so/2013.1/901 2013/11/27
 10 11  0  0  0  0  0  0  0  0999 V2000
    3.5133  -20.2851   24.5721 N   0  0  0  0  0  0  0  0  0  0  0  0
    2.6469  -20.7505   23.6700 C   0  0  0  0  0  0  0  0  0  0  0  0
    1.3939  -21.1860   23.8504 N   0  0  0  0  0  0  0  0  0  0  0  0
    1.0563  -21.1241   25.1526 C   0  0  0  0  0  0  0  0  0  0  0  0
    1.8396  -20.6705   26.1968 C   0  0  0  0  0  0  0  0  0  0  0  0
    3.1380  -20.2286   25.8741 C   0  0  0  0  0  0  0  0  0  0  0  0
    4.0051  -19.7727   26.7925 N   0  0  0  0  0  0  0  0  0  0  0  0
    1.1580  -20.7456   27.3977 N   0  0  0  0  0  0  0  0  0  0  0  0
   -0.0105  -21.2287   27.0672 C   0  0  0  0  0  0  0  0  0  0  0  0
   -0.1372  -21.4886   25.7285 N   0  0  0  0  0  0  0  0  0  0  0  0
  1  2  2  0  0  0  0
  1  6  1  0  0  0  0
  2  3  1  0  0  0  0
  3  4  2  0  0  0  0
  4  5  1  0  0  0  0
  4 10  1  0  0  0  0
  5  6  2  0  0  0  0
  5  8  1  0  0  0  0
  6  7  1  0  0  0  0
  8  9  1  0  0  0  0
  9 10  2  0  0  0  0
M  END
>  <CHROM.1>
1.87001814,-20.74400962,25.63312731,0.32435346,-0.35521355,-1.71986278

>  <Name>
ligand

>  <RI>
0

>  <Rbt.Current_Directory>
/home/itssahil/PROJECTS/Mol_Feturizer/New_Systems/rnas/4LW0

>  <Rbt.Executable>
rbdock ($Id: //depot/dev/client3/rdock/2013.1/src/exe/rbdock.cxx#4 $)

>  <Rbt.Library>
libRbt.so (2013.1, Build901 2013/11/27)

>  <Rbt.Parameter_File>
/export/apps/rDock/src/rDock_2013.1_src/data/scripts/dock_solv.prm

>  <Rbt.Receptor>
prm/pocket_docking_7.prm

>  <SCORE>
-12.4825

>  <SCORE.INTER>
-12.4825

>  <SCORE.INTER.CONST>
1

>  <SCORE.INTER.POLAR>
0

>  <SCORE.INTER.ROT>
0

>  <SCORE.INTER.SOLV>
4.90196

>  <SCORE.INTER.VDW>
-13.5556

>  <SCORE.INTER.norm>
-1.24825

>  <SCORE.INTRA>
0

>  <SCORE.INTRA.DIHEDRAL>
0

>  <SCORE.INTRA.DIHEDRAL.0>
0

>  <SCORE.INTRA.POLAR>
0

>  <SCORE.INTRA.POLAR.0>
0

>  <SCORE.INTRA.REPUL>
0

>  <SCORE.INTRA.REPUL.0>
0

>  <SCORE.INTRA.SOLV>
0

>  <SCORE.INTRA.SOLV.lig_0>
-23.9151

>  <SCORE.INTRA.VDW>
0

>  <SCORE.INTRA.VDW.0>
0

>  <SCORE.INTRA.norm>
0

>  <SCORE.RESTR>
0

>  <SCORE.RESTR.CAVITY>
0

>  <SCORE.RESTR.norm>
0

>  <SCORE.SYSTEM>
0

>  <SCORE.SYSTEM.CONST>
0

>  <SCORE.SYSTEM.DIHEDRAL>
0

>  <SCORE.SYSTEM.SOLV>
0

>  <SCORE.SYSTEM.norm>
0

>  <SCORE.heavy>
10

>  <SCORE.norm>
-1.24825

>  <RMSD>
2.410

$$$$
ligand
 OpenBabel11021811503D
libRbt.so/2013.1/901 2013/11/27
 10 11  0  0  0  0  0  0  0  0999 V2000
    3.5252  -20.3046   24.6122 N   0  0  0  0  0  0  0  0  0  0  0  0
    2.6628  -20.7580   23.7002 C   0  0  0  0  0  0  0  0  0  0  0  0
    1.4045  -21.1835   23.8673 N   0  0  0  0  0  0  0  0  0  0  0  0
    1.0560  -21.1252   25.1668 C   0  0  0  0  0  0  0  0  0  0  0  0
    1.8339  -20.6837   26.2202 C   0  0  0  0  0  0  0  0  0  0  0  0
    3.1389  -20.2514   25.9112 C   0  0  0  0  0  0  0  0  0  0  0  0
    4.0017  -19.8076   26.8394 N   0  0  0  0  0  0  0  0  0  0  0  0
    1.1411  -20.7589   27.4147 N   0  0  0  0  0  0  0  0  0  0  0  0
   -0.0285  -21.2301   27.0715 C   0  0  0  0  0  0  0  0  0  0  0  0
   -0.1457  -21.4822   25.7303 N   0  0  0  0  0  0  0  0  0  0  0  0
  1  2  2  0  0  0  0
  1  6  1  0  0  0  0
  2  3  1  0  0  0  0
  3  4  2  0  0  0  0
  4  5  1  0  0  0  0
  4 10  1  0  0  0  0
  5  6  2  0  0  0  0
  5  8  1  0  0  0  0
  6  7  1  0  0  0  0
  8  9  1  0  0  0  0
  9 10  2  0  0  0  0
M  END
>  <CHROM.1>
1.86867920,-20.75458219,25.65639576,0.31643664,-0.34536709,-1.71752540

>  <Name>
ligand

>  <RI>
0

>  <Rbt.Current_Directory>
/home/itssahil/PROJECTS/Mol_Feturizer/New_Systems/rnas/4LW0

>  <Rbt.Executable>
rbdock ($Id: //depot/dev/client3/rdock/2013.1/src/exe/rbdock.cxx#4 $)

>  <Rbt.Library>
libRbt.so (2013.1, Build901 2013/11/27)

>  <Rbt.Parameter_File>
/export/apps/rDock/src/rDock_2013.1_src/data/scripts/dock_solv.prm

>  <Rbt.Receptor>
prm/pocket_docking_7.prm

>  <SCORE>
-12.507

>  <SCORE.INTER>
-12.507

>  <SCORE.INTER.CONST>
1

>  <SCORE.INTER.POLAR>
0

>  <SCORE.INTER.ROT>
0

>  <SCORE.INTER.SOLV>
4.97745

>  <SCORE.INTER.VDW>
-13.5971

>  <SCORE.INTER.norm>
-1.2507

>  <SCORE.INTRA>
0

>  <SCORE.INTRA.DIHEDRAL>
0

>  <SCORE.INTRA.DIHEDRAL.0>
0

>  <SCORE.INTRA.POLAR>
0

>  <SCORE.INTRA.POLAR.0>
0

>  <SCORE.INTRA.REPUL>
0

>  <SCORE.INTRA.REPUL.0>
0

>  <SCORE.INTRA.SOLV>
0

>  <SCORE.INTRA.SOLV.lig_0>
-23.9151

>  <SCORE.INTRA.VDW>
0

>  <SCORE.INTRA.VDW.0>
0

>  <SCORE.INTRA.norm>
0

>  <SCORE.RESTR>
0

>  <SCORE.RESTR.CAVITY>
0

>  <SCORE.RESTR.norm>
0

>  <SCORE.SYSTEM>
0

>  <SCORE.SYSTEM.CONST>
0

>  <SCORE.SYSTEM.DIHEDRAL>
0

>  <SCORE.SYSTEM.SOLV>
0

>  <SCORE.SYSTEM.norm>
0

>  <SCORE.heavy>
10

>  <SCORE.norm>
-1.2507

>  <RMSD>
2.410

$$$$
ligand
 OpenBabel11021811503D
libRbt.so/2013.1/901 2013/11/27
 10 11  0  0  0  0  0  0  0  0999 V2000
    3.5521  -20.3058   24.6180 N   0  0  0  0  0  0  0  0  0  0  0  0
    2.7141  -20.7711   23.6894 C   0  0  0  0  0  0  0  0  0  0  0  0
    1.4533  -21.1990   23.8293 N   0  0  0  0  0  0  0  0  0  0  0  0
    1.0722  -21.1288   25.1191 C   0  0  0  0  0  0  0  0  0  0  0  0
    1.8223  -20.6742   26.1870 C   0  0  0  0  0  0  0  0  0  0  0  0
    3.1333  -20.2408   25.9063 C   0  0  0  0  0  0  0  0  0  0  0  0
    3.9713  -19.7850   26.8512 N   0  0  0  0  0  0  0  0  0  0  0  0
    1.1000  -20.7397   27.3645 N   0  0  0  0  0  0  0  0  0  0  0  0
   -0.0592  -21.2181   26.9970 C   0  0  0  0  0  0  0  0  0  0  0  0
   -0.1421  -21.4841   25.6560 N   0  0  0  0  0  0  0  0  0  0  0  0
  1  2  2  0  0  0  0
  1  6  1  0  0  0  0
  2  3  1  0  0  0  0
  3  4  2  0  0  0  0
  4  5  1  0  0  0  0
  4 10  1  0  0  0  0
  5  6  2  0  0  0  0
  5  8  1  0  0  0  0
  6  7  1  0  0  0  0
  8  9  1  0  0  0  0
  9 10  2  0  0  0  0
M  END
>  <CHROM.1>
1.87132804,-20.75069284,25.62501609,0.28970259,-0.34455682,-1.73665270

>  <Name>
ligand

>  <RI>
0

>  <Rbt.Current_Directory>
/home/itssahil/PROJECTS/Mol_Feturizer/New_Systems/rnas/4LW0

>  <Rbt.Executable>
rbdock ($Id: //depot/dev/client3/rdock/2013.1/src/exe/rbdock.cxx#4 $)

>  <Rbt.Library>
libRbt.so (2013.1, Build901 2013/11/27)

>  <Rbt.Parameter_File>
/export/apps/rDock/src/rDock_2013.1_src/data/scripts/dock_solv.prm

>  <Rbt.Receptor>
prm/pocket_docking_7.prm

>  <SCORE>
-12.4787

>  <SCORE.INTER>
-12.4787

>  <SCORE.INTER.CONST>
1

>  <SCORE.INTER.POLAR>
0

>  <SCORE.INTER.ROT>
0

>  <SCORE.INTER.SOLV>
5.07337

>  <SCORE.INTER.VDW>
-13.6102

>  <SCORE.INTER.norm>
-1.24787

>  <SCORE.INTRA>
0

>  <SCORE.INTRA.DIHEDRAL>
0

>  <SCORE.INTRA.DIHEDRAL.0>
0

>  <SCORE.INTRA.POLAR>
0

>  <SCORE.INTRA.POLAR.0>
0

>  <SCORE.INTRA.REPUL>
0

>  <SCORE.INTRA.REPUL.0>
0

>  <SCORE.INTRA.SOLV>
0

>  <SCORE.INTRA.SOLV.lig_0>
-23.9151

>  <SCORE.INTRA.VDW>
0

>  <SCORE.INTRA.VDW.0>
0

>  <SCORE.INTRA.norm>
0

>  <SCORE.RESTR>
0

>  <SCORE.RESTR.CAVITY>
0

>  <SCORE.RESTR.norm>
0

>  <SCORE.SYSTEM>
0

>  <SCORE.SYSTEM.CONST>
0

>  <SCORE.SYSTEM.DIHEDRAL>
0

>  <SCORE.SYSTEM.SOLV>
0

>  <SCORE.SYSTEM.norm>
0

>  <SCORE.heavy>
10

>  <SCORE.norm>
-1.24787

>  <RMSD>
2.410

$$$$
ligand
 OpenBabel11021811503D
libRbt.so/2013.1/901 2013/11/27
 10 11  0  0  0  0  0  0  0  0999 V2000
    3.5203  -20.3047   24.6093 N   0  0  0  0  0  0  0  0  0  0  0  0
    2.6572  -20.7586   23.6982 C   0  0  0  0  0  0  0  0  0  0  0  0
    1.3991  -21.1843   23.8666 N   0  0  0  0  0  0  0  0  0  0  0  0
    1.0518  -21.1256   25.1665 C   0  0  0  0  0  0  0  0  0  0  0  0
    1.8306  -20.6836   26.2190 C   0  0  0  0  0  0  0  0  0  0  0  0
    3.1352  -20.2512   25.9086 C   0  0  0  0  0  0  0  0  0  0  0  0
    3.9988  -19.8069   26.8359 N   0  0  0  0  0  0  0  0  0  0  0  0
    1.1389  -20.7586   27.4141 N   0  0  0  0  0  0  0  0  0  0  0  0
   -0.0309  -21.2302   27.0721 C   0  0  0  0  0  0  0  0  0  0  0  0
   -0.1493  -21.4828   25.7312 N   0  0  0  0  0  0  0  0  0  0  0  0
  1  2  2  0  0  0  0
  1  6  1  0  0  0  0
  2  3  1  0  0  0  0
  3  4  2  0  0  0  0
  4  5  1  0  0  0  0
  4 10  1  0  0  0  0
  5  6  2  0  0  0  0
  5  8  1  0  0  0  0
  6  7  1  0  0  0  0
  8  9  1  0  0  0  0
  9 10  2  0  0  0  0
M  END
>  <CHROM.1>
1.86489088,-20.75472453,25.65516968,0.31737423,-0.34570657,-1.71755670

>  <Name>
ligand

>  <RI>
0

>  <Rbt.Current_Directory>
/home/itssahil/PROJECTS/Mol_Feturizer/New_Systems/rnas/4LW0

>  <Rbt.Executable>
rbdock ($Id: //depot/dev/client3/rdock/2013.1/src/exe/rbdock.cxx#4 $)

>  <Rbt.Library>
libRbt.so (2013.1, Build901 2013/11/27)

>  <Rbt.Parameter_File>
/export/apps/rDock/src/rDock_2013.1_src/data/scripts/dock_solv.prm

>  <Rbt.Receptor>
prm/pocket_docking_7.prm

>  <SCORE>
-12.5062

>  <SCORE.INTER>
-12.5062

>  <SCORE.INTER.CONST>
1

>  <SCORE.INTER.POLAR>
0

>  <SCORE.INTER.ROT>
0

>  <SCORE.INTER.SOLV>
4.97405

>  <SCORE.INTER.VDW>
-13.5955

>  <SCORE.INTER.norm>
-1.25062

>  <SCORE.INTRA>
0

>  <SCORE.INTRA.DIHEDRAL>
0

>  <SCORE.INTRA.DIHEDRAL.0>
0

>  <SCORE.INTRA.POLAR>
0

>  <SCORE.INTRA.POLAR.0>
0

>  <SCORE.INTRA.REPUL>
0

>  <SCORE.INTRA.REPUL.0>
0

>  <SCORE.INTRA.SOLV>
0

>  <SCORE.INTRA.SOLV.lig_0>
-23.9151

>  <SCORE.INTRA.VDW>
0

>  <SCORE.INTRA.VDW.0>
0

>  <SCORE.INTRA.norm>
0

>  <SCORE.RESTR>
0

>  <SCORE.RESTR.CAVITY>
0

>  <SCORE.RESTR.norm>
0

>  <SCORE.SYSTEM>
0

>  <SCORE.SYSTEM.CONST>
0

>  <SCORE.SYSTEM.DIHEDRAL>
0

>  <SCORE.SYSTEM.SOLV>
0

>  <SCORE.SYSTEM.norm>
0

>  <SCORE.heavy>
10

>  <SCORE.norm>
-1.25062

>  <RMSD>
2.410

$$$$
ligand
 OpenBabel11021811503D
libRbt.so/2013.1/901 2013/11/27
 10 11  0  0  0  0  0  0  0  0999 V2000
    3.4660  -20.3301   24.4900 N   0  0  0  0  0  0  0  0  0  0  0  0
    2.5519  -20.7955   23.6362 C   0  0  0  0  0  0  0  0  0  0  0  0
    1.3048  -21.2157   23.8819 N   0  0  0  0  0  0  0  0  0  0  0  0
    1.0317  -21.1369   25.1983 C   0  0  0  0  0  0  0  0  0  0  0  0
    1.8696  -20.6811   26.1983 C   0  0  0  0  0  0  0  0  0  0  0  0
    3.1552  -20.2563   25.8081 C   0  0  0  0  0  0  0  0  0  0  0  0
    4.0706  -19.8004   26.6782 N   0  0  0  0  0  0  0  0  0  0  0  0
    1.2466  -20.7366   27.4316 N   0  0  0  0  0  0  0  0  0  0  0  0
    0.0585  -21.2105   27.1636 C   0  0  0  0  0  0  0  0  0  0  0  0
   -0.1360  -21.4827   25.8354 N   0  0  0  0  0  0  0  0  0  0  0  0
  1  2  2  0  0  0  0
  1  6  1  0  0  0  0
  2  3  1  0  0  0  0
  3  4  2  0  0  0  0
  4  5  1  0  0  0  0
  4 10  1  0  0  0  0
  5  6  2  0  0  0  0
  5  8  1  0  0  0  0
  6  7  1  0  0  0  0
  8  9  1  0  0  0  0
  9 10  2  0  0  0  0
M  END
>  <CHROM.1>
1.87174312,-20.76063281,25.63456696,0.37734457,-0.35192802,-1.71198544

>  <Name>
ligand

>  <RI>
0

>  <Rbt.Current_Directory>
/home/itssahil/PROJECTS/Mol_Feturizer/New_Systems/rnas/4LW0

>  <Rbt.Executable>
rbdock ($Id: //depot/dev/client3/rdock/2013.1/src/exe/rbdock.cxx#4 $)

>  <Rbt.Library>
libRbt.so (2013.1, Build901 2013/11/27)

>  <Rbt.Parameter_File>
/export/apps/rDock/src/rDock_2013.1_src/data/scripts/dock_solv.prm

>  <Rbt.Receptor>
prm/pocket_docking_3.prm

>  <SCORE>
-12.4786

>  <SCORE.INTER>
-12.4786

>  <SCORE.INTER.CONST>
1

>  <SCORE.INTER.POLAR>
0

>  <SCORE.INTER.ROT>
0

>  <SCORE.INTER.SOLV>
4.4389

>  <SCORE.INTER.VDW>
-13.3987

>  <SCORE.INTER.norm>
-1.24786

>  <SCORE.INTRA>
0

>  <SCORE.INTRA.DIHEDRAL>
0

>  <SCORE.INTRA.DIHEDRAL.0>
0

>  <SCORE.INTRA.POLAR>
0

>  <SCORE.INTRA.POLAR.0>
0

>  <SCORE.INTRA.REPUL>
0

>  <SCORE.INTRA.REPUL.0>
0

>  <SCORE.INTRA.SOLV>
0

>  <SCORE.INTRA.SOLV.lig_0>
-23.9151

>  <SCORE.INTRA.VDW>
0

>  <SCORE.INTRA.VDW.0>
0

>  <SCORE.INTRA.norm>
0

>  <SCORE.RESTR>
0

>  <SCORE.RESTR.CAVITY>
0

>  <SCORE.RESTR.norm>
0

>  <SCORE.SYSTEM>
0

>  <SCORE.SYSTEM.CONST>
0

>  <SCORE.SYSTEM.DIHEDRAL>
0

>  <SCORE.SYSTEM.SOLV>
0

>  <SCORE.SYSTEM.norm>
0

>  <SCORE.heavy>
10

>  <SCORE.norm>
-1.24786

>  <RMSD>
2.411

$$$$
ligand
 OpenBabel11021811503D
libRbt.so/2013.1/901 2013/11/27
 10 11  0  0  0  0  0  0  0  0999 V2000
    3.5186  -20.3496   24.5803 N   0  0  0  0  0  0  0  0  0  0  0  0
    2.6462  -20.8039   23.6783 C   0  0  0  0  0  0  0  0  0  0  0  0
    1.3850  -21.2157   23.8575 N   0  0  0  0  0  0  0  0  0  0  0  0
    1.0453  -21.1410   25.1586 C   0  0  0  0  0  0  0  0  0  0  0  0
    1.8340  -20.6963   26.2025 C   0  0  0  0  0  0  0  0  0  0  0  0
    3.1411  -20.2796   25.8810 C   0  0  0  0  0  0  0  0  0  0  0  0
    4.0139  -19.8347   26.7993 N   0  0  0  0  0  0  0  0  0  0  0  0
    1.1481  -20.7529   27.4020 N   0  0  0  0  0  0  0  0  0  0  0  0
   -0.0281  -21.2164   27.0709 C   0  0  0  0  0  0  0  0  0  0  0  0
   -0.1561  -21.4809   25.7331 N   0  0  0  0  0  0  0  0  0  0  0  0
  1  2  2  0  0  0  0
  1  6  1  0  0  0  0
  2  3  1  0  0  0  0
  3  4  2  0  0  0  0
  4  5  1  0  0  0  0
  4 10  1  0  0  0  0
  5  6  2  0  0  0  0
  5  8  1  0  0  0  0
  6  7  1  0  0  0  0
  8  9  1  0  0  0  0
  9 10  2  0  0  0  0
M  END
>  <CHROM.1>
1.86455132,-20.77324318,25.63927519,0.32452773,-0.33692678,-1.72493820

>  <Name>
ligand

>  <RI>
0

>  <Rbt.Current_Directory>
/home/itssahil/PROJECTS/Mol_Feturizer/New_Systems/rnas/4LW0

>  <Rbt.Executable>
rbdock ($Id: //depot/dev/client3/rdock/2013.1/src/exe/rbdock.cxx#4 $)

>  <Rbt.Library>
libRbt.so (2013.1, Build901 2013/11/27)

>  <Rbt.Parameter_File>
/export/apps/rDock/src/rDock_2013.1_src/data/scripts/dock_solv.prm

>  <Rbt.Receptor>
prm/pocket_docking_3.prm

>  <SCORE>
-12.4606

>  <SCORE.INTER>
-12.4606

>  <SCORE.INTER.CONST>
1

>  <SCORE.INTER.POLAR>
0

>  <SCORE.INTER.ROT>
0

>  <SCORE.INTER.SOLV>
4.78775

>  <SCORE.INTER.VDW>
-13.503

>  <SCORE.INTER.norm>
-1.24606

>  <SCORE.INTRA>
0

>  <SCORE.INTRA.DIHEDRAL>
0

>  <SCORE.INTRA.DIHEDRAL.0>
0

>  <SCORE.INTRA.POLAR>
0

>  <SCORE.INTRA.POLAR.0>
0

>  <SCORE.INTRA.REPUL>
0

>  <SCORE.INTRA.REPUL.0>
0

>  <SCORE.INTRA.SOLV>
0

>  <SCORE.INTRA.SOLV.lig_0>
-23.9151

>  <SCORE.INTRA.VDW>
0

>  <SCORE.INTRA.VDW.0>
0

>  <SCORE.INTRA.norm>
0

>  <SCORE.RESTR>
0

>  <SCORE.RESTR.CAVITY>
0

>  <SCORE.RESTR.norm>
0

>  <SCORE.SYSTEM>
0

>  <SCORE.SYSTEM.CONST>
0

>  <SCORE.SYSTEM.DIHEDRAL>
0

>  <SCORE.SYSTEM.SOLV>
0

>  <SCORE.SYSTEM.norm>
0

>  <SCORE.heavy>
10

>  <SCORE.norm>
-1.24606

>  <RMSD>
2.411

$$$$
ligand
 OpenBabel11021811503D
libRbt.so/2013.1/901 2013/11/27
 10 11  0  0  0  0  0  0  0  0999 V2000
    3.5611  -20.3131   24.6295 N   0  0  0  0  0  0  0  0  0  0  0  0
    2.7362  -20.7678   23.6841 C   0  0  0  0  0  0  0  0  0  0  0  0
    1.4708  -21.1894   23.8004 N   0  0  0  0  0  0  0  0  0  0  0  0
    1.0687  -21.1251   25.0841 C   0  0  0  0  0  0  0  0  0  0  0  0
    1.8034  -20.6814   26.1672 C   0  0  0  0  0  0  0  0  0  0  0  0
    3.1213  -20.2537   25.9110 C   0  0  0  0  0  0  0  0  0  0  0  0
    3.9460  -19.8085   26.8726 N   0  0  0  0  0  0  0  0  0  0  0  0
    1.0613  -20.7501   27.3321 N   0  0  0  0  0  0  0  0  0  0  0  0
   -0.0943  -21.2196   26.9423 C   0  0  0  0  0  0  0  0  0  0  0  0
   -0.1563  -21.4768   25.5985 N   0  0  0  0  0  0  0  0  0  0  0  0
  1  2  2  0  0  0  0
  1  6  1  0  0  0  0
  2  3  1  0  0  0  0
  3  4  2  0  0  0  0
  4  5  1  0  0  0  0
  4 10  1  0  0  0  0
  5  6  2  0  0  0  0
  5  8  1  0  0  0  0
  6  7  1  0  0  0  0
  8  9  1  0  0  0  0
  9 10  2  0  0  0  0
M  END
>  <CHROM.1>
1.86139381,-20.75463781,25.60558183,0.27327798,-0.33626563,-1.73587531

>  <Name>
ligand

>  <RI>
0

>  <Rbt.Current_Directory>
/home/itssahil/PROJECTS/Mol_Feturizer/New_Systems/rnas/4LW0

>  <Rbt.Executable>
rbdock ($Id: //depot/dev/client3/rdock/2013.1/src/exe/rbdock.cxx#4 $)

>  <Rbt.Library>
libRbt.so (2013.1, Build901 2013/11/27)

>  <Rbt.Parameter_File>
/export/apps/rDock/src/rDock_2013.1_src/data/scripts/dock_solv.prm

>  <Rbt.Receptor>
prm/pocket_docking_4.prm

>  <SCORE>
-12.4611

>  <SCORE.INTER>
-12.4611

>  <SCORE.INTER.CONST>
1

>  <SCORE.INTER.POLAR>
0

>  <SCORE.INTER.ROT>
0

>  <SCORE.INTER.SOLV>
5.14187

>  <SCORE.INTER.VDW>
-13.6213

>  <SCORE.INTER.norm>
-1.24611

>  <SCORE.INTRA>
0

>  <SCORE.INTRA.DIHEDRAL>
0

>  <SCORE.INTRA.DIHEDRAL.0>
0

>  <SCORE.INTRA.POLAR>
0

>  <SCORE.INTRA.POLAR.0>
0

>  <SCORE.INTRA.REPUL>
0

>  <SCORE.INTRA.REPUL.0>
0

>  <SCORE.INTRA.SOLV>
0

>  <SCORE.INTRA.SOLV.lig_0>
-23.9151

>  <SCORE.INTRA.VDW>
0

>  <SCORE.INTRA.VDW.0>
0

>  <SCORE.INTRA.norm>
0

>  <SCORE.RESTR>
0

>  <SCORE.RESTR.CAVITY>
0

>  <SCORE.RESTR.norm>
0

>  <SCORE.SYSTEM>
0

>  <SCORE.SYSTEM.CONST>
0

>  <SCORE.SYSTEM.DIHEDRAL>
0

>  <SCORE.SYSTEM.SOLV>
0

>  <SCORE.SYSTEM.norm>
0

>  <SCORE.heavy>
10

>  <SCORE.norm>
-1.24611

>  <RMSD>
2.411

$$$$
ligand
 OpenBabel11021811503D
libRbt.so/2013.1/901 2013/11/27
 10 11  0  0  0  0  0  0  0  0999 V2000
    3.5245  -20.3055   24.6106 N   0  0  0  0  0  0  0  0  0  0  0  0
    2.6661  -20.7717   23.7013 C   0  0  0  0  0  0  0  0  0  0  0  0
    1.4096  -21.2018   23.8701 N   0  0  0  0  0  0  0  0  0  0  0  0
    1.0583  -21.1331   25.1684 C   0  0  0  0  0  0  0  0  0  0  0  0
    1.8321  -20.6778   26.2190 C   0  0  0  0  0  0  0  0  0  0  0  0
    3.1355  -20.2420   25.9083 C   0  0  0  0  0  0  0  0  0  0  0  0
    3.9944  -19.7852   26.8339 N   0  0  0  0  0  0  0  0  0  0  0  0
    1.1374  -20.7453   27.4128 N   0  0  0  0  0  0  0  0  0  0  0  0
   -0.0292  -21.2255   27.0719 C   0  0  0  0  0  0  0  0  0  0  0  0
   -0.1426  -21.4908   25.7330 N   0  0  0  0  0  0  0  0  0  0  0  0
  1  2  2  0  0  0  0
  1  6  1  0  0  0  0
  2  3  1  0  0  0  0
  3  4  2  0  0  0  0
  4  5  1  0  0  0  0
  4 10  1  0  0  0  0
  5  6  2  0  0  0  0
  5  8  1  0  0  0  0
  6  7  1  0  0  0  0
  8  9  1  0  0  0  0
  9 10  2  0  0  0  0
M  END
>  <CHROM.1>
1.86826289,-20.75386171,25.65592132,0.31368296,-0.34998588,-1.72785672

>  <Name>
ligand

>  <RI>
0

>  <Rbt.Current_Directory>
/home/itssahil/PROJECTS/Mol_Feturizer/New_Systems/rnas/4LW0

>  <Rbt.Executable>
rbdock ($Id: //depot/dev/client3/rdock/2013.1/src/exe/rbdock.cxx#4 $)

>  <Rbt.Library>
libRbt.so (2013.1, Build901 2013/11/27)

>  <Rbt.Parameter_File>
/export/apps/rDock/src/rDock_2013.1_src/data/scripts/dock_solv.prm

>  <Rbt.Receptor>
prm/pocket_docking_4.prm

>  <SCORE>
-12.4969

>  <SCORE.INTER>
-12.4969

>  <SCORE.INTER.CONST>
1

>  <SCORE.INTER.POLAR>
0

>  <SCORE.INTER.ROT>
0

>  <SCORE.INTER.SOLV>
5.00559

>  <SCORE.INTER.VDW>
-13.5998

>  <SCORE.INTER.norm>
-1.24969

>  <SCORE.INTRA>
0

>  <SCORE.INTRA.DIHEDRAL>
0

>  <SCORE.INTRA.DIHEDRAL.0>
0

>  <SCORE.INTRA.POLAR>
0

>  <SCORE.INTRA.POLAR.0>
0

>  <SCORE.INTRA.REPUL>
0

>  <SCORE.INTRA.REPUL.0>
0

>  <SCORE.INTRA.SOLV>
0

>  <SCORE.INTRA.SOLV.lig_0>
-23.9151

>  <SCORE.INTRA.VDW>
0

>  <SCORE.INTRA.VDW.0>
0

>  <SCORE.INTRA.norm>
0

>  <SCORE.RESTR>
0

>  <SCORE.RESTR.CAVITY>
0

>  <SCORE.RESTR.norm>
0

>  <SCORE.SYSTEM>
0

>  <SCORE.SYSTEM.CONST>
0

>  <SCORE.SYSTEM.DIHEDRAL>
0

>  <SCORE.SYSTEM.SOLV>
0

>  <SCORE.SYSTEM.norm>
0

>  <SCORE.heavy>
10

>  <SCORE.norm>
-1.24969

>  <RMSD>
2.411

$$$$
ligand
 OpenBabel11021811503D
libRbt.so/2013.1/901 2013/11/27
 10 11  0  0  0  0  0  0  0  0999 V2000
    3.7503  -20.6933   24.6621 N   0  0  0  0  0  0  0  0  0  0  0  0
    2.9037  -21.3058   23.8320 C   0  0  0  0  0  0  0  0  0  0  0  0
    1.5854  -21.4990   23.9629 N   0  0  0  0  0  0  0  0  0  0  0  0
    1.1476  -20.9863   25.1287 C   0  0  0  0  0  0  0  0  0  0  0  0
    1.8979  -20.3295   26.0854 C   0  0  0  0  0  0  0  0  0  0  0  0
    3.2745  -20.1810   25.8242 C   0  0  0  0  0  0  0  0  0  0  0  0
    4.1188  -19.5723   26.6726 N   0  0  0  0  0  0  0  0  0  0  0  0
    1.1087  -19.9339   27.1498 N   0  0  0  0  0  0  0  0  0  0  0  0
   -0.0886  -20.3439   26.8240 C   0  0  0  0  0  0  0  0  0  0  0  0
   -0.1360  -20.9953   25.6201 N   0  0  0  0  0  0  0  0  0  0  0  0
  1  2  2  0  0  0  0
  1  6  1  0  0  0  0
  2  3  1  0  0  0  0
  3  4  2  0  0  0  0
  4  5  1  0  0  0  0
  4 10  1  0  0  0  0
  5  6  2  0  0  0  0
  5  8  1  0  0  0  0
  6  7  1  0  0  0  0
  8  9  1  0  0  0  0
  9 10  2  0  0  0  0
M  END
>  <CHROM.1>
1.96614152,-20.58054978,25.57903193,0.25917245,-0.17924973,-2.05267334

>  <Name>
ligand

>  <RI>
0

>  <Rbt.Current_Directory>
/home/itssahil/PROJECTS/Mol_Feturizer/New_Systems/rnas/4LW0

>  <Rbt.Executable>
rbdock ($Id: //depot/dev/client3/rdock/2013.1/src/exe/rbdock.cxx#4 $)

>  <Rbt.Library>
libRbt.so (2013.1, Build901 2013/11/27)

>  <Rbt.Parameter_File>
/export/apps/rDock/src/rDock_2013.1_src/data/scripts/dock_solv.prm

>  <Rbt.Receptor>
prm/pocket_docking_5.prm

>  <SCORE>
-12.3532

>  <SCORE.INTER>
-12.3532

>  <SCORE.INTER.CONST>
1

>  <SCORE.INTER.POLAR>
0

>  <SCORE.INTER.ROT>
0

>  <SCORE.INTER.SOLV>
4.56262

>  <SCORE.INTER.VDW>
-13.3563

>  <SCORE.INTER.norm>
-1.23532

>  <SCORE.INTRA>
0

>  <SCORE.INTRA.DIHEDRAL>
0

>  <SCORE.INTRA.DIHEDRAL.0>
0

>  <SCORE.INTRA.POLAR>
0

>  <SCORE.INTRA.POLAR.0>
0

>  <SCORE.INTRA.REPUL>
0

>  <SCORE.INTRA.REPUL.0>
0

>  <SCORE.INTRA.SOLV>
0

>  <SCORE.INTRA.SOLV.lig_0>
-23.9151

>  <SCORE.INTRA.VDW>
0

>  <SCORE.INTRA.VDW.0>
0

>  <SCORE.INTRA.norm>
0

>  <SCORE.RESTR>
0

>  <SCORE.RESTR.CAVITY>
0

>  <SCORE.RESTR.norm>
0

>  <SCORE.SYSTEM>
0

>  <SCORE.SYSTEM.CONST>
0

>  <SCORE.SYSTEM.DIHEDRAL>
0

>  <SCORE.SYSTEM.SOLV>
0

>  <SCORE.SYSTEM.norm>
0

>  <SCORE.heavy>
10

>  <SCORE.norm>
-1.23532

>  <RMSD>
2.411

$$$$
ligand
 OpenBabel11021811503D
libRbt.so/2013.1/901 2013/11/27
 10 11  0  0  0  0  0  0  0  0999 V2000
    3.5245  -20.3305   24.5724 N   0  0  0  0  0  0  0  0  0  0  0  0
    2.6577  -20.7994   23.6726 C   0  0  0  0  0  0  0  0  0  0  0  0
    1.4008  -21.2234   23.8533 N   0  0  0  0  0  0  0  0  0  0  0  0
    1.0593  -21.1444   25.1536 C   0  0  0  0  0  0  0  0  0  0  0  0
    1.8424  -20.6852   26.1955 C   0  0  0  0  0  0  0  0  0  0  0  0
    3.1452  -20.2567   25.8724 C   0  0  0  0  0  0  0  0  0  0  0  0
    4.0126  -19.7971   26.7886 N   0  0  0  0  0  0  0  0  0  0  0  0
    1.1562  -20.7418   27.3948 N   0  0  0  0  0  0  0  0  0  0  0  0
   -0.0148  -21.2197   27.0656 C   0  0  0  0  0  0  0  0  0  0  0  0
   -0.1389  -21.4936   25.7294 N   0  0  0  0  0  0  0  0  0  0  0  0
  1  2  2  0  0  0  0
  1  6  1  0  0  0  0
  2  3  1  0  0  0  0
  3  4  2  0  0  0  0
  4  5  1  0  0  0  0
  4 10  1  0  0  0  0
  5  6  2  0  0  0  0
  5  8  1  0  0  0  0
  6  7  1  0  0  0  0
  8  9  1  0  0  0  0
  9 10  2  0  0  0  0
M  END
>  <CHROM.1>
1.87420225,-20.76518785,25.63273856,0.32197385,-0.34722541,-1.73181633

>  <Name>
ligand

>  <RI>
0

>  <Rbt.Current_Directory>
/home/itssahil/PROJECTS/Mol_Feturizer/New_Systems/rnas/4LW0

>  <Rbt.Executable>
rbdock ($Id: //depot/dev/client3/rdock/2013.1/src/exe/rbdock.cxx#4 $)

>  <Rbt.Library>
libRbt.so (2013.1, Build901 2013/11/27)

>  <Rbt.Parameter_File>
/export/apps/rDock/src/rDock_2013.1_src/data/scripts/dock_solv.prm

>  <Rbt.Receptor>
prm/pocket_docking_8.prm

>  <SCORE>
-12.5052

>  <SCORE.INTER>
-12.5052

>  <SCORE.INTER.CONST>
1

>  <SCORE.INTER.POLAR>
0

>  <SCORE.INTER.ROT>
0

>  <SCORE.INTER.SOLV>
4.8081

>  <SCORE.INTER.VDW>
-13.5395

>  <SCORE.INTER.norm>
-1.25052

>  <SCORE.INTRA>
0

>  <SCORE.INTRA.DIHEDRAL>
0

>  <SCORE.INTRA.DIHEDRAL.0>
0

>  <SCORE.INTRA.POLAR>
0

>  <SCORE.INTRA.POLAR.0>
0

>  <SCORE.INTRA.REPUL>
0

>  <SCORE.INTRA.REPUL.0>
0

>  <SCORE.INTRA.SOLV>
0

>  <SCORE.INTRA.SOLV.lig_0>
-23.9151

>  <SCORE.INTRA.VDW>
0

>  <SCORE.INTRA.VDW.0>
0

>  <SCORE.INTRA.norm>
0

>  <SCORE.RESTR>
0

>  <SCORE.RESTR.CAVITY>
0

>  <SCORE.RESTR.norm>
0

>  <SCORE.SYSTEM>
0

>  <SCORE.SYSTEM.CONST>
0

>  <SCORE.SYSTEM.DIHEDRAL>
0

>  <SCORE.SYSTEM.SOLV>
0

>  <SCORE.SYSTEM.norm>
0

>  <SCORE.heavy>
10

>  <SCORE.norm>
-1.25052

>  <RMSD>
2.411

$$$$
ligand
 OpenBabel11021811503D
libRbt.so/2013.1/901 2013/11/27
 10 11  0  0  0  0  0  0  0  0999 V2000
    3.5162  -20.3283   24.5690 N   0  0  0  0  0  0  0  0  0  0  0  0
    2.6462  -20.7977   23.6725 C   0  0  0  0  0  0  0  0  0  0  0  0
    1.3905  -21.2232   23.8583 N   0  0  0  0  0  0  0  0  0  0  0  0
    1.0543  -21.1453   25.1600 C   0  0  0  0  0  0  0  0  0  0  0  0
    1.8412  -20.6858   26.1989 C   0  0  0  0  0  0  0  0  0  0  0  0
    3.1422  -20.2556   25.8706 C   0  0  0  0  0  0  0  0  0  0  0  0
    4.0129  -19.7955   26.7835 N   0  0  0  0  0  0  0  0  0  0  0  0
    1.1600  -20.7437   27.4009 N   0  0  0  0  0  0  0  0  0  0  0  0
   -0.0118  -21.2227   27.0764 C   0  0  0  0  0  0  0  0  0  0  0  0
   -0.1411  -21.4961   25.7406 N   0  0  0  0  0  0  0  0  0  0  0  0
  1  2  2  0  0  0  0
  1  6  1  0  0  0  0
  2  3  1  0  0  0  0
  3  4  2  0  0  0  0
  4  5  1  0  0  0  0
  4 10  1  0  0  0  0
  5  6  2  0  0  0  0
  5  8  1  0  0  0  0
  6  7  1  0  0  0  0
  8  9  1  0  0  0  0
  9 10  2  0  0  0  0
M  END
>  <CHROM.1>
1.87078173,-20.76539453,25.63593253,0.32613667,-0.34898809,-1.72987544

>  <Name>
ligand

>  <RI>
0

>  <Rbt.Current_Directory>
/home/itssahil/PROJECTS/Mol_Feturizer/New_Systems/rnas/4LW0

>  <Rbt.Executable>
rbdock ($Id: //depot/dev/client3/rdock/2013.1/src/exe/rbdock.cxx#4 $)

>  <Rbt.Library>
libRbt.so (2013.1, Build901 2013/11/27)

>  <Rbt.Parameter_File>
/export/apps/rDock/src/rDock_2013.1_src/data/scripts/dock_solv.prm

>  <Rbt.Receptor>
prm/pocket_docking_8.prm

>  <SCORE>
-12.496

>  <SCORE.INTER>
-12.496

>  <SCORE.INTER.CONST>
1

>  <SCORE.INTER.POLAR>
0

>  <SCORE.INTER.ROT>
0

>  <SCORE.INTER.SOLV>
4.80182

>  <SCORE.INTER.VDW>
-13.5313

>  <SCORE.INTER.norm>
-1.2496

>  <SCORE.INTRA>
0

>  <SCORE.INTRA.DIHEDRAL>
0

>  <SCORE.INTRA.DIHEDRAL.0>
0

>  <SCORE.INTRA.POLAR>
0

>  <SCORE.INTRA.POLAR.0>
0

>  <SCORE.INTRA.REPUL>
0

>  <SCORE.INTRA.REPUL.0>
0

>  <SCORE.INTRA.SOLV>
0

>  <SCORE.INTRA.SOLV.lig_0>
-23.9151

>  <SCORE.INTRA.VDW>
0

>  <SCORE.INTRA.VDW.0>
0

>  <SCORE.INTRA.norm>
0

>  <SCORE.RESTR>
0

>  <SCORE.RESTR.CAVITY>
0

>  <SCORE.RESTR.norm>
0

>  <SCORE.SYSTEM>
0

>  <SCORE.SYSTEM.CONST>
0

>  <SCORE.SYSTEM.DIHEDRAL>
0

>  <SCORE.SYSTEM.SOLV>
0

>  <SCORE.SYSTEM.norm>
0

>  <SCORE.heavy>
10

>  <SCORE.norm>
-1.2496

>  <RMSD>
2.411

$$$$
ligand
 OpenBabel11021811503D
libRbt.so/2013.1/901 2013/11/27
 10 11  0  0  0  0  0  0  0  0999 V2000
    3.5306  -20.3368   24.5773 N   0  0  0  0  0  0  0  0  0  0  0  0
    2.6654  -20.8072   23.6766 C   0  0  0  0  0  0  0  0  0  0  0  0
    1.4071  -21.2281   23.8553 N   0  0  0  0  0  0  0  0  0  0  0  0
    1.0621  -21.1439   25.1544 C   0  0  0  0  0  0  0  0  0  0  0  0
    1.8432  -20.6826   26.1968 C   0  0  0  0  0  0  0  0  0  0  0  0
    3.1478  -20.2577   25.8759 C   0  0  0  0  0  0  0  0  0  0  0  0
    4.0135  -19.7967   26.7930 N   0  0  0  0  0  0  0  0  0  0  0  0
    1.1535  -20.7337   27.3943 N   0  0  0  0  0  0  0  0  0  0  0  0
   -0.0175  -21.2104   27.0635 C   0  0  0  0  0  0  0  0  0  0  0  0
   -0.1384  -21.4887   25.7279 N   0  0  0  0  0  0  0  0  0  0  0  0
  1  2  2  0  0  0  0
  1  6  1  0  0  0  0
  2  3  1  0  0  0  0
  3  4  2  0  0  0  0
  4  5  1  0  0  0  0
  4 10  1  0  0  0  0
  5  6  2  0  0  0  0
  5  8  1  0  0  0  0
  6  7  1  0  0  0  0
  8  9  1  0  0  0  0
  9 10  2  0  0  0  0
M  END
>  <CHROM.1>
1.87644888,-20.76461814,25.63442201,0.31935353,-0.34483065,-1.73618444

>  <Name>
ligand

>  <RI>
0

>  <Rbt.Current_Directory>
/home/itssahil/PROJECTS/Mol_Feturizer/New_Systems/rnas/4LW0

>  <Rbt.Executable>
rbdock ($Id: //depot/dev/client3/rdock/2013.1/src/exe/rbdock.cxx#4 $)

>  <Rbt.Library>
libRbt.so (2013.1, Build901 2013/11/27)

>  <Rbt.Parameter_File>
/export/apps/rDock/src/rDock_2013.1_src/data/scripts/dock_solv.prm

>  <Rbt.Receptor>
prm/pocket_docking_8.prm

>  <SCORE>
-12.5022

>  <SCORE.INTER>
-12.5022

>  <SCORE.INTER.CONST>
1

>  <SCORE.INTER.POLAR>
0

>  <SCORE.INTER.ROT>
0

>  <SCORE.INTER.SOLV>
4.81291

>  <SCORE.INTER.VDW>
-13.5391

>  <SCORE.INTER.norm>
-1.25022

>  <SCORE.INTRA>
0

>  <SCORE.INTRA.DIHEDRAL>
0

>  <SCORE.INTRA.DIHEDRAL.0>
0

>  <SCORE.INTRA.POLAR>
0

>  <SCORE.INTRA.POLAR.0>
0

>  <SCORE.INTRA.REPUL>
0

>  <SCORE.INTRA.REPUL.0>
0

>  <SCORE.INTRA.SOLV>
0

>  <SCORE.INTRA.SOLV.lig_0>
-23.9151

>  <SCORE.INTRA.VDW>
0

>  <SCORE.INTRA.VDW.0>
0

>  <SCORE.INTRA.norm>
0

>  <SCORE.RESTR>
0

>  <SCORE.RESTR.CAVITY>
0

>  <SCORE.RESTR.norm>
0

>  <SCORE.SYSTEM>
0

>  <SCORE.SYSTEM.CONST>
0

>  <SCORE.SYSTEM.DIHEDRAL>
0

>  <SCORE.SYSTEM.SOLV>
0

>  <SCORE.SYSTEM.norm>
0

>  <SCORE.heavy>
10

>  <SCORE.norm>
-1.25022

>  <RMSD>
2.411

$$$$
ligand
 OpenBabel11021811503D
libRbt.so/2013.1/901 2013/11/27
 10 11  0  0  0  0  0  0  0  0999 V2000
    3.5075  -20.3033   24.6069 N   0  0  0  0  0  0  0  0  0  0  0  0
    2.6352  -20.7611   23.7065 C   0  0  0  0  0  0  0  0  0  0  0  0
    1.3818  -21.1938   23.8905 N   0  0  0  0  0  0  0  0  0  0  0  0
    1.0508  -21.1382   25.1947 C   0  0  0  0  0  0  0  0  0  0  0  0
    1.8405  -20.6930   26.2377 C   0  0  0  0  0  0  0  0  0  0  0  0
    3.1387  -20.2531   25.9111 C   0  0  0  0  0  0  0  0  0  0  0  0
    4.0116  -19.8050   26.8277 N   0  0  0  0  0  0  0  0  0  0  0  0
    1.1645  -20.7728   27.4414 N   0  0  0  0  0  0  0  0  0  0  0  0
   -0.0070  -21.2504   27.1140 C   0  0  0  0  0  0  0  0  0  0  0  0
   -0.1410  -21.5024   25.7744 N   0  0  0  0  0  0  0  0  0  0  0  0
  1  2  2  0  0  0  0
  1  6  1  0  0  0  0
  2  3  1  0  0  0  0
  3  4  2  0  0  0  0
  4  5  1  0  0  0  0
  4 10  1  0  0  0  0
  5  6  2  0  0  0  0
  5  8  1  0  0  0  0
  6  7  1  0  0  0  0
  8  9  1  0  0  0  0
  9 10  2  0  0  0  0
M  END
>  <CHROM.1>
1.86797093,-20.76333993,25.67339717,0.32998776,-0.35293957,-1.71226748

>  <Name>
ligand

>  <RI>
0

>  <Rbt.Current_Directory>
/home/itssahil/PROJECTS/Mol_Feturizer/New_Systems/rnas/4LW0

>  <Rbt.Executable>
rbdock ($Id: //depot/dev/client3/rdock/2013.1/src/exe/rbdock.cxx#4 $)

>  <Rbt.Library>
libRbt.so (2013.1, Build901 2013/11/27)

>  <Rbt.Parameter_File>
/export/apps/rDock/src/rDock_2013.1_src/data/scripts/dock_solv.prm

>  <Rbt.Receptor>
prm/pocket_docking_8.prm

>  <SCORE>
-12.5006

>  <SCORE.INTER>
-12.5006

>  <SCORE.INTER.CONST>
1

>  <SCORE.INTER.POLAR>
0

>  <SCORE.INTER.ROT>
0

>  <SCORE.INTER.SOLV>
4.94912

>  <SCORE.INTER.VDW>
-13.5834

>  <SCORE.INTER.norm>
-1.25006

>  <SCORE.INTRA>
0

>  <SCORE.INTRA.DIHEDRAL>
0

>  <SCORE.INTRA.DIHEDRAL.0>
0

>  <SCORE.INTRA.POLAR>
0

>  <SCORE.INTRA.POLAR.0>
0

>  <SCORE.INTRA.REPUL>
0

>  <SCORE.INTRA.REPUL.0>
0

>  <SCORE.INTRA.SOLV>
0

>  <SCORE.INTRA.SOLV.lig_0>
-23.9151

>  <SCORE.INTRA.VDW>
0

>  <SCORE.INTRA.VDW.0>
0

>  <SCORE.INTRA.norm>
0

>  <SCORE.RESTR>
0

>  <SCORE.RESTR.CAVITY>
0

>  <SCORE.RESTR.norm>
0

>  <SCORE.SYSTEM>
0

>  <SCORE.SYSTEM.CONST>
0

>  <SCORE.SYSTEM.DIHEDRAL>
0

>  <SCORE.SYSTEM.SOLV>
0

>  <SCORE.SYSTEM.norm>
0

>  <SCORE.heavy>
10

>  <SCORE.norm>
-1.25006

>  <RMSD>
2.411

$$$$
ligand
 OpenBabel11021811503D
libRbt.so/2013.1/901 2013/11/27
 10 11  0  0  0  0  0  0  0  0999 V2000
    3.5189  -20.3372   24.5696 N   0  0  0  0  0  0  0  0  0  0  0  0
    2.6512  -20.8072   23.6711 C   0  0  0  0  0  0  0  0  0  0  0  0
    1.3940  -21.2297   23.8533 N   0  0  0  0  0  0  0  0  0  0  0  0
    1.0531  -21.1476   25.1536 C   0  0  0  0  0  0  0  0  0  0  0  0
    1.8371  -20.6869   26.1941 C   0  0  0  0  0  0  0  0  0  0  0  0
    3.1402  -20.2602   25.8696 C   0  0  0  0  0  0  0  0  0  0  0  0
    4.0083  -19.7995   26.7845 N   0  0  0  0  0  0  0  0  0  0  0  0
    1.1513  -20.7403   27.3938 N   0  0  0  0  0  0  0  0  0  0  0  0
   -0.0202  -21.2178   27.0661 C   0  0  0  0  0  0  0  0  0  0  0  0
   -0.1452  -21.4944   25.7305 N   0  0  0  0  0  0  0  0  0  0  0  0
  1  2  2  0  0  0  0
  1  6  1  0  0  0  0
  2  3  1  0  0  0  0
  3  4  2  0  0  0  0
  4  5  1  0  0  0  0
  4 10  1  0  0  0  0
  5  6  2  0  0  0  0
  5  8  1  0  0  0  0
  6  7  1  0  0  0  0
  8  9  1  0  0  0  0
  9 10  2  0  0  0  0
M  END
>  <CHROM.1>
1.86858219,-20.76811338,25.63149975,0.32256716,-0.34639536,-1.73374295

>  <Name>
ligand

>  <RI>
0

>  <Rbt.Current_Directory>
/home/itssahil/PROJECTS/Mol_Feturizer/New_Systems/rnas/4LW0

>  <Rbt.Executable>
rbdock ($Id: //depot/dev/client3/rdock/2013.1/src/exe/rbdock.cxx#4 $)

>  <Rbt.Library>
libRbt.so (2013.1, Build901 2013/11/27)

>  <Rbt.Parameter_File>
/export/apps/rDock/src/rDock_2013.1_src/data/scripts/dock_solv.prm

>  <Rbt.Receptor>
prm/pocket_docking_4.prm

>  <SCORE>
-12.5012

>  <SCORE.INTER>
-12.5012

>  <SCORE.INTER.CONST>
1

>  <SCORE.INTER.POLAR>
0

>  <SCORE.INTER.ROT>
0

>  <SCORE.INTER.SOLV>
4.79419

>  <SCORE.INTER.VDW>
-13.5322

>  <SCORE.INTER.norm>
-1.25012

>  <SCORE.INTRA>
0

>  <SCORE.INTRA.DIHEDRAL>
0

>  <SCORE.INTRA.DIHEDRAL.0>
0

>  <SCORE.INTRA.POLAR>
0

>  <SCORE.INTRA.POLAR.0>
0

>  <SCORE.INTRA.REPUL>
0

>  <SCORE.INTRA.REPUL.0>
0

>  <SCORE.INTRA.SOLV>
0

>  <SCORE.INTRA.SOLV.lig_0>
-23.9151

>  <SCORE.INTRA.VDW>
0

>  <SCORE.INTRA.VDW.0>
0

>  <SCORE.INTRA.norm>
0

>  <SCORE.RESTR>
0

>  <SCORE.RESTR.CAVITY>
0

>  <SCORE.RESTR.norm>
0

>  <SCORE.SYSTEM>
0

>  <SCORE.SYSTEM.CONST>
0

>  <SCORE.SYSTEM.DIHEDRAL>
0

>  <SCORE.SYSTEM.SOLV>
0

>  <SCORE.SYSTEM.norm>
0

>  <SCORE.heavy>
10

>  <SCORE.norm>
-1.25012

>  <RMSD>
2.412

$$$$
ligand
 OpenBabel11021811503D
libRbt.so/2013.1/901 2013/11/27
 10 11  0  0  0  0  0  0  0  0999 V2000
    3.5538  -20.3110   24.6262 N   0  0  0  0  0  0  0  0  0  0  0  0
    2.7278  -20.7671   23.6824 C   0  0  0  0  0  0  0  0  0  0  0  0
    1.4641  -21.1926   23.8014 N   0  0  0  0  0  0  0  0  0  0  0  0
    1.0650  -21.1309   25.0861 C   0  0  0  0  0  0  0  0  0  0  0  0
    1.8011  -20.6863   26.1679 C   0  0  0  0  0  0  0  0  0  0  0  0
    3.1171  -20.2544   25.9089 C   0  0  0  0  0  0  0  0  0  0  0  0
    3.9429  -19.8079   26.8689 N   0  0  0  0  0  0  0  0  0  0  0  0
    1.0622  -20.7586   27.3346 N   0  0  0  0  0  0  0  0  0  0  0  0
   -0.0930  -21.2311   26.9472 C   0  0  0  0  0  0  0  0  0  0  0  0
   -0.1576  -21.4869   25.6032 N   0  0  0  0  0  0  0  0  0  0  0  0
  1  2  2  0  0  0  0
  1  6  1  0  0  0  0
  2  3  1  0  0  0  0
  3  4  2  0  0  0  0
  4  5  1  0  0  0  0
  4 10  1  0  0  0  0
  5  6  2  0  0  0  0
  5  8  1  0  0  0  0
  6  7  1  0  0  0  0
  8  9  1  0  0  0  0
  9 10  2  0  0  0  0
M  END
>  <CHROM.1>
1.85790905,-20.75874121,25.60606560,0.27540363,-0.33960695,-1.73400559

>  <Name>
ligand

>  <RI>
0

>  <Rbt.Current_Directory>
/home/itssahil/PROJECTS/Mol_Feturizer/New_Systems/rnas/4LW0

>  <Rbt.Executable>
rbdock ($Id: //depot/dev/client3/rdock/2013.1/src/exe/rbdock.cxx#4 $)

>  <Rbt.Library>
libRbt.so (2013.1, Build901 2013/11/27)

>  <Rbt.Parameter_File>
/export/apps/rDock/src/rDock_2013.1_src/data/scripts/dock_solv.prm

>  <Rbt.Receptor>
prm/pocket_docking_7.prm

>  <SCORE>
-12.4581

>  <SCORE.INTER>
-12.4581

>  <SCORE.INTER.CONST>
1

>  <SCORE.INTER.POLAR>
0

>  <SCORE.INTER.ROT>
0

>  <SCORE.INTER.SOLV>
5.14307

>  <SCORE.INTER.VDW>
-13.6198

>  <SCORE.INTER.norm>
-1.24581

>  <SCORE.INTRA>
0

>  <SCORE.INTRA.DIHEDRAL>
0

>  <SCORE.INTRA.DIHEDRAL.0>
0

>  <SCORE.INTRA.POLAR>
0

>  <SCORE.INTRA.POLAR.0>
0

>  <SCORE.INTRA.REPUL>
0

>  <SCORE.INTRA.REPUL.0>
0

>  <SCORE.INTRA.SOLV>
0

>  <SCORE.INTRA.SOLV.lig_0>
-23.9151

>  <SCORE.INTRA.VDW>
0

>  <SCORE.INTRA.VDW.0>
0

>  <SCORE.INTRA.norm>
0

>  <SCORE.RESTR>
0

>  <SCORE.RESTR.CAVITY>
0

>  <SCORE.RESTR.norm>
0

>  <SCORE.SYSTEM>
0

>  <SCORE.SYSTEM.CONST>
0

>  <SCORE.SYSTEM.DIHEDRAL>
0

>  <SCORE.SYSTEM.SOLV>
0

>  <SCORE.SYSTEM.norm>
0

>  <SCORE.heavy>
10

>  <SCORE.norm>
-1.24581

>  <RMSD>
2.412

$$$$
ligand
 OpenBabel11021811503D
libRbt.so/2013.1/901 2013/11/27
 10 11  0  0  0  0  0  0  0  0999 V2000
    3.4991  -20.2962   24.6027 N   0  0  0  0  0  0  0  0  0  0  0  0
    2.6275  -20.7659   23.7079 C   0  0  0  0  0  0  0  0  0  0  0  0
    1.3786  -21.2088   23.8988 N   0  0  0  0  0  0  0  0  0  0  0  0
    1.0521  -21.1499   25.2040 C   0  0  0  0  0  0  0  0  0  0  0  0
    1.8420  -20.6927   26.2417 C   0  0  0  0  0  0  0  0  0  0  0  0
    3.1349  -20.2430   25.9080 C   0  0  0  0  0  0  0  0  0  0  0  0
    4.0074  -19.7828   26.8191 N   0  0  0  0  0  0  0  0  0  0  0  0
    1.1714  -20.7728   27.4485 N   0  0  0  0  0  0  0  0  0  0  0  0
    0.0028  -21.2623   27.1279 C   0  0  0  0  0  0  0  0  0  0  0  0
   -0.1342  -21.5219   25.7901 N   0  0  0  0  0  0  0  0  0  0  0  0
  1  2  2  0  0  0  0
  1  6  1  0  0  0  0
  2  3  1  0  0  0  0
  3  4  2  0  0  0  0
  4  5  1  0  0  0  0
  4 10  1  0  0  0  0
  5  6  2  0  0  0  0
  5  8  1  0  0  0  0
  6  7  1  0  0  0  0
  8  9  1  0  0  0  0
  9 10  2  0  0  0  0
M  END
>  <CHROM.1>
1.86784327,-20.76556377,25.67771133,0.33273852,-0.36223851,-1.71606221

>  <Name>
ligand

>  <RI>
0

>  <Rbt.Current_Directory>
/home/itssahil/PROJECTS/Mol_Feturizer/New_Systems/rnas/4LW0

>  <Rbt.Executable>
rbdock ($Id: //depot/dev/client3/rdock/2013.1/src/exe/rbdock.cxx#4 $)

>  <Rbt.Library>
libRbt.so (2013.1, Build901 2013/11/27)

>  <Rbt.Parameter_File>
/export/apps/rDock/src/rDock_2013.1_src/data/scripts/dock_solv.prm

>  <Rbt.Receptor>
prm/pocket_docking_3.prm

>  <SCORE>
-12.5032

>  <SCORE.INTER>
-12.5032

>  <SCORE.INTER.CONST>
1

>  <SCORE.INTER.POLAR>
0

>  <SCORE.INTER.ROT>
0

>  <SCORE.INTER.SOLV>
4.97869

>  <SCORE.INTER.VDW>
-13.595

>  <SCORE.INTER.norm>
-1.25032

>  <SCORE.INTRA>
0

>  <SCORE.INTRA.DIHEDRAL>
0

>  <SCORE.INTRA.DIHEDRAL.0>
0

>  <SCORE.INTRA.POLAR>
0

>  <SCORE.INTRA.POLAR.0>
0

>  <SCORE.INTRA.REPUL>
0

>  <SCORE.INTRA.REPUL.0>
0

>  <SCORE.INTRA.SOLV>
0

>  <SCORE.INTRA.SOLV.lig_0>
-23.9151

>  <SCORE.INTRA.VDW>
0

>  <SCORE.INTRA.VDW.0>
0

>  <SCORE.INTRA.norm>
0

>  <SCORE.RESTR>
0

>  <SCORE.RESTR.CAVITY>
0

>  <SCORE.RESTR.norm>
0

>  <SCORE.SYSTEM>
0

>  <SCORE.SYSTEM.CONST>
0

>  <SCORE.SYSTEM.DIHEDRAL>
0

>  <SCORE.SYSTEM.SOLV>
0

>  <SCORE.SYSTEM.norm>
0

>  <SCORE.heavy>
10

>  <SCORE.norm>
-1.25032

>  <RMSD>
2.413

$$$$
ligand
 OpenBabel11021811503D
libRbt.so/2013.1/901 2013/11/27
 10 11  0  0  0  0  0  0  0  0999 V2000
    3.5191  -20.3059   24.6102 N   0  0  0  0  0  0  0  0  0  0  0  0
    2.6589  -20.7788   23.7061 C   0  0  0  0  0  0  0  0  0  0  0  0
    1.4072  -21.2197   23.8826 N   0  0  0  0  0  0  0  0  0  0  0  0
    1.0637  -21.1546   25.1832 C   0  0  0  0  0  0  0  0  0  0  0  0
    1.8403  -20.6935   26.2291 C   0  0  0  0  0  0  0  0  0  0  0  0
    3.1380  -20.2465   25.9104 C   0  0  0  0  0  0  0  0  0  0  0  0
    3.9989  -19.7830   26.8307 N   0  0  0  0  0  0  0  0  0  0  0  0
    1.1539  -20.7675   27.4273 N   0  0  0  0  0  0  0  0  0  0  0  0
   -0.0108  -21.2574   27.0936 C   0  0  0  0  0  0  0  0  0  0  0  0
   -0.1305  -21.5228   25.7553 N   0  0  0  0  0  0  0  0  0  0  0  0
  1  2  2  0  0  0  0
  1  6  1  0  0  0  0
  2  3  1  0  0  0  0
  3  4  2  0  0  0  0
  4  5  1  0  0  0  0
  4 10  1  0  0  0  0
  5  6  2  0  0  0  0
  5  8  1  0  0  0  0
  6  7  1  0  0  0  0
  8  9  1  0  0  0  0
  9 10  2  0  0  0  0
M  END
>  <CHROM.1>
1.87350928,-20.76889892,25.66579366,0.31903902,-0.35933308,-1.72537709

>  <Name>
ligand

>  <RI>
0

>  <Rbt.Current_Directory>
/home/itssahil/PROJECTS/Mol_Feturizer/New_Systems/rnas/4LW0

>  <Rbt.Executable>
rbdock ($Id: //depot/dev/client3/rdock/2013.1/src/exe/rbdock.cxx#4 $)

>  <Rbt.Library>
libRbt.so (2013.1, Build901 2013/11/27)

>  <Rbt.Parameter_File>
/export/apps/rDock/src/rDock_2013.1_src/data/scripts/dock_solv.prm

>  <Rbt.Receptor>
prm/pocket_docking_5.prm

>  <SCORE>
-12.5088

>  <SCORE.INTER>
-12.5088

>  <SCORE.INTER.CONST>
1

>  <SCORE.INTER.POLAR>
0

>  <SCORE.INTER.ROT>
0

>  <SCORE.INTER.SOLV>
5.00412

>  <SCORE.INTER.VDW>
-13.6073

>  <SCORE.INTER.norm>
-1.25088

>  <SCORE.INTRA>
0

>  <SCORE.INTRA.DIHEDRAL>
0

>  <SCORE.INTRA.DIHEDRAL.0>
0

>  <SCORE.INTRA.POLAR>
0

>  <SCORE.INTRA.POLAR.0>
0

>  <SCORE.INTRA.REPUL>
0

>  <SCORE.INTRA.REPUL.0>
0

>  <SCORE.INTRA.SOLV>
0

>  <SCORE.INTRA.SOLV.lig_0>
-23.9151

>  <SCORE.INTRA.VDW>
0

>  <SCORE.INTRA.VDW.0>
0

>  <SCORE.INTRA.norm>
0

>  <SCORE.RESTR>
0

>  <SCORE.RESTR.CAVITY>
0

>  <SCORE.RESTR.norm>
0

>  <SCORE.SYSTEM>
0

>  <SCORE.SYSTEM.CONST>
0

>  <SCORE.SYSTEM.DIHEDRAL>
0

>  <SCORE.SYSTEM.SOLV>
0

>  <SCORE.SYSTEM.norm>
0

>  <SCORE.heavy>
10

>  <SCORE.norm>
-1.25088

>  <RMSD>
2.413

$$$$
ligand
 OpenBabel11021811503D
libRbt.so/2013.1/901 2013/11/27
 10 11  0  0  0  0  0  0  0  0999 V2000
    3.4981  -20.2995   24.5969 N   0  0  0  0  0  0  0  0  0  0  0  0
    2.6323  -20.7603   23.6919 C   0  0  0  0  0  0  0  0  0  0  0  0
    1.3783  -21.1946   23.8689 N   0  0  0  0  0  0  0  0  0  0  0  0
    1.0391  -21.1370   25.1709 C   0  0  0  0  0  0  0  0  0  0  0  0
    1.8216  -20.6885   26.2179 C   0  0  0  0  0  0  0  0  0  0  0  0
    3.1211  -20.2472   25.8986 C   0  0  0  0  0  0  0  0  0  0  0  0
    3.9876  -19.7959   26.8198 N   0  0  0  0  0  0  0  0  0  0  0  0
    1.1382  -20.7670   27.4176 N   0  0  0  0  0  0  0  0  0  0  0  0
   -0.0305  -21.2471   27.0837 C   0  0  0  0  0  0  0  0  0  0  0  0
   -0.1558  -21.5019   25.7439 N   0  0  0  0  0  0  0  0  0  0  0  0
  1  2  2  0  0  0  0
  1  6  1  0  0  0  0
  2  3  1  0  0  0  0
  3  4  2  0  0  0  0
  4  5  1  0  0  0  0
  4 10  1  0  0  0  0
  5  6  2  0  0  0  0
  5  8  1  0  0  0  0
  6  7  1  0  0  0  0
  8  9  1  0  0  0  0
  9 10  2  0  0  0  0
M  END
>  <CHROM.1>
1.85268114,-20.75990737,25.65395253,0.32314210,-0.35357708,-1.71659841

>  <Name>
ligand

>  <RI>
0

>  <Rbt.Current_Directory>
/home/itssahil/PROJECTS/Mol_Feturizer/New_Systems/rnas/4LW0

>  <Rbt.Executable>
rbdock ($Id: //depot/dev/client3/rdock/2013.1/src/exe/rbdock.cxx#4 $)

>  <Rbt.Library>
libRbt.so (2013.1, Build901 2013/11/27)

>  <Rbt.Parameter_File>
/export/apps/rDock/src/rDock_2013.1_src/data/scripts/dock_solv.prm

>  <Rbt.Receptor>
prm/pocket_docking_8.prm

>  <SCORE>
-12.4937

>  <SCORE.INTER>
-12.4937

>  <SCORE.INTER.CONST>
1

>  <SCORE.INTER.POLAR>
0

>  <SCORE.INTER.ROT>
0

>  <SCORE.INTER.SOLV>
4.9697

>  <SCORE.INTER.VDW>
-13.5857

>  <SCORE.INTER.norm>
-1.24937

>  <SCORE.INTRA>
0

>  <SCORE.INTRA.DIHEDRAL>
0

>  <SCORE.INTRA.DIHEDRAL.0>
0

>  <SCORE.INTRA.POLAR>
0

>  <SCORE.INTRA.POLAR.0>
0

>  <SCORE.INTRA.REPUL>
0

>  <SCORE.INTRA.REPUL.0>
0

>  <SCORE.INTRA.SOLV>
0

>  <SCORE.INTRA.SOLV.lig_0>
-23.9151

>  <SCORE.INTRA.VDW>
0

>  <SCORE.INTRA.VDW.0>
0

>  <SCORE.INTRA.norm>
0

>  <SCORE.RESTR>
0

>  <SCORE.RESTR.CAVITY>
0

>  <SCORE.RESTR.norm>
0

>  <SCORE.SYSTEM>
0

>  <SCORE.SYSTEM.CONST>
0

>  <SCORE.SYSTEM.DIHEDRAL>
0

>  <SCORE.SYSTEM.SOLV>
0

>  <SCORE.SYSTEM.norm>
0

>  <SCORE.heavy>
10

>  <SCORE.norm>
-1.24937

>  <RMSD>
2.413

$$$$
ligand
 OpenBabel11021811503D
libRbt.so/2013.1/901 2013/11/27
 10 11  0  0  0  0  0  0  0  0999 V2000
    3.5064  -20.3032   24.6053 N   0  0  0  0  0  0  0  0  0  0  0  0
    2.6406  -20.7614   23.6990 C   0  0  0  0  0  0  0  0  0  0  0  0
    1.3906  -21.2069   23.8763 N   0  0  0  0  0  0  0  0  0  0  0  0
    1.0559  -21.1649   25.1801 C   0  0  0  0  0  0  0  0  0  0  0  0
    1.8391  -20.7210   26.2286 C   0  0  0  0  0  0  0  0  0  0  0  0
    3.1340  -20.2668   25.9088 C   0  0  0  0  0  0  0  0  0  0  0  0
    4.0006  -19.8183   26.8313 N   0  0  0  0  0  0  0  0  0  0  0  0
    1.1609  -20.8167   27.4300 N   0  0  0  0  0  0  0  0  0  0  0  0
   -0.0054  -21.3023   27.0957 C   0  0  0  0  0  0  0  0  0  0  0  0
   -0.1339  -21.5445   25.7538 N   0  0  0  0  0  0  0  0  0  0  0  0
  1  2  2  0  0  0  0
  1  6  1  0  0  0  0
  2  3  1  0  0  0  0
  3  4  2  0  0  0  0
  4  5  1  0  0  0  0
  4 10  1  0  0  0  0
  5  6  2  0  0  0  0
  5  8  1  0  0  0  0
  6  7  1  0  0  0  0
  8  9  1  0  0  0  0
  9 10  2  0  0  0  0
M  END
>  <CHROM.1>
1.86855116,-20.78657721,25.66382568,0.32604097,-0.36153238,-1.70553077

>  <Name>
ligand

>  <RI>
0

>  <Rbt.Current_Directory>
/home/itssahil/PROJECTS/Mol_Feturizer/New_Systems/rnas/4LW0

>  <Rbt.Executable>
rbdock ($Id: //depot/dev/client3/rdock/2013.1/src/exe/rbdock.cxx#4 $)

>  <Rbt.Library>
libRbt.so (2013.1, Build901 2013/11/27)

>  <Rbt.Parameter_File>
/export/apps/rDock/src/rDock_2013.1_src/data/scripts/dock_solv.prm

>  <Rbt.Receptor>
prm/pocket_docking_3.prm

>  <SCORE>
-12.497

>  <SCORE.INTER>
-12.497

>  <SCORE.INTER.CONST>
1

>  <SCORE.INTER.POLAR>
0

>  <SCORE.INTER.ROT>
0

>  <SCORE.INTER.SOLV>
4.98044

>  <SCORE.INTER.VDW>
-13.5915

>  <SCORE.INTER.norm>
-1.2497

>  <SCORE.INTRA>
0

>  <SCORE.INTRA.DIHEDRAL>
0

>  <SCORE.INTRA.DIHEDRAL.0>
0

>  <SCORE.INTRA.POLAR>
0

>  <SCORE.INTRA.POLAR.0>
0

>  <SCORE.INTRA.REPUL>
0

>  <SCORE.INTRA.REPUL.0>
0

>  <SCORE.INTRA.SOLV>
0

>  <SCORE.INTRA.SOLV.lig_0>
-23.9151

>  <SCORE.INTRA.VDW>
0

>  <SCORE.INTRA.VDW.0>
0

>  <SCORE.INTRA.norm>
0

>  <SCORE.RESTR>
0

>  <SCORE.RESTR.CAVITY>
0

>  <SCORE.RESTR.norm>
0

>  <SCORE.SYSTEM>
0

>  <SCORE.SYSTEM.CONST>
0

>  <SCORE.SYSTEM.DIHEDRAL>
0

>  <SCORE.SYSTEM.SOLV>
0

>  <SCORE.SYSTEM.norm>
0

>  <SCORE.heavy>
10

>  <SCORE.norm>
-1.2497

>  <RMSD>
2.414

$$$$
ligand
 OpenBabel11021811503D
libRbt.so/2013.1/901 2013/11/27
 10 11  0  0  0  0  0  0  0  0999 V2000
    3.5188  -20.3029   24.6067 N   0  0  0  0  0  0  0  0  0  0  0  0
    2.6687  -20.7930   23.7021 C   0  0  0  0  0  0  0  0  0  0  0  0
    1.4174  -21.2369   23.8741 N   0  0  0  0  0  0  0  0  0  0  0  0
    1.0621  -21.1544   25.1705 C   0  0  0  0  0  0  0  0  0  0  0  0
    1.8273  -20.6744   26.2163 C   0  0  0  0  0  0  0  0  0  0  0  0
    3.1258  -20.2262   25.9025 C   0  0  0  0  0  0  0  0  0  0  0  0
    3.9764  -19.7454   26.8235 N   0  0  0  0  0  0  0  0  0  0  0  0
    1.1306  -20.7340   27.4094 N   0  0  0  0  0  0  0  0  0  0  0  0
   -0.0289  -21.2340   27.0726 C   0  0  0  0  0  0  0  0  0  0  0  0
   -0.1356  -21.5196   25.7373 N   0  0  0  0  0  0  0  0  0  0  0  0
  1  2  2  0  0  0  0
  1  6  1  0  0  0  0
  2  3  1  0  0  0  0
  3  4  2  0  0  0  0
  4  5  1  0  0  0  0
  4 10  1  0  0  0  0
  5  6  2  0  0  0  0
  5  8  1  0  0  0  0
  6  7  1  0  0  0  0
  8  9  1  0  0  0  0
  9 10  2  0  0  0  0
M  END
>  <CHROM.1>
1.86584835,-20.75790224,25.65446968,0.30890532,-0.36231807,-1.74364832

>  <Name>
ligand

>  <RI>
0

>  <Rbt.Current_Directory>
/home/itssahil/PROJECTS/Mol_Feturizer/New_Systems/rnas/4LW0

>  <Rbt.Executable>
rbdock ($Id: //depot/dev/client3/rdock/2013.1/src/exe/rbdock.cxx#4 $)

>  <Rbt.Library>
libRbt.so (2013.1, Build901 2013/11/27)

>  <Rbt.Parameter_File>
/export/apps/rDock/src/rDock_2013.1_src/data/scripts/dock_solv.prm

>  <Rbt.Receptor>
prm/pocket_docking_4.prm

>  <SCORE>
-12.4542

>  <SCORE.INTER>
-12.4542

>  <SCORE.INTER.CONST>
1

>  <SCORE.INTER.POLAR>
0

>  <SCORE.INTER.ROT>
0

>  <SCORE.INTER.SOLV>
5.09882

>  <SCORE.INTER.VDW>
-13.6024

>  <SCORE.INTER.norm>
-1.24542

>  <SCORE.INTRA>
0

>  <SCORE.INTRA.DIHEDRAL>
0

>  <SCORE.INTRA.DIHEDRAL.0>
0

>  <SCORE.INTRA.POLAR>
0

>  <SCORE.INTRA.POLAR.0>
0

>  <SCORE.INTRA.REPUL>
0

>  <SCORE.INTRA.REPUL.0>
0

>  <SCORE.INTRA.SOLV>
0

>  <SCORE.INTRA.SOLV.lig_0>
-23.9151

>  <SCORE.INTRA.VDW>
0

>  <SCORE.INTRA.VDW.0>
0

>  <SCORE.INTRA.norm>
0

>  <SCORE.RESTR>
0

>  <SCORE.RESTR.CAVITY>
0

>  <SCORE.RESTR.norm>
0

>  <SCORE.SYSTEM>
0

>  <SCORE.SYSTEM.CONST>
0

>  <SCORE.SYSTEM.DIHEDRAL>
0

>  <SCORE.SYSTEM.SOLV>
0

>  <SCORE.SYSTEM.norm>
0

>  <SCORE.heavy>
10

>  <SCORE.norm>
-1.24542

>  <RMSD>
2.414

$$$$
ligand
 OpenBabel11021811503D
libRbt.so/2013.1/901 2013/11/27
 10 11  0  0  0  0  0  0  0  0999 V2000
    3.7723  -20.7196   24.6467 N   0  0  0  0  0  0  0  0  0  0  0  0
    2.9449  -21.3426   23.8052 C   0  0  0  0  0  0  0  0  0  0  0  0
    1.6252  -21.5410   23.9120 N   0  0  0  0  0  0  0  0  0  0  0  0
    1.1623  -21.0213   25.0650 C   0  0  0  0  0  0  0  0  0  0  0  0
    1.8908  -20.3534   26.0308 C   0  0  0  0  0  0  0  0  0  0  0  0
    3.2716  -20.2004   25.7952 C   0  0  0  0  0  0  0  0  0  0  0  0
    4.0963  -19.5811   26.6550 N   0  0  0  0  0  0  0  0  0  0  0  0
    1.0792  -19.9532   27.0765 N   0  0  0  0  0  0  0  0  0  0  0  0
   -0.1096  -20.3715   26.7307 C   0  0  0  0  0  0  0  0  0  0  0  0
   -0.1305  -21.0325   25.5314 N   0  0  0  0  0  0  0  0  0  0  0  0
  1  2  2  0  0  0  0
  1  6  1  0  0  0  0
  2  3  1  0  0  0  0
  3  4  2  0  0  0  0
  4  5  1  0  0  0  0
  4 10  1  0  0  0  0
  5  6  2  0  0  0  0
  5  8  1  0  0  0  0
  6  7  1  0  0  0  0
  8  9  1  0  0  0  0
  9 10  2  0  0  0  0
M  END
>  <CHROM.1>
1.97009851,-20.60810468,25.52790044,0.23947135,-0.17427421,-2.06405534

>  <Name>
ligand

>  <RI>
0

>  <Rbt.Current_Directory>
/home/itssahil/PROJECTS/Mol_Feturizer/New_Systems/rnas/4LW0

>  <Rbt.Executable>
rbdock ($Id: //depot/dev/client3/rdock/2013.1/src/exe/rbdock.cxx#4 $)

>  <Rbt.Library>
libRbt.so (2013.1, Build901 2013/11/27)

>  <Rbt.Parameter_File>
/export/apps/rDock/src/rDock_2013.1_src/data/scripts/dock_solv.prm

>  <Rbt.Receptor>
prm/pocket_docking_5.prm

>  <SCORE>
-12.4069

>  <SCORE.INTER>
-12.4069

>  <SCORE.INTER.CONST>
1

>  <SCORE.INTER.POLAR>
0

>  <SCORE.INTER.ROT>
0

>  <SCORE.INTER.SOLV>
4.50343

>  <SCORE.INTER.VDW>
-13.3724

>  <SCORE.INTER.norm>
-1.24069

>  <SCORE.INTRA>
0

>  <SCORE.INTRA.DIHEDRAL>
0

>  <SCORE.INTRA.DIHEDRAL.0>
0

>  <SCORE.INTRA.POLAR>
0

>  <SCORE.INTRA.POLAR.0>
0

>  <SCORE.INTRA.REPUL>
0

>  <SCORE.INTRA.REPUL.0>
0

>  <SCORE.INTRA.SOLV>
0

>  <SCORE.INTRA.SOLV.lig_0>
-23.9151

>  <SCORE.INTRA.VDW>
0

>  <SCORE.INTRA.VDW.0>
0

>  <SCORE.INTRA.norm>
0

>  <SCORE.RESTR>
0

>  <SCORE.RESTR.CAVITY>
0

>  <SCORE.RESTR.norm>
0

>  <SCORE.SYSTEM>
0

>  <SCORE.SYSTEM.CONST>
0

>  <SCORE.SYSTEM.DIHEDRAL>
0

>  <SCORE.SYSTEM.SOLV>
0

>  <SCORE.SYSTEM.norm>
0

>  <SCORE.heavy>
10

>  <SCORE.norm>
-1.24069

>  <RMSD>
2.414

$$$$
ligand
 OpenBabel11021811503D
libRbt.so/2013.1/901 2013/11/27
 10 11  0  0  0  0  0  0  0  0999 V2000
    3.5058  -20.3392   24.5730 N   0  0  0  0  0  0  0  0  0  0  0  0
    2.6331  -20.8162   23.6832 C   0  0  0  0  0  0  0  0  0  0  0  0
    1.3805  -21.2470   23.8776 N   0  0  0  0  0  0  0  0  0  0  0  0
    1.0511  -21.1656   25.1809 C   0  0  0  0  0  0  0  0  0  0  0  0
    1.8417  -20.6983   26.2135 C   0  0  0  0  0  0  0  0  0  0  0  0
    3.1387  -20.2632   25.8764 C   0  0  0  0  0  0  0  0  0  0  0  0
    4.0122  -19.7954   26.7826 N   0  0  0  0  0  0  0  0  0  0  0  0
    1.1674  -20.7548   27.4196 N   0  0  0  0  0  0  0  0  0  0  0  0
   -0.0038  -21.2407   27.1034 C   0  0  0  0  0  0  0  0  0  0  0  0
   -0.1393  -21.5198   25.7694 N   0  0  0  0  0  0  0  0  0  0  0  0
  1  2  2  0  0  0  0
  1  6  1  0  0  0  0
  2  3  1  0  0  0  0
  3  4  2  0  0  0  0
  4  5  1  0  0  0  0
  4 10  1  0  0  0  0
  5  6  2  0  0  0  0
  5  8  1  0  0  0  0
  6  7  1  0  0  0  0
  8  9  1  0  0  0  0
  9 10  2  0  0  0  0
M  END
>  <CHROM.1>
1.86845198,-20.77997474,25.65074189,0.33117891,-0.35459587,-1.73201925

>  <Name>
ligand

>  <RI>
0

>  <Rbt.Current_Directory>
/home/itssahil/PROJECTS/Mol_Feturizer/New_Systems/rnas/4LW0

>  <Rbt.Executable>
rbdock ($Id: //depot/dev/client3/rdock/2013.1/src/exe/rbdock.cxx#4 $)

>  <Rbt.Library>
libRbt.so (2013.1, Build901 2013/11/27)

>  <Rbt.Parameter_File>
/export/apps/rDock/src/rDock_2013.1_src/data/scripts/dock_solv.prm

>  <Rbt.Receptor>
prm/pocket_docking_8.prm

>  <SCORE>
-12.4856

>  <SCORE.INTER>
-12.4856

>  <SCORE.INTER.CONST>
1

>  <SCORE.INTER.POLAR>
0

>  <SCORE.INTER.ROT>
0

>  <SCORE.INTER.SOLV>
4.80666

>  <SCORE.INTER.VDW>
-13.526

>  <SCORE.INTER.norm>
-1.24856

>  <SCORE.INTRA>
0

>  <SCORE.INTRA.DIHEDRAL>
0

>  <SCORE.INTRA.DIHEDRAL.0>
0

>  <SCORE.INTRA.POLAR>
0

>  <SCORE.INTRA.POLAR.0>
0

>  <SCORE.INTRA.REPUL>
0

>  <SCORE.INTRA.REPUL.0>
0

>  <SCORE.INTRA.SOLV>
0

>  <SCORE.INTRA.SOLV.lig_0>
-23.9151

>  <SCORE.INTRA.VDW>
0

>  <SCORE.INTRA.VDW.0>
0

>  <SCORE.INTRA.norm>
0

>  <SCORE.RESTR>
0

>  <SCORE.RESTR.CAVITY>
0

>  <SCORE.RESTR.norm>
0

>  <SCORE.SYSTEM>
0

>  <SCORE.SYSTEM.CONST>
0

>  <SCORE.SYSTEM.DIHEDRAL>
0

>  <SCORE.SYSTEM.SOLV>
0

>  <SCORE.SYSTEM.norm>
0

>  <SCORE.heavy>
10

>  <SCORE.norm>
-1.24856

>  <RMSD>
2.414

$$$$
ligand
 OpenBabel11021811503D
libRbt.so/2013.1/901 2013/11/27
 10 11  0  0  0  0  0  0  0  0999 V2000
    3.5499  -20.3486   24.6153 N   0  0  0  0  0  0  0  0  0  0  0  0
    2.7243  -20.8185   23.6780 C   0  0  0  0  0  0  0  0  0  0  0  0
    1.4578  -21.2347   23.8013 N   0  0  0  0  0  0  0  0  0  0  0  0
    1.0553  -21.1459   25.0833 C   0  0  0  0  0  0  0  0  0  0  0  0
    1.7906  -20.6844   26.1585 C   0  0  0  0  0  0  0  0  0  0  0  0
    3.1097  -20.2647   25.8953 C   0  0  0  0  0  0  0  0  0  0  0  0
    3.9350  -19.8041   26.8490 N   0  0  0  0  0  0  0  0  0  0  0  0
    1.0478  -20.7300   27.3241 N   0  0  0  0  0  0  0  0  0  0  0  0
   -0.1088  -21.2037   26.9424 C   0  0  0  0  0  0  0  0  0  0  0  0
   -0.1708  -21.4852   25.6035 N   0  0  0  0  0  0  0  0  0  0  0  0
  1  2  2  0  0  0  0
  1  6  1  0  0  0  0
  2  3  1  0  0  0  0
  3  4  2  0  0  0  0
  4  5  1  0  0  0  0
  4 10  1  0  0  0  0
  5  6  2  0  0  0  0
  5  8  1  0  0  0  0
  6  7  1  0  0  0  0
  8  9  1  0  0  0  0
  9 10  2  0  0  0  0
M  END
>  <CHROM.1>
1.84866262,-20.76803035,25.59841302,0.27322398,-0.33374509,-1.75414827

>  <Name>
ligand

>  <RI>
0

>  <Rbt.Current_Directory>
/home/itssahil/PROJECTS/Mol_Feturizer/New_Systems/rnas/4LW0

>  <Rbt.Executable>
rbdock ($Id: //depot/dev/client3/rdock/2013.1/src/exe/rbdock.cxx#4 $)

>  <Rbt.Library>
libRbt.so (2013.1, Build901 2013/11/27)

>  <Rbt.Parameter_File>
/export/apps/rDock/src/rDock_2013.1_src/data/scripts/dock_solv.prm

>  <Rbt.Receptor>
prm/pocket_docking_4.prm

>  <SCORE>
-12.4354

>  <SCORE.INTER>
-12.4354

>  <SCORE.INTER.CONST>
1

>  <SCORE.INTER.POLAR>
0

>  <SCORE.INTER.ROT>
0

>  <SCORE.INTER.SOLV>
5.0735

>  <SCORE.INTER.VDW>
-13.5814

>  <SCORE.INTER.norm>
-1.24354

>  <SCORE.INTRA>
0

>  <SCORE.INTRA.DIHEDRAL>
0

>  <SCORE.INTRA.DIHEDRAL.0>
0

>  <SCORE.INTRA.POLAR>
0

>  <SCORE.INTRA.POLAR.0>
0

>  <SCORE.INTRA.REPUL>
0

>  <SCORE.INTRA.REPUL.0>
0

>  <SCORE.INTRA.SOLV>
0

>  <SCORE.INTRA.SOLV.lig_0>
-23.9151

>  <SCORE.INTRA.VDW>
0

>  <SCORE.INTRA.VDW.0>
0

>  <SCORE.INTRA.norm>
0

>  <SCORE.RESTR>
0

>  <SCORE.RESTR.CAVITY>
0

>  <SCORE.RESTR.norm>
0

>  <SCORE.SYSTEM>
0

>  <SCORE.SYSTEM.CONST>
0

>  <SCORE.SYSTEM.DIHEDRAL>
0

>  <SCORE.SYSTEM.SOLV>
0

>  <SCORE.SYSTEM.norm>
0

>  <SCORE.heavy>
10

>  <SCORE.norm>
-1.24354

>  <RMSD>
2.415

$$$$
ligand
 OpenBabel11021811503D
libRbt.so/2013.1/901 2013/11/27
 10 11  0  0  0  0  0  0  0  0999 V2000
    3.5018  -20.3029   24.6051 N   0  0  0  0  0  0  0  0  0  0  0  0
    2.6320  -20.7652   23.7047 C   0  0  0  0  0  0  0  0  0  0  0  0
    1.3840  -21.2129   23.8899 N   0  0  0  0  0  0  0  0  0  0  0  0
    1.0563  -21.1683   25.1954 C   0  0  0  0  0  0  0  0  0  0  0  0
    1.8442  -20.7201   26.2385 C   0  0  0  0  0  0  0  0  0  0  0  0
    3.1364  -20.2640   25.9106 C   0  0  0  0  0  0  0  0  0  0  0  0
    4.0071  -19.8114   26.8271 N   0  0  0  0  0  0  0  0  0  0  0  0
    1.1727  -20.8141   27.4437 N   0  0  0  0  0  0  0  0  0  0  0  0
    0.0056  -21.3029   27.1170 C   0  0  0  0  0  0  0  0  0  0  0  0
   -0.1297  -21.5489   25.7765 N   0  0  0  0  0  0  0  0  0  0  0  0
  1  2  2  0  0  0  0
  1  6  1  0  0  0  0
  2  3  1  0  0  0  0
  3  4  2  0  0  0  0
  4  5  1  0  0  0  0
  4 10  1  0  0  0  0
  5  6  2  0  0  0  0
  5  8  1  0  0  0  0
  6  7  1  0  0  0  0
  8  9  1  0  0  0  0
  9 10  2  0  0  0  0
M  END
>  <CHROM.1>
1.87071486,-20.78700590,25.67372348,0.33147743,-0.36431037,-1.70614273

>  <Name>
ligand

>  <RI>
0

>  <Rbt.Current_Directory>
/home/itssahil/PROJECTS/Mol_Feturizer/New_Systems/rnas/4LW0

>  <Rbt.Executable>
rbdock ($Id: //depot/dev/client3/rdock/2013.1/src/exe/rbdock.cxx#4 $)

>  <Rbt.Library>
libRbt.so (2013.1, Build901 2013/11/27)

>  <Rbt.Parameter_File>
/export/apps/rDock/src/rDock_2013.1_src/data/scripts/dock_solv.prm

>  <Rbt.Receptor>
prm/pocket_docking_6.prm

>  <SCORE>
-12.5051

>  <SCORE.INTER>
-12.5051

>  <SCORE.INTER.CONST>
1

>  <SCORE.INTER.POLAR>
0

>  <SCORE.INTER.ROT>
0

>  <SCORE.INTER.SOLV>
4.9705

>  <SCORE.INTER.VDW>
-13.5936

>  <SCORE.INTER.norm>
-1.25051

>  <SCORE.INTRA>
0

>  <SCORE.INTRA.DIHEDRAL>
0

>  <SCORE.INTRA.DIHEDRAL.0>
0

>  <SCORE.INTRA.POLAR>
0

>  <SCORE.INTRA.POLAR.0>
0

>  <SCORE.INTRA.REPUL>
0

>  <SCORE.INTRA.REPUL.0>
0

>  <SCORE.INTRA.SOLV>
0

>  <SCORE.INTRA.SOLV.lig_0>
-23.9151

>  <SCORE.INTRA.VDW>
0

>  <SCORE.INTRA.VDW.0>
0

>  <SCORE.INTRA.norm>
0

>  <SCORE.RESTR>
0

>  <SCORE.RESTR.CAVITY>
0

>  <SCORE.RESTR.norm>
0

>  <SCORE.SYSTEM>
0

>  <SCORE.SYSTEM.CONST>
0

>  <SCORE.SYSTEM.DIHEDRAL>
0

>  <SCORE.SYSTEM.SOLV>
0

>  <SCORE.SYSTEM.norm>
0

>  <SCORE.heavy>
10

>  <SCORE.norm>
-1.25051

>  <RMSD>
2.415

$$$$
ligand
 OpenBabel11021811503D
libRbt.so/2013.1/901 2013/11/27
 10 11  0  0  0  0  0  0  0  0999 V2000
    3.4859  -20.2912   24.5942 N   0  0  0  0  0  0  0  0  0  0  0  0
    2.6165  -20.7575   23.6954 C   0  0  0  0  0  0  0  0  0  0  0  0
    1.3719  -21.2136   23.8834 N   0  0  0  0  0  0  0  0  0  0  0  0
    1.0477  -21.1734   25.1899 C   0  0  0  0  0  0  0  0  0  0  0  0
    1.8357  -20.7221   26.2315 C   0  0  0  0  0  0  0  0  0  0  0  0
    3.1240  -20.2571   25.9007 C   0  0  0  0  0  0  0  0  0  0  0  0
    3.9943  -19.8005   26.8156 N   0  0  0  0  0  0  0  0  0  0  0  0
    1.1683  -20.8226   27.4385 N   0  0  0  0  0  0  0  0  0  0  0  0
    0.0034  -21.3183   27.1143 C   0  0  0  0  0  0  0  0  0  0  0  0
   -0.1341  -21.5628   25.7737 N   0  0  0  0  0  0  0  0  0  0  0  0
  1  2  2  0  0  0  0
  1  6  1  0  0  0  0
  2  3  1  0  0  0  0
  3  4  2  0  0  0  0
  4  5  1  0  0  0  0
  4 10  1  0  0  0  0
  5  6  2  0  0  0  0
  5  8  1  0  0  0  0
  6  7  1  0  0  0  0
  8  9  1  0  0  0  0
  9 10  2  0  0  0  0
M  END
>  <CHROM.1>
1.86104246,-20.78779045,25.66658481,0.33360504,-0.37110762,-1.70356173

>  <Name>
ligand

>  <RI>
0

>  <Rbt.Current_Directory>
/home/itssahil/PROJECTS/Mol_Feturizer/New_Systems/rnas/4LW0

>  <Rbt.Executable>
rbdock ($Id: //depot/dev/client3/rdock/2013.1/src/exe/rbdock.cxx#4 $)

>  <Rbt.Library>
libRbt.so (2013.1, Build901 2013/11/27)

>  <Rbt.Parameter_File>
/export/apps/rDock/src/rDock_2013.1_src/data/scripts/dock_solv.prm

>  <Rbt.Receptor>
prm/pocket_docking_7.prm

>  <SCORE>
-12.4901

>  <SCORE.INTER>
-12.4901

>  <SCORE.INTER.CONST>
1

>  <SCORE.INTER.POLAR>
0

>  <SCORE.INTER.ROT>
0

>  <SCORE.INTER.SOLV>
4.98273

>  <SCORE.INTER.VDW>
-13.5876

>  <SCORE.INTER.norm>
-1.24901

>  <SCORE.INTRA>
0

>  <SCORE.INTRA.DIHEDRAL>
0

>  <SCORE.INTRA.DIHEDRAL.0>
0

>  <SCORE.INTRA.POLAR>
0

>  <SCORE.INTRA.POLAR.0>
0

>  <SCORE.INTRA.REPUL>
0

>  <SCORE.INTRA.REPUL.0>
0

>  <SCORE.INTRA.SOLV>
0

>  <SCORE.INTRA.SOLV.lig_0>
-23.9151

>  <SCORE.INTRA.VDW>
0

>  <SCORE.INTRA.VDW.0>
0

>  <SCORE.INTRA.norm>
0

>  <SCORE.RESTR>
0

>  <SCORE.RESTR.CAVITY>
0

>  <SCORE.RESTR.norm>
0

>  <SCORE.SYSTEM>
0

>  <SCORE.SYSTEM.CONST>
0

>  <SCORE.SYSTEM.DIHEDRAL>
0

>  <SCORE.SYSTEM.SOLV>
0

>  <SCORE.SYSTEM.norm>
0

>  <SCORE.heavy>
10

>  <SCORE.norm>
-1.24901

>  <RMSD>
2.416

$$$$
ligand
 OpenBabel11021811503D
libRbt.so/2013.1/901 2013/11/27
 10 11  0  0  0  0  0  0  0  0999 V2000
    3.4286  -20.2683   24.5353 N   0  0  0  0  0  0  0  0  0  0  0  0
    2.5321  -20.7388   23.6659 C   0  0  0  0  0  0  0  0  0  0  0  0
    1.2920  -21.1889   23.8936 N   0  0  0  0  0  0  0  0  0  0  0  0
    1.0058  -21.1371   25.2085 C   0  0  0  0  0  0  0  0  0  0  0  0
    1.8251  -20.6800   26.2232 C   0  0  0  0  0  0  0  0  0  0  0  0
    3.1048  -20.2222   25.8515 C   0  0  0  0  0  0  0  0  0  0  0  0
    4.0028  -19.7613   26.7371 N   0  0  0  0  0  0  0  0  0  0  0  0
    1.1926  -20.7685   27.4498 N   0  0  0  0  0  0  0  0  0  0  0  0
    0.0172  -21.2627   27.1634 C   0  0  0  0  0  0  0  0  0  0  0  0
   -0.1598  -21.5175   25.8294 N   0  0  0  0  0  0  0  0  0  0  0  0
  1  2  2  0  0  0  0
  1  6  1  0  0  0  0
  2  3  1  0  0  0  0
  3  4  2  0  0  0  0
  4  5  1  0  0  0  0
  4 10  1  0  0  0  0
  5  6  2  0  0  0  0
  5  8  1  0  0  0  0
  6  7  1  0  0  0  0
  8  9  1  0  0  0  0
  9 10  2  0  0  0  0
M  END
>  <CHROM.1>
1.83387084,-20.75041360,25.65833103,0.36486711,-0.37153378,-1.70038193

>  <Name>
ligand

>  <RI>
0

>  <Rbt.Current_Directory>
/home/itssahil/PROJECTS/Mol_Feturizer/New_Systems/rnas/4LW0

>  <Rbt.Executable>
rbdock ($Id: //depot/dev/client3/rdock/2013.1/src/exe/rbdock.cxx#4 $)

>  <Rbt.Library>
libRbt.so (2013.1, Build901 2013/11/27)

>  <Rbt.Parameter_File>
/export/apps/rDock/src/rDock_2013.1_src/data/scripts/dock_solv.prm

>  <Rbt.Receptor>
prm/pocket_docking_6.prm

>  <SCORE>
-12.4627

>  <SCORE.INTER>
-12.4627

>  <SCORE.INTER.CONST>
1

>  <SCORE.INTER.POLAR>
0

>  <SCORE.INTER.ROT>
0

>  <SCORE.INTER.SOLV>
4.82682

>  <SCORE.INTER.VDW>
-13.5174

>  <SCORE.INTER.norm>
-1.24627

>  <SCORE.INTRA>
0

>  <SCORE.INTRA.DIHEDRAL>
0

>  <SCORE.INTRA.DIHEDRAL.0>
0

>  <SCORE.INTRA.POLAR>
0

>  <SCORE.INTRA.POLAR.0>
0

>  <SCORE.INTRA.REPUL>
0

>  <SCORE.INTRA.REPUL.0>
0

>  <SCORE.INTRA.SOLV>
0

>  <SCORE.INTRA.SOLV.lig_0>
-23.9151

>  <SCORE.INTRA.VDW>
0

>  <SCORE.INTRA.VDW.0>
0

>  <SCORE.INTRA.norm>
0

>  <SCORE.RESTR>
0

>  <SCORE.RESTR.CAVITY>
0

>  <SCORE.RESTR.norm>
0

>  <SCORE.SYSTEM>
0

>  <SCORE.SYSTEM.CONST>
0

>  <SCORE.SYSTEM.DIHEDRAL>
0

>  <SCORE.SYSTEM.SOLV>
0

>  <SCORE.SYSTEM.norm>
0

>  <SCORE.heavy>
10

>  <SCORE.norm>
-1.24627

>  <RMSD>
2.417

$$$$
ligand
 OpenBabel11021811503D
libRbt.so/2013.1/901 2013/11/27
 10 11  0  0  0  0  0  0  0  0999 V2000
    3.4820  -20.3136   24.6204 N   0  0  0  0  0  0  0  0  0  0  0  0
    2.6158  -20.7733   23.7152 C   0  0  0  0  0  0  0  0  0  0  0  0
    1.3626  -21.2096   23.8924 N   0  0  0  0  0  0  0  0  0  0  0  0
    1.0246  -21.1555   25.1949 C   0  0  0  0  0  0  0  0  0  0  0  0
    1.8076  -20.7085   26.2422 C   0  0  0  0  0  0  0  0  0  0  0  0
    3.1062  -20.2649   25.9226 C   0  0  0  0  0  0  0  0  0  0  0  0
    3.9731  -19.8147   26.8440 N   0  0  0  0  0  0  0  0  0  0  0  0
    1.1255  -20.7907   27.4423 N   0  0  0  0  0  0  0  0  0  0  0  0
   -0.0429  -21.2715   27.1085 C   0  0  0  0  0  0  0  0  0  0  0  0
   -0.1693  -21.5233   25.7681 N   0  0  0  0  0  0  0  0  0  0  0  0
  1  2  2  0  0  0  0
  1  6  1  0  0  0  0
  2  3  1  0  0  0  0
  3  4  2  0  0  0  0
  4  5  1  0  0  0  0
  4 10  1  0  0  0  0
  5  6  2  0  0  0  0
  5  8  1  0  0  0  0
  6  7  1  0  0  0  0
  8  9  1  0  0  0  0
  9 10  2  0  0  0  0
M  END
>  <CHROM.1>
1.83821157,-20.77854526,25.67802142,0.32400159,-0.35493533,-1.71392140

>  <Name>
ligand

>  <RI>
0

>  <Rbt.Current_Directory>
/home/itssahil/PROJECTS/Mol_Feturizer/New_Systems/rnas/4LW0

>  <Rbt.Executable>
rbdock ($Id: //depot/dev/client3/rdock/2013.1/src/exe/rbdock.cxx#4 $)

>  <Rbt.Library>
libRbt.so (2013.1, Build901 2013/11/27)

>  <Rbt.Parameter_File>
/export/apps/rDock/src/rDock_2013.1_src/data/scripts/dock_solv.prm

>  <Rbt.Receptor>
prm/pocket_docking_8.prm

>  <SCORE>
-12.4812

>  <SCORE.INTER>
-12.4812

>  <SCORE.INTER.CONST>
1

>  <SCORE.INTER.POLAR>
0

>  <SCORE.INTER.ROT>
0

>  <SCORE.INTER.SOLV>
5.05605

>  <SCORE.INTER.VDW>
-13.6062

>  <SCORE.INTER.norm>
-1.24812

>  <SCORE.INTRA>
0

>  <SCORE.INTRA.DIHEDRAL>
0

>  <SCORE.INTRA.DIHEDRAL.0>
0

>  <SCORE.INTRA.POLAR>
0

>  <SCORE.INTRA.POLAR.0>
0

>  <SCORE.INTRA.REPUL>
0

>  <SCORE.INTRA.REPUL.0>
0

>  <SCORE.INTRA.SOLV>
0

>  <SCORE.INTRA.SOLV.lig_0>
-23.9151

>  <SCORE.INTRA.VDW>
0

>  <SCORE.INTRA.VDW.0>
0

>  <SCORE.INTRA.norm>
0

>  <SCORE.RESTR>
0

>  <SCORE.RESTR.CAVITY>
0

>  <SCORE.RESTR.norm>
0

>  <SCORE.SYSTEM>
0

>  <SCORE.SYSTEM.CONST>
0

>  <SCORE.SYSTEM.DIHEDRAL>
0

>  <SCORE.SYSTEM.SOLV>
0

>  <SCORE.SYSTEM.norm>
0

>  <SCORE.heavy>
10

>  <SCORE.norm>
-1.24812

>  <RMSD>
2.417

$$$$
ligand
 OpenBabel11021811503D
libRbt.so/2013.1/901 2013/11/27
 10 11  0  0  0  0  0  0  0  0999 V2000
    3.4384  -20.3285   24.4759 N   0  0  0  0  0  0  0  0  0  0  0  0
    2.5363  -20.8251   23.6270 C   0  0  0  0  0  0  0  0  0  0  0  0
    1.2965  -21.2649   23.8758 N   0  0  0  0  0  0  0  0  0  0  0  0
    1.0176  -21.1697   25.1899 C   0  0  0  0  0  0  0  0  0  0  0  0
    1.8433  -20.6818   26.1848 C   0  0  0  0  0  0  0  0  0  0  0  0
    3.1219  -20.2391   25.7916 C   0  0  0  0  0  0  0  0  0  0  0  0
    4.0255  -19.7515   26.6569 N   0  0  0  0  0  0  0  0  0  0  0  0
    1.2173  -20.7290   27.4170 N   0  0  0  0  0  0  0  0  0  0  0  0
    0.0394  -21.2297   27.1531 C   0  0  0  0  0  0  0  0  0  0  0  0
   -0.1454  -21.5273   25.8291 N   0  0  0  0  0  0  0  0  0  0  0  0
  1  2  2  0  0  0  0
  1  6  1  0  0  0  0
  2  3  1  0  0  0  0
  3  4  2  0  0  0  0
  4  5  1  0  0  0  0
  4 10  1  0  0  0  0
  5  6  2  0  0  0  0
  5  8  1  0  0  0  0
  6  7  1  0  0  0  0
  8  9  1  0  0  0  0
  9 10  2  0  0  0  0
M  END
>  <CHROM.1>
1.84885214,-20.77047291,25.62244928,0.37091270,-0.37025973,-1.73066498

>  <Name>
ligand

>  <RI>
0

>  <Rbt.Current_Directory>
/home/itssahil/PROJECTS/Mol_Feturizer/New_Systems/rnas/4LW0

>  <Rbt.Executable>
rbdock ($Id: //depot/dev/client3/rdock/2013.1/src/exe/rbdock.cxx#4 $)

>  <Rbt.Library>
libRbt.so (2013.1, Build901 2013/11/27)

>  <Rbt.Parameter_File>
/export/apps/rDock/src/rDock_2013.1_src/data/scripts/dock_solv.prm

>  <Rbt.Receptor>
prm/pocket_docking_5.prm

>  <SCORE>
-12.4469

>  <SCORE.INTER>
-12.4469

>  <SCORE.INTER.CONST>
1

>  <SCORE.INTER.POLAR>
0

>  <SCORE.INTER.ROT>
0

>  <SCORE.INTER.SOLV>
4.52522

>  <SCORE.INTER.VDW>
-13.4063

>  <SCORE.INTER.norm>
-1.24469

>  <SCORE.INTRA>
0

>  <SCORE.INTRA.DIHEDRAL>
0

>  <SCORE.INTRA.DIHEDRAL.0>
0

>  <SCORE.INTRA.POLAR>
0

>  <SCORE.INTRA.POLAR.0>
0

>  <SCORE.INTRA.REPUL>
0

>  <SCORE.INTRA.REPUL.0>
0

>  <SCORE.INTRA.SOLV>
0

>  <SCORE.INTRA.SOLV.lig_0>
-23.9151

>  <SCORE.INTRA.VDW>
0

>  <SCORE.INTRA.VDW.0>
0

>  <SCORE.INTRA.norm>
0

>  <SCORE.RESTR>
0

>  <SCORE.RESTR.CAVITY>
0

>  <SCORE.RESTR.norm>
0

>  <SCORE.SYSTEM>
0

>  <SCORE.SYSTEM.CONST>
0

>  <SCORE.SYSTEM.DIHEDRAL>
0

>  <SCORE.SYSTEM.SOLV>
0

>  <SCORE.SYSTEM.norm>
0

>  <SCORE.heavy>
10

>  <SCORE.norm>
-1.24469

>  <RMSD>
2.418

$$$$
ligand
 OpenBabel11021811503D
libRbt.so/2013.1/901 2013/11/27
 10 11  0  0  0  0  0  0  0  0999 V2000
    3.4179  -20.2963   24.4989 N   0  0  0  0  0  0  0  0  0  0  0  0
    2.5188  -20.7851   23.6423 C   0  0  0  0  0  0  0  0  0  0  0  0
    1.2807  -21.2336   23.8836 N   0  0  0  0  0  0  0  0  0  0  0  0
    0.9999  -21.1577   25.1985 C   0  0  0  0  0  0  0  0  0  0  0  0
    1.8224  -20.6799   26.2010 C   0  0  0  0  0  0  0  0  0  0  0  0
    3.0995  -20.2263   25.8154 C   0  0  0  0  0  0  0  0  0  0  0  0
    4.0000  -19.7468   26.6883 N   0  0  0  0  0  0  0  0  0  0  0  0
    1.1952  -20.7466   27.4317 N   0  0  0  0  0  0  0  0  0  0  0  0
    0.0198  -21.2488   27.1596 C   0  0  0  0  0  0  0  0  0  0  0  0
   -0.1623  -21.5290   25.8314 N   0  0  0  0  0  0  0  0  0  0  0  0
  1  2  2  0  0  0  0
  1  6  1  0  0  0  0
  2  3  1  0  0  0  0
  3  4  2  0  0  0  0
  4  5  1  0  0  0  0
  4 10  1  0  0  0  0
  5  6  2  0  0  0  0
  5  8  1  0  0  0  0
  6  7  1  0  0  0  0
  8  9  1  0  0  0  0
  9 10  2  0  0  0  0
M  END
>  <CHROM.1>
1.82894553,-20.76083080,25.63751779,0.36899850,-0.37434485,-1.71765324

>  <Name>
ligand

>  <RI>
0

>  <Rbt.Current_Directory>
/home/itssahil/PROJECTS/Mol_Feturizer/New_Systems/rnas/4LW0

>  <Rbt.Executable>
rbdock ($Id: //depot/dev/client3/rdock/2013.1/src/exe/rbdock.cxx#4 $)

>  <Rbt.Library>
libRbt.so (2013.1, Build901 2013/11/27)

>  <Rbt.Parameter_File>
/export/apps/rDock/src/rDock_2013.1_src/data/scripts/dock_solv.prm

>  <Rbt.Receptor>
prm/pocket_docking_7.prm

>  <SCORE>
-12.4562

>  <SCORE.INTER>
-12.4562

>  <SCORE.INTER.CONST>
1

>  <SCORE.INTER.POLAR>
0

>  <SCORE.INTER.ROT>
0

>  <SCORE.INTER.SOLV>
4.68968

>  <SCORE.INTER.VDW>
-13.4674

>  <SCORE.INTER.norm>
-1.24562

>  <SCORE.INTRA>
0

>  <SCORE.INTRA.DIHEDRAL>
0

>  <SCORE.INTRA.DIHEDRAL.0>
0

>  <SCORE.INTRA.POLAR>
0

>  <SCORE.INTRA.POLAR.0>
0

>  <SCORE.INTRA.REPUL>
0

>  <SCORE.INTRA.REPUL.0>
0

>  <SCORE.INTRA.SOLV>
0

>  <SCORE.INTRA.SOLV.lig_0>
-23.9151

>  <SCORE.INTRA.VDW>
0

>  <SCORE.INTRA.VDW.0>
0

>  <SCORE.INTRA.norm>
0

>  <SCORE.RESTR>
0

>  <SCORE.RESTR.CAVITY>
0

>  <SCORE.RESTR.norm>
0

>  <SCORE.SYSTEM>
0

>  <SCORE.SYSTEM.CONST>
0

>  <SCORE.SYSTEM.DIHEDRAL>
0

>  <SCORE.SYSTEM.SOLV>
0

>  <SCORE.SYSTEM.norm>
0

>  <SCORE.heavy>
10

>  <SCORE.norm>
-1.24562

>  <RMSD>
2.420

$$$$
ligand
 OpenBabel11021811503D
libRbt.so/2013.1/901 2013/11/27
 10 11  0  0  0  0  0  0  0  0999 V2000
    2.3370  -21.2706   23.7008 N   0  0  0  0  0  0  0  0  0  0  0  0
    1.1817  -21.3940   24.3574 C   0  0  0  0  0  0  0  0  0  0  0  0
    0.8263  -20.8828   25.5426 N   0  0  0  0  0  0  0  0  0  0  0  0
    1.8427  -20.1782   26.0757 C   0  0  0  0  0  0  0  0  0  0  0  0
    3.0900  -19.9632   25.5210 C   0  0  0  0  0  0  0  0  0  0  0  0
    3.3370  -20.5471   24.2627 C   0  0  0  0  0  0  0  0  0  0  0  0
    4.5078  -20.4252   23.6166 N   0  0  0  0  0  0  0  0  0  0  0  0
    3.8747  -19.1834   26.3509 N   0  0  0  0  0  0  0  0  0  0  0  0
    3.1014  -18.9363   27.3750 C   0  0  0  0  0  0  0  0  0  0  0  0
    1.8632  -19.5139   27.2788 N   0  0  0  0  0  0  0  0  0  0  0  0
  1  2  2  0  0  0  0
  1  6  1  0  0  0  0
  2  3  1  0  0  0  0
  3  4  2  0  0  0  0
  4  5  1  0  0  0  0
  4 10  1  0  0  0  0
  5  6  2  0  0  0  0
  5  8  1  0  0  0  0
  6  7  1  0  0  0  0
  8  9  1  0  0  0  0
  9 10  2  0  0  0  0
M  END
>  <CHROM.1>
2.60274247,-20.23143475,25.39970135,1.52587607,-0.34788246,-2.07226514

>  <Name>
ligand

>  <RI>
0

>  <Rbt.Current_Directory>
/home/itssahil/PROJECTS/Mol_Feturizer/New_Systems/rnas/4LW0

>  <Rbt.Executable>
rbdock ($Id: //depot/dev/client3/rdock/2013.1/src/exe/rbdock.cxx#4 $)

>  <Rbt.Library>
libRbt.so (2013.1, Build901 2013/11/27)

>  <Rbt.Parameter_File>
/export/apps/rDock/src/rDock_2013.1_src/data/scripts/dock_solv.prm

>  <Rbt.Receptor>
prm/pocket_docking_8.prm

>  <SCORE>
-11.2091

>  <SCORE.INTER>
-11.2091

>  <SCORE.INTER.CONST>
1

>  <SCORE.INTER.POLAR>
0

>  <SCORE.INTER.ROT>
0

>  <SCORE.INTER.SOLV>
2.29625

>  <SCORE.INTER.VDW>
-11.8381

>  <SCORE.INTER.norm>
-1.12091

>  <SCORE.INTRA>
0

>  <SCORE.INTRA.DIHEDRAL>
0

>  <SCORE.INTRA.DIHEDRAL.0>
0

>  <SCORE.INTRA.POLAR>
0

>  <SCORE.INTRA.POLAR.0>
0

>  <SCORE.INTRA.REPUL>
0

>  <SCORE.INTRA.REPUL.0>
0

>  <SCORE.INTRA.SOLV>
0

>  <SCORE.INTRA.SOLV.lig_0>
-23.9151

>  <SCORE.INTRA.VDW>
0

>  <SCORE.INTRA.VDW.0>
0

>  <SCORE.INTRA.norm>
0

>  <SCORE.RESTR>
0

>  <SCORE.RESTR.CAVITY>
0

>  <SCORE.RESTR.norm>
0

>  <SCORE.SYSTEM>
0

>  <SCORE.SYSTEM.CONST>
0

>  <SCORE.SYSTEM.DIHEDRAL>
0

>  <SCORE.SYSTEM.SOLV>
0

>  <SCORE.SYSTEM.norm>
0

>  <SCORE.heavy>
10

>  <SCORE.norm>
-1.12091

>  <RMSD>
2.680

$$$$
ligand
 OpenBabel11021811503D
libRbt.so/2013.1/901 2013/11/27
 10 11  0  0  0  0  0  0  0  0999 V2000
    2.3326  -21.1593   23.6491 N   0  0  0  0  0  0  0  0  0  0  0  0
    1.1826  -21.3144   24.3082 C   0  0  0  0  0  0  0  0  0  0  0  0
    0.8287  -20.8419   25.5098 N   0  0  0  0  0  0  0  0  0  0  0  0
    1.8405  -20.1420   26.0576 C   0  0  0  0  0  0  0  0  0  0  0  0
    3.0821  -19.8973   25.5025 C   0  0  0  0  0  0  0  0  0  0  0  0
    3.3280  -20.4415   24.2263 C   0  0  0  0  0  0  0  0  0  0  0  0
    4.4937  -20.2881   23.5776 N   0  0  0  0  0  0  0  0  0  0  0  0
    3.8632  -19.1335   26.3504 N   0  0  0  0  0  0  0  0  0  0  0  0
    3.0933  -18.9248   27.3856 C   0  0  0  0  0  0  0  0  0  0  0  0
    1.8609  -19.5129   27.2794 N   0  0  0  0  0  0  0  0  0  0  0  0
  1  2  2  0  0  0  0
  1  6  1  0  0  0  0
  2  3  1  0  0  0  0
  3  4  2  0  0  0  0
  4  5  1  0  0  0  0
  4 10  1  0  0  0  0
  5  6  2  0  0  0  0
  5  8  1  0  0  0  0
  6  7  1  0  0  0  0
  8  9  1  0  0  0  0
  9 10  2  0  0  0  0
M  END
>  <CHROM.1>
2.59711201,-20.16723881,25.37609311,1.52583437,-0.36016860,-2.04311423

>  <Name>
ligand

>  <RI>
0

>  <Rbt.Current_Directory>
/home/itssahil/PROJECTS/Mol_Feturizer/New_Systems/rnas/4LW0

>  <Rbt.Executable>
rbdock ($Id: //depot/dev/client3/rdock/2013.1/src/exe/rbdock.cxx#4 $)

>  <Rbt.Library>
libRbt.so (2013.1, Build901 2013/11/27)

>  <Rbt.Parameter_File>
/export/apps/rDock/src/rDock_2013.1_src/data/scripts/dock_solv.prm

>  <Rbt.Receptor>
prm/pocket_docking_8.prm

>  <SCORE>
-11.2747

>  <SCORE.INTER>
-11.2747

>  <SCORE.INTER.CONST>
1

>  <SCORE.INTER.POLAR>
0

>  <SCORE.INTER.ROT>
0

>  <SCORE.INTER.SOLV>
2.22558

>  <SCORE.INTER.VDW>
-11.8584

>  <SCORE.INTER.norm>
-1.12747

>  <SCORE.INTRA>
0

>  <SCORE.INTRA.DIHEDRAL>
0

>  <SCORE.INTRA.DIHEDRAL.0>
0

>  <SCORE.INTRA.POLAR>
0

>  <SCORE.INTRA.POLAR.0>
0

>  <SCORE.INTRA.REPUL>
0

>  <SCORE.INTRA.REPUL.0>
0

>  <SCORE.INTRA.SOLV>
0

>  <SCORE.INTRA.SOLV.lig_0>
-23.9151

>  <SCORE.INTRA.VDW>
0

>  <SCORE.INTRA.VDW.0>
0

>  <SCORE.INTRA.norm>
0

>  <SCORE.RESTR>
0

>  <SCORE.RESTR.CAVITY>
0

>  <SCORE.RESTR.norm>
0

>  <SCORE.SYSTEM>
0

>  <SCORE.SYSTEM.CONST>
0

>  <SCORE.SYSTEM.DIHEDRAL>
0

>  <SCORE.SYSTEM.SOLV>
0

>  <SCORE.SYSTEM.norm>
0

>  <SCORE.heavy>
10

>  <SCORE.norm>
-1.12747

>  <RMSD>
2.686

$$$$
ligand
 OpenBabel11021811503D
libRbt.so/2013.1/901 2013/11/27
 10 11  0  0  0  0  0  0  0  0999 V2000
    1.2924  -21.6831   24.3935 N   0  0  0  0  0  0  0  0  0  0  0  0
    0.2791  -21.4060   25.2166 C   0  0  0  0  0  0  0  0  0  0  0  0
    0.2608  -20.6122   26.2945 N   0  0  0  0  0  0  0  0  0  0  0  0
    1.4788  -20.0787   26.5075 C   0  0  0  0  0  0  0  0  0  0  0  0
    2.6180  -20.2708   25.7493 C   0  0  0  0  0  0  0  0  0  0  0  0
    2.5039  -21.1222   24.6324 C   0  0  0  0  0  0  0  0  0  0  0  0
    3.5339  -21.4024   23.8177 N   0  0  0  0  0  0  0  0  0  0  0  0
    3.6836  -19.5554   26.2642 N   0  0  0  0  0  0  0  0  0  0  0  0
    3.1804  -18.9456   27.3047 C   0  0  0  0  0  0  0  0  0  0  0  0
    1.8560  -19.2238   27.5155 N   0  0  0  0  0  0  0  0  0  0  0  0
  1  2  2  0  0  0  0
  1  6  1  0  0  0  0
  2  3  1  0  0  0  0
  3  4  2  0  0  0  0
  4  5  1  0  0  0  0
  4 10  1  0  0  0  0
  5  6  2  0  0  0  0
  5  8  1  0  0  0  0
  6  7  1  0  0  0  0
  8  9  1  0  0  0  0
  9 10  2  0  0  0  0
M  END
>  <CHROM.1>
2.07303771,-20.43503678,25.76095120,1.79735546,-0.24993835,-2.20369928

>  <Name>
ligand

>  <RI>
0

>  <Rbt.Current_Directory>
/home/itssahil/PROJECTS/Mol_Feturizer/New_Systems/rnas/4LW0

>  <Rbt.Executable>
rbdock ($Id: //depot/dev/client3/rdock/2013.1/src/exe/rbdock.cxx#4 $)

>  <Rbt.Library>
libRbt.so (2013.1, Build901 2013/11/27)

>  <Rbt.Parameter_File>
/export/apps/rDock/src/rDock_2013.1_src/data/scripts/dock_solv.prm

>  <Rbt.Receptor>
prm/pocket_docking_4.prm

>  <SCORE>
-11.4889

>  <SCORE.INTER>
-11.4889

>  <SCORE.INTER.CONST>
1

>  <SCORE.INTER.POLAR>
0

>  <SCORE.INTER.ROT>
0

>  <SCORE.INTER.SOLV>
7.24988

>  <SCORE.INTER.VDW>
-13.6759

>  <SCORE.INTER.norm>
-1.14889

>  <SCORE.INTRA>
0

>  <SCORE.INTRA.DIHEDRAL>
0

>  <SCORE.INTRA.DIHEDRAL.0>
0

>  <SCORE.INTRA.POLAR>
0

>  <SCORE.INTRA.POLAR.0>
0

>  <SCORE.INTRA.REPUL>
0

>  <SCORE.INTRA.REPUL.0>
0

>  <SCORE.INTRA.SOLV>
0

>  <SCORE.INTRA.SOLV.lig_0>
-23.9151

>  <SCORE.INTRA.VDW>
0

>  <SCORE.INTRA.VDW.0>
0

>  <SCORE.INTRA.norm>
0

>  <SCORE.RESTR>
0

>  <SCORE.RESTR.CAVITY>
0

>  <SCORE.RESTR.norm>
0

>  <SCORE.SYSTEM>
0

>  <SCORE.SYSTEM.CONST>
0

>  <SCORE.SYSTEM.DIHEDRAL>
0

>  <SCORE.SYSTEM.SOLV>
0

>  <SCORE.SYSTEM.norm>
0

>  <SCORE.heavy>
10

>  <SCORE.norm>
-1.14889

>  <RMSD>
2.725

$$$$
ligand
 OpenBabel11021811503D
libRbt.so/2013.1/901 2013/11/27
 10 11  0  0  0  0  0  0  0  0999 V2000
    2.3875  -19.2023   27.2168 N   0  0  0  0  0  0  0  0  0  0  0  0
    1.1862  -19.7696   27.0897 C   0  0  0  0  0  0  0  0  0  0  0  0
    0.7265  -20.5616   26.1132 N   0  0  0  0  0  0  0  0  0  0  0  0
    1.6689  -20.7395   25.1677 C   0  0  0  0  0  0  0  0  0  0  0  0
    2.9495  -20.2202   25.1582 C   0  0  0  0  0  0  0  0  0  0  0  0
    3.3162  -19.4088   26.2502 C   0  0  0  0  0  0  0  0  0  0  0  0
    4.5247  -18.8342   26.3615 N   0  0  0  0  0  0  0  0  0  0  0  0
    3.6397  -20.6221   24.0292 N   0  0  0  0  0  0  0  0  0  0  0  0
    2.7836  -21.3717   23.3866 C   0  0  0  0  0  0  0  0  0  0  0  0
    1.5703  -21.4784   24.0130 N   0  0  0  0  0  0  0  0  0  0  0  0
  1  2  2  0  0  0  0
  1  6  1  0  0  0  0
  2  3  1  0  0  0  0
  3  4  2  0  0  0  0
  4  5  1  0  0  0  0
  4 10  1  0  0  0  0
  5  6  2  0  0  0  0
  5  8  1  0  0  0  0
  6  7  1  0  0  0  0
  8  9  1  0  0  0  0
  9 10  2  0  0  0  0
M  END
>  <CHROM.1>
2.48255143,-20.21460790,25.48383955,1.43548385,0.33897369,1.02451062

>  <Name>
ligand

>  <RI>
0

>  <Rbt.Current_Directory>
/home/itssahil/PROJECTS/Mol_Feturizer/New_Systems/rnas/4LW0

>  <Rbt.Executable>
rbdock ($Id: //depot/dev/client3/rdock/2013.1/src/exe/rbdock.cxx#4 $)

>  <Rbt.Library>
libRbt.so (2013.1, Build901 2013/11/27)

>  <Rbt.Parameter_File>
/export/apps/rDock/src/rDock_2013.1_src/data/scripts/dock_solv.prm

>  <Rbt.Receptor>
prm/pocket_docking_7.prm

>  <SCORE>
-10.9397

>  <SCORE.INTER>
-10.9397

>  <SCORE.INTER.CONST>
1

>  <SCORE.INTER.POLAR>
0

>  <SCORE.INTER.ROT>
0

>  <SCORE.INTER.SOLV>
4.93667

>  <SCORE.INTER.VDW>
-12.5387

>  <SCORE.INTER.norm>
-1.09397

>  <SCORE.INTRA>
0

>  <SCORE.INTRA.DIHEDRAL>
0

>  <SCORE.INTRA.DIHEDRAL.0>
0

>  <SCORE.INTRA.POLAR>
0

>  <SCORE.INTRA.POLAR.0>
0

>  <SCORE.INTRA.REPUL>
0

>  <SCORE.INTRA.REPUL.0>
0

>  <SCORE.INTRA.SOLV>
0

>  <SCORE.INTRA.SOLV.lig_0>
-23.9151

>  <SCORE.INTRA.VDW>
0

>  <SCORE.INTRA.VDW.0>
0

>  <SCORE.INTRA.norm>
0

>  <SCORE.RESTR>
0

>  <SCORE.RESTR.CAVITY>
0

>  <SCORE.RESTR.norm>
0

>  <SCORE.SYSTEM>
0

>  <SCORE.SYSTEM.CONST>
0

>  <SCORE.SYSTEM.DIHEDRAL>
0

>  <SCORE.SYSTEM.SOLV>
0

>  <SCORE.SYSTEM.norm>
0

>  <SCORE.heavy>
10

>  <SCORE.norm>
-1.09397

>  <RMSD>
2.967

$$$$
ligand
 OpenBabel11021811503D
libRbt.so/2013.1/901 2013/11/27
 10 11  0  0  0  0  0  0  0  0999 V2000
    1.5339  -19.5504   27.4363 N   0  0  0  0  0  0  0  0  0  0  0  0
    0.3897  -20.0638   26.9800 C   0  0  0  0  0  0  0  0  0  0  0  0
    0.1625  -20.7470   25.8513 N   0  0  0  0  0  0  0  0  0  0  0  0
    1.2978  -20.8679   25.1371 C   0  0  0  0  0  0  0  0  0  0  0  0
    2.5506  -20.3922   25.4748 C   0  0  0  0  0  0  0  0  0  0  0  0
    2.6605  -19.6974   26.6957 C   0  0  0  0  0  0  0  0  0  0  0  0
    3.8154  -19.1754   27.1391 N   0  0  0  0  0  0  0  0  0  0  0  0
    3.4812  -20.7108   24.5028 N   0  0  0  0  0  0  0  0  0  0  0  0
    2.7912  -21.3696   23.6096 C   0  0  0  0  0  0  0  0  0  0  0  0
    1.4641  -21.4936   23.9247 N   0  0  0  0  0  0  0  0  0  0  0  0
  1  2  2  0  0  0  0
  1  6  1  0  0  0  0
  2  3  1  0  0  0  0
  3  4  2  0  0  0  0
  4  5  1  0  0  0  0
  4 10  1  0  0  0  0
  5  6  2  0  0  0  0
  5  8  1  0  0  0  0
  6  7  1  0  0  0  0
  8  9  1  0  0  0  0
  9 10  2  0  0  0  0
M  END
>  <CHROM.1>
2.02057184,-20.40133383,25.68248270,1.63502179,0.20176603,1.06707852

>  <Name>
ligand

>  <RI>
0

>  <Rbt.Current_Directory>
/home/itssahil/PROJECTS/Mol_Feturizer/New_Systems/rnas/4LW0

>  <Rbt.Executable>
rbdock ($Id: //depot/dev/client3/rdock/2013.1/src/exe/rbdock.cxx#4 $)

>  <Rbt.Library>
libRbt.so (2013.1, Build901 2013/11/27)

>  <Rbt.Parameter_File>
/export/apps/rDock/src/rDock_2013.1_src/data/scripts/dock_solv.prm

>  <Rbt.Receptor>
prm/pocket_docking_7.prm

>  <SCORE>
-10.7035

>  <SCORE.INTER>
-10.7035

>  <SCORE.INTER.CONST>
1

>  <SCORE.INTER.POLAR>
0

>  <SCORE.INTER.ROT>
0

>  <SCORE.INTER.SOLV>
8.79059

>  <SCORE.INTER.VDW>
-13.6658

>  <SCORE.INTER.norm>
-1.07035

>  <SCORE.INTRA>
0

>  <SCORE.INTRA.DIHEDRAL>
0

>  <SCORE.INTRA.DIHEDRAL.0>
0

>  <SCORE.INTRA.POLAR>
0

>  <SCORE.INTRA.POLAR.0>
0

>  <SCORE.INTRA.REPUL>
0

>  <SCORE.INTRA.REPUL.0>
0

>  <SCORE.INTRA.SOLV>
0

>  <SCORE.INTRA.SOLV.lig_0>
-23.9151

>  <SCORE.INTRA.VDW>
0

>  <SCORE.INTRA.VDW.0>
0

>  <SCORE.INTRA.norm>
0

>  <SCORE.RESTR>
0

>  <SCORE.RESTR.CAVITY>
0

>  <SCORE.RESTR.norm>
0

>  <SCORE.SYSTEM>
0

>  <SCORE.SYSTEM.CONST>
0

>  <SCORE.SYSTEM.DIHEDRAL>
0

>  <SCORE.SYSTEM.SOLV>
0

>  <SCORE.SYSTEM.norm>
0

>  <SCORE.heavy>
10

>  <SCORE.norm>
-1.07035

>  <RMSD>
3.179

$$$$
ligand
 OpenBabel11021811503D
libRbt.so/2013.1/901 2013/11/27
 10 11  0  0  0  0  0  0  0  0999 V2000
    1.5100  -19.5569   27.4115 N   0  0  0  0  0  0  0  0  0  0  0  0
    0.3693  -20.0666   26.9424 C   0  0  0  0  0  0  0  0  0  0  0  0
    0.1511  -20.7418   25.8071 N   0  0  0  0  0  0  0  0  0  0  0  0
    1.2921  -20.8582   25.1013 C   0  0  0  0  0  0  0  0  0  0  0  0
    2.5422  -20.3854   25.4525 C   0  0  0  0  0  0  0  0  0  0  0  0
    2.6425  -19.6991   26.6790 C   0  0  0  0  0  0  0  0  0  0  0  0
    3.7940  -19.1808   27.1354 N   0  0  0  0  0  0  0  0  0  0  0  0
    3.4806  -20.6976   24.4858 N   0  0  0  0  0  0  0  0  0  0  0  0
    2.7976  -21.3498   23.5825 C   0  0  0  0  0  0  0  0  0  0  0  0
    1.4679  -21.4755   23.8860 N   0  0  0  0  0  0  0  0  0  0  0  0
  1  2  2  0  0  0  0
  1  6  1  0  0  0  0
  2  3  1  0  0  0  0
  3  4  2  0  0  0  0
  4  5  1  0  0  0  0
  4 10  1  0  0  0  0
  5  6  2  0  0  0  0
  5  8  1  0  0  0  0
  6  7  1  0  0  0  0
  8  9  1  0  0  0  0
  9 10  2  0  0  0  0
M  END
>  <CHROM.1>
2.01056908,-20.39575573,25.65578149,1.64207948,0.19752821,1.07266046

>  <Name>
ligand

>  <RI>
0

>  <Rbt.Current_Directory>
/home/itssahil/PROJECTS/Mol_Feturizer/New_Systems/rnas/4LW0

>  <Rbt.Executable>
rbdock ($Id: //depot/dev/client3/rdock/2013.1/src/exe/rbdock.cxx#4 $)

>  <Rbt.Library>
libRbt.so (2013.1, Build901 2013/11/27)

>  <Rbt.Parameter_File>
/export/apps/rDock/src/rDock_2013.1_src/data/scripts/dock_solv.prm

>  <Rbt.Receptor>
prm/pocket_docking_8.prm

>  <SCORE>
-10.6954

>  <SCORE.INTER>
-10.6954

>  <SCORE.INTER.CONST>
1

>  <SCORE.INTER.POLAR>
0

>  <SCORE.INTER.ROT>
0

>  <SCORE.INTER.SOLV>
8.83126

>  <SCORE.INTER.VDW>
-13.674

>  <SCORE.INTER.norm>
-1.06954

>  <SCORE.INTRA>
0

>  <SCORE.INTRA.DIHEDRAL>
0

>  <SCORE.INTRA.DIHEDRAL.0>
0

>  <SCORE.INTRA.POLAR>
0

>  <SCORE.INTRA.POLAR.0>
0

>  <SCORE.INTRA.REPUL>
0

>  <SCORE.INTRA.REPUL.0>
0

>  <SCORE.INTRA.SOLV>
0

>  <SCORE.INTRA.SOLV.lig_0>
-23.9151

>  <SCORE.INTRA.VDW>
0

>  <SCORE.INTRA.VDW.0>
0

>  <SCORE.INTRA.norm>
0

>  <SCORE.RESTR>
0

>  <SCORE.RESTR.CAVITY>
0

>  <SCORE.RESTR.norm>
0

>  <SCORE.SYSTEM>
0

>  <SCORE.SYSTEM.CONST>
0

>  <SCORE.SYSTEM.DIHEDRAL>
0

>  <SCORE.SYSTEM.SOLV>
0

>  <SCORE.SYSTEM.norm>
0

>  <SCORE.heavy>
10

>  <SCORE.norm>
-1.06954

>  <RMSD>
3.189

$$$$
ligand
 OpenBabel11021811503D
libRbt.so/2013.1/901 2013/11/27
 10 11  0  0  0  0  0  0  0  0999 V2000
    1.5008  -19.5807   27.4231 N   0  0  0  0  0  0  0  0  0  0  0  0
    0.3604  -20.0796   26.9418 C   0  0  0  0  0  0  0  0  0  0  0  0
    0.1461  -20.7445   25.7997 N   0  0  0  0  0  0  0  0  0  0  0  0
    1.2914  -20.8625   25.1012 C   0  0  0  0  0  0  0  0  0  0  0  0
    2.5419  -20.4003   25.4650 C   0  0  0  0  0  0  0  0  0  0  0  0
    2.6376  -19.7243   26.6976 C   0  0  0  0  0  0  0  0  0  0  0  0
    3.7890  -19.2168   27.1663 N   0  0  0  0  0  0  0  0  0  0  0  0
    3.4853  -20.7108   24.5027 N   0  0  0  0  0  0  0  0  0  0  0  0
    2.8047  -21.3516   23.5894 C   0  0  0  0  0  0  0  0  0  0  0  0
    1.4722  -21.4714   23.8823 N   0  0  0  0  0  0  0  0  0  0  0  0
  1  2  2  0  0  0  0
  1  6  1  0  0  0  0
  2  3  1  0  0  0  0
  3  4  2  0  0  0  0
  4  5  1  0  0  0  0
  4 10  1  0  0  0  0
  5  6  2  0  0  0  0
  5  8  1  0  0  0  0
  6  7  1  0  0  0  0
  8  9  1  0  0  0  0
  9 10  2  0  0  0  0
M  END
>  <CHROM.1>
2.00875760,-20.40894125,25.66441045,1.64550090,0.18864657,1.07986240

>  <Name>
ligand

>  <RI>
0

>  <Rbt.Current_Directory>
/home/itssahil/PROJECTS/Mol_Feturizer/New_Systems/rnas/4LW0

>  <Rbt.Executable>
rbdock ($Id: //depot/dev/client3/rdock/2013.1/src/exe/rbdock.cxx#4 $)

>  <Rbt.Library>
libRbt.so (2013.1, Build901 2013/11/27)

>  <Rbt.Parameter_File>
/export/apps/rDock/src/rDock_2013.1_src/data/scripts/dock_solv.prm

>  <Rbt.Receptor>
prm/pocket_docking_4.prm

>  <SCORE>
-10.7216

>  <SCORE.INTER>
-10.7216

>  <SCORE.INTER.CONST>
1

>  <SCORE.INTER.POLAR>
0

>  <SCORE.INTER.ROT>
0

>  <SCORE.INTER.SOLV>
8.81712

>  <SCORE.INTER.VDW>
-13.6868

>  <SCORE.INTER.norm>
-1.07216

>  <SCORE.INTRA>
0

>  <SCORE.INTRA.DIHEDRAL>
0

>  <SCORE.INTRA.DIHEDRAL.0>
0

>  <SCORE.INTRA.POLAR>
0

>  <SCORE.INTRA.POLAR.0>
0

>  <SCORE.INTRA.REPUL>
0

>  <SCORE.INTRA.REPUL.0>
0

>  <SCORE.INTRA.SOLV>
0

>  <SCORE.INTRA.SOLV.lig_0>
-23.9151

>  <SCORE.INTRA.VDW>
0

>  <SCORE.INTRA.VDW.0>
0

>  <SCORE.INTRA.norm>
0

>  <SCORE.RESTR>
0

>  <SCORE.RESTR.CAVITY>
0

>  <SCORE.RESTR.norm>
0

>  <SCORE.SYSTEM>
0

>  <SCORE.SYSTEM.CONST>
0

>  <SCORE.SYSTEM.DIHEDRAL>
0

>  <SCORE.SYSTEM.SOLV>
0

>  <SCORE.SYSTEM.norm>
0

>  <SCORE.heavy>
10

>  <SCORE.norm>
-1.07216

>  <RMSD>
3.194

$$$$
ligand
 OpenBabel11021811503D
libRbt.so/2013.1/901 2013/11/27
 10 11  0  0  0  0  0  0  0  0999 V2000
   -9.0290  -19.7682   25.5481 N   0  0  0  0  0  0  0  0  0  0  0  0
   -7.8935  -19.9329   26.2298 C   0  0  0  0  0  0  0  0  0  0  0  0
   -7.0735  -19.0054   26.7393 N   0  0  0  0  0  0  0  0  0  0  0  0
   -7.5297  -17.7692   26.4614 C   0  0  0  0  0  0  0  0  0  0  0  0
   -8.6798  -17.4404   25.7695 C   0  0  0  0  0  0  0  0  0  0  0  0
   -9.4642  -18.5094   25.2926 C   0  0  0  0  0  0  0  0  0  0  0  0
  -10.5994  -18.3311   24.5980 N   0  0  0  0  0  0  0  0  0  0  0  0
   -8.8327  -16.0686   25.6840 N   0  0  0  0  0  0  0  0  0  0  0  0
   -7.7942  -15.5955   26.3208 C   0  0  0  0  0  0  0  0  0  0  0  0
   -6.9610  -16.5670   26.8083 N   0  0  0  0  0  0  0  0  0  0  0  0
  1  2  2  0  0  0  0
  1  6  1  0  0  0  0
  2  3  1  0  0  0  0
  3  4  2  0  0  0  0
  4  5  1  0  0  0  0
  4 10  1  0  0  0  0
  5  6  2  0  0  0  0
  5  8  1  0  0  0  0
  6  7  1  0  0  0  0
  8  9  1  0  0  0  0
  9 10  2  0  0  0  0
M  END
>  <CHROM.1>
-8.39440633,-17.90253611,25.93983397,-2.13423377,-0.54466270,0.00499217

>  <Name>
ligand

>  <RI>
0

>  <Rbt.Current_Directory>
/home/itssahil/PROJECTS/Mol_Feturizer/New_Systems/rnas/4LW0

>  <Rbt.Executable>
rbdock ($Id: //depot/dev/client3/rdock/2013.1/src/exe/rbdock.cxx#4 $)

>  <Rbt.Library>
libRbt.so (2013.1, Build901 2013/11/27)

>  <Rbt.Parameter_File>
/export/apps/rDock/src/rDock_2013.1_src/data/scripts/dock_solv.prm

>  <Rbt.Receptor>
prm/blind_docking_40.prm

>  <SCORE>
-9.93357

>  <SCORE.INTER>
-9.93357

>  <SCORE.INTER.CONST>
1

>  <SCORE.INTER.POLAR>
0

>  <SCORE.INTER.ROT>
0

>  <SCORE.INTER.SOLV>
2.60254

>  <SCORE.INTER.VDW>
-11.0899

>  <SCORE.INTER.norm>
-0.993357

>  <SCORE.INTRA>
0

>  <SCORE.INTRA.DIHEDRAL>
0

>  <SCORE.INTRA.DIHEDRAL.0>
0

>  <SCORE.INTRA.POLAR>
0

>  <SCORE.INTRA.POLAR.0>
0

>  <SCORE.INTRA.REPUL>
0

>  <SCORE.INTRA.REPUL.0>
0

>  <SCORE.INTRA.SOLV>
0

>  <SCORE.INTRA.SOLV.lig_0>
-23.9151

>  <SCORE.INTRA.VDW>
0

>  <SCORE.INTRA.VDW.0>
0

>  <SCORE.INTRA.norm>
0

>  <SCORE.RESTR>
0

>  <SCORE.RESTR.CAVITY>
0

>  <SCORE.RESTR.norm>
0

>  <SCORE.SYSTEM>
0

>  <SCORE.SYSTEM.CONST>
0

>  <SCORE.SYSTEM.DIHEDRAL>
0

>  <SCORE.SYSTEM.SOLV>
0

>  <SCORE.SYSTEM.norm>
0

>  <SCORE.heavy>
10

>  <SCORE.norm>
-0.993357

>  <RMSD>
11.219

$$$$
ligand
 OpenBabel11021811503D
libRbt.so/2013.1/901 2013/11/27
 10 11  0  0  0  0  0  0  0  0999 V2000
   -8.3454  -14.8098   26.2490 N   0  0  0  0  0  0  0  0  0  0  0  0
   -7.1071  -15.0538   26.6825 C   0  0  0  0  0  0  0  0  0  0  0  0
   -6.4948  -16.2299   26.8679 N   0  0  0  0  0  0  0  0  0  0  0  0
   -7.3251  -17.2462   26.5660 C   0  0  0  0  0  0  0  0  0  0  0  0
   -8.6262  -17.1531   26.1098 C   0  0  0  0  0  0  0  0  0  0  0  0
   -9.1528  -15.8565   25.9459 C   0  0  0  0  0  0  0  0  0  0  0  0
  -10.4045  -15.6236   25.5195 N   0  0  0  0  0  0  0  0  0  0  0  0
   -9.1687  -18.4073   25.8972 N   0  0  0  0  0  0  0  0  0  0  0  0
   -8.2019  -19.2270   26.2155 C   0  0  0  0  0  0  0  0  0  0  0  0
   -7.0628  -18.5936   26.6365 N   0  0  0  0  0  0  0  0  0  0  0  0
  1  2  2  0  0  0  0
  1  6  1  0  0  0  0
  2  3  1  0  0  0  0
  3  4  2  0  0  0  0
  4  5  1  0  0  0  0
  4 10  1  0  0  0  0
  5  6  2  0  0  0  0
  5  8  1  0  0  0  0
  6  7  1  0  0  0  0
  8  9  1  0  0  0  0
  9 10  2  0  0  0  0
M  END
>  <CHROM.1>
-8.19707958,-16.81337638,26.26630818,-1.83517546,0.33636539,-3.12343975

>  <Name>
ligand

>  <RI>
0

>  <Rbt.Current_Directory>
/home/itssahil/PROJECTS/Mol_Feturizer/New_Systems/rnas/4LW0

>  <Rbt.Executable>
rbdock ($Id: //depot/dev/client3/rdock/2013.1/src/exe/rbdock.cxx#4 $)

>  <Rbt.Library>
libRbt.so (2013.1, Build901 2013/11/27)

>  <Rbt.Parameter_File>
/export/apps/rDock/src/rDock_2013.1_src/data/scripts/dock_solv.prm

>  <Rbt.Receptor>
prm/blind_docking_40.prm

>  <SCORE>
-9.37833

>  <SCORE.INTER>
-9.37833

>  <SCORE.INTER.CONST>
1

>  <SCORE.INTER.POLAR>
0

>  <SCORE.INTER.ROT>
0

>  <SCORE.INTER.SOLV>
2.82162

>  <SCORE.INTER.VDW>
-10.7928

>  <SCORE.INTER.norm>
-0.937833

>  <SCORE.INTRA>
0

>  <SCORE.INTRA.DIHEDRAL>
0

>  <SCORE.INTRA.DIHEDRAL.0>
0

>  <SCORE.INTRA.POLAR>
0

>  <SCORE.INTRA.POLAR.0>
0

>  <SCORE.INTRA.REPUL>
0

>  <SCORE.INTRA.REPUL.0>
0

>  <SCORE.INTRA.SOLV>
0

>  <SCORE.INTRA.SOLV.lig_0>
-23.9151

>  <SCORE.INTRA.VDW>
0

>  <SCORE.INTRA.VDW.0>
0

>  <SCORE.INTRA.norm>
0

>  <SCORE.RESTR>
0

>  <SCORE.RESTR.CAVITY>
0

>  <SCORE.RESTR.norm>
0

>  <SCORE.SYSTEM>
0

>  <SCORE.SYSTEM.CONST>
0

>  <SCORE.SYSTEM.DIHEDRAL>
0

>  <SCORE.SYSTEM.SOLV>
0

>  <SCORE.SYSTEM.norm>
0

>  <SCORE.heavy>
10

>  <SCORE.norm>
-0.937833

>  <RMSD>
11.244

$$$$
ligand
 OpenBabel11021811503D
libRbt.so/2013.1/901 2013/11/27
 10 11  0  0  0  0  0  0  0  0999 V2000
   -8.3419  -14.7489   26.2578 N   0  0  0  0  0  0  0  0  0  0  0  0
   -7.1134  -15.0153   26.7059 C   0  0  0  0  0  0  0  0  0  0  0  0
   -6.5188  -16.2017   26.8826 N   0  0  0  0  0  0  0  0  0  0  0  0
   -7.3572  -17.2027   26.5530 C   0  0  0  0  0  0  0  0  0  0  0  0
   -8.6501  -17.0862   26.0790 C   0  0  0  0  0  0  0  0  0  0  0  0
   -9.1577  -15.7806   25.9269 C   0  0  0  0  0  0  0  0  0  0  0  0
  -10.3999  -15.5254   25.4856 N   0  0  0  0  0  0  0  0  0  0  0  0
   -9.2049  -18.3300   25.8393 N   0  0  0  0  0  0  0  0  0  0  0  0
   -8.2534  -19.1666   26.1596 C   0  0  0  0  0  0  0  0  0  0  0  0
   -7.1130  -18.5542   26.6070 N   0  0  0  0  0  0  0  0  0  0  0  0
  1  2  2  0  0  0  0
  1  6  1  0  0  0  0
  2  3  1  0  0  0  0
  3  4  2  0  0  0  0
  4  5  1  0  0  0  0
  4 10  1  0  0  0  0
  5  6  2  0  0  0  0
  5  8  1  0  0  0  0
  6  7  1  0  0  0  0
  8  9  1  0  0  0  0
  9 10  2  0  0  0  0
M  END
>  <CHROM.1>
-8.21906872,-16.75433674,26.24694088,-1.82208227,0.35161100,-3.11280053

>  <Name>
ligand

>  <RI>
0

>  <Rbt.Current_Directory>
/home/itssahil/PROJECTS/Mol_Feturizer/New_Systems/rnas/4LW0

>  <Rbt.Executable>
rbdock ($Id: //depot/dev/client3/rdock/2013.1/src/exe/rbdock.cxx#4 $)

>  <Rbt.Library>
libRbt.so (2013.1, Build901 2013/11/27)

>  <Rbt.Parameter_File>
/export/apps/rDock/src/rDock_2013.1_src/data/scripts/dock_solv.prm

>  <Rbt.Receptor>
prm/blind_docking_40.prm

>  <SCORE>
-9.37804

>  <SCORE.INTER>
-9.37804

>  <SCORE.INTER.CONST>
1

>  <SCORE.INTER.POLAR>
0

>  <SCORE.INTER.ROT>
0

>  <SCORE.INTER.SOLV>
2.84691

>  <SCORE.INTER.VDW>
-10.801

>  <SCORE.INTER.norm>
-0.937804

>  <SCORE.INTRA>
0

>  <SCORE.INTRA.DIHEDRAL>
0

>  <SCORE.INTRA.DIHEDRAL.0>
0

>  <SCORE.INTRA.POLAR>
0

>  <SCORE.INTRA.POLAR.0>
0

>  <SCORE.INTRA.REPUL>
0

>  <SCORE.INTRA.REPUL.0>
0

>  <SCORE.INTRA.SOLV>
0

>  <SCORE.INTRA.SOLV.lig_0>
-23.9151

>  <SCORE.INTRA.VDW>
0

>  <SCORE.INTRA.VDW.0>
0

>  <SCORE.INTRA.norm>
0

>  <SCORE.RESTR>
0

>  <SCORE.RESTR.CAVITY>
0

>  <SCORE.RESTR.norm>
0

>  <SCORE.SYSTEM>
0

>  <SCORE.SYSTEM.CONST>
0

>  <SCORE.SYSTEM.DIHEDRAL>
0

>  <SCORE.SYSTEM.SOLV>
0

>  <SCORE.SYSTEM.norm>
0

>  <SCORE.heavy>
10

>  <SCORE.norm>
-0.937804

>  <RMSD>
11.281

$$$$
ligand
 OpenBabel11021811503D
libRbt.so/2013.1/901 2013/11/27
 10 11  0  0  0  0  0  0  0  0999 V2000
   -8.3694  -14.7342   26.2689 N   0  0  0  0  0  0  0  0  0  0  0  0
   -7.1327  -14.9935   26.6981 C   0  0  0  0  0  0  0  0  0  0  0  0
   -6.5279  -16.1764   26.8634 N   0  0  0  0  0  0  0  0  0  0  0  0
   -7.3647  -17.1821   26.5441 C   0  0  0  0  0  0  0  0  0  0  0  0
   -8.6651  -17.0730   26.0896 C   0  0  0  0  0  0  0  0  0  0  0  0
   -9.1834  -15.7704   25.9479 C   0  0  0  0  0  0  0  0  0  0  0  0
  -10.4336  -15.5223   25.5256 N   0  0  0  0  0  0  0  0  0  0  0  0
   -9.2155  -18.3199   25.8555 N   0  0  0  0  0  0  0  0  0  0  0  0
   -8.2539  -19.1510   26.1598 C   0  0  0  0  0  0  0  0  0  0  0  0
   -7.1109  -18.5321   26.5916 N   0  0  0  0  0  0  0  0  0  0  0  0
  1  2  2  0  0  0  0
  1  6  1  0  0  0  0
  2  3  1  0  0  0  0
  3  4  2  0  0  0  0
  4  5  1  0  0  0  0
  4 10  1  0  0  0  0
  5  6  2  0  0  0  0
  5  8  1  0  0  0  0
  6  7  1  0  0  0  0
  8  9  1  0  0  0  0
  9 10  2  0  0  0  0
M  END
>  <CHROM.1>
-8.23383193,-16.73870276,26.25187572,-1.82844983,0.33658437,-3.10853885

>  <Name>
ligand

>  <RI>
0

>  <Rbt.Current_Directory>
/home/itssahil/PROJECTS/Mol_Feturizer/New_Systems/rnas/4LW0

>  <Rbt.Executable>
rbdock ($Id: //depot/dev/client3/rdock/2013.1/src/exe/rbdock.cxx#4 $)

>  <Rbt.Library>
libRbt.so (2013.1, Build901 2013/11/27)

>  <Rbt.Parameter_File>
/export/apps/rDock/src/rDock_2013.1_src/data/scripts/dock_solv.prm

>  <Rbt.Receptor>
prm/blind_docking_40.prm

>  <SCORE>
-9.3416

>  <SCORE.INTER>
-9.3416

>  <SCORE.INTER.CONST>
1

>  <SCORE.INTER.POLAR>
0

>  <SCORE.INTER.ROT>
0

>  <SCORE.INTER.SOLV>
2.75877

>  <SCORE.INTER.VDW>
-10.7473

>  <SCORE.INTER.norm>
-0.93416

>  <SCORE.INTRA>
0

>  <SCORE.INTRA.DIHEDRAL>
0

>  <SCORE.INTRA.DIHEDRAL.0>
0

>  <SCORE.INTRA.POLAR>
0

>  <SCORE.INTRA.POLAR.0>
0

>  <SCORE.INTRA.REPUL>
0

>  <SCORE.INTRA.REPUL.0>
0

>  <SCORE.INTRA.SOLV>
0

>  <SCORE.INTRA.SOLV.lig_0>
-23.9151

>  <SCORE.INTRA.VDW>
0

>  <SCORE.INTRA.VDW.0>
0

>  <SCORE.INTRA.norm>
0

>  <SCORE.RESTR>
0

>  <SCORE.RESTR.CAVITY>
0

>  <SCORE.RESTR.norm>
0

>  <SCORE.SYSTEM>
0

>  <SCORE.SYSTEM.CONST>
0

>  <SCORE.SYSTEM.DIHEDRAL>
0

>  <SCORE.SYSTEM.SOLV>
0

>  <SCORE.SYSTEM.norm>
0

>  <SCORE.heavy>
10

>  <SCORE.norm>
-0.93416

>  <RMSD>
11.303

$$$$
ligand
 OpenBabel11021811503D
libRbt.so/2013.1/901 2013/11/27
 10 11  0  0  0  0  0  0  0  0999 V2000
   -2.1639  -29.1061   28.3643 N   0  0  0  0  0  0  0  0  0  0  0  0
   -3.3186  -28.9086   29.0036 C   0  0  0  0  0  0  0  0  0  0  0  0
   -4.5397  -29.3656   28.6998 N   0  0  0  0  0  0  0  0  0  0  0  0
   -4.5009  -30.0999   27.5715 C   0  0  0  0  0  0  0  0  0  0  0  0
   -3.3898  -30.3899   26.8027 C   0  0  0  0  0  0  0  0  0  0  0  0
   -2.1590  -29.8576   27.2354 C   0  0  0  0  0  0  0  0  0  0  0  0
   -1.0051  -30.0539   26.5774 N   0  0  0  0  0  0  0  0  0  0  0  0
   -3.7283  -31.1791   25.7188 N   0  0  0  0  0  0  0  0  0  0  0  0
   -5.0163  -31.3580   25.8492 C   0  0  0  0  0  0  0  0  0  0  0  0
   -5.5494  -30.7266   26.9415 N   0  0  0  0  0  0  0  0  0  0  0  0
  1  2  2  0  0  0  0
  1  6  1  0  0  0  0
  2  3  1  0  0  0  0
  3  4  2  0  0  0  0
  4  5  1  0  0  0  0
  4 10  1  0  0  0  0
  5  6  2  0  0  0  0
  5  8  1  0  0  0  0
  6  7  1  0  0  0  0
  8  9  1  0  0  0  0
  9 10  2  0  0  0  0
M  END
>  <CHROM.1>
-3.52636083,-30.10310776,27.27517503,0.62695467,0.16657047,0.98409346

>  <Name>
ligand

>  <RI>
0

>  <Rbt.Current_Directory>
/home/itssahil/PROJECTS/Mol_Feturizer/New_Systems/rnas/4LW0

>  <Rbt.Executable>
rbdock ($Id: //depot/dev/client3/rdock/2013.1/src/exe/rbdock.cxx#4 $)

>  <Rbt.Library>
libRbt.so (2013.1, Build901 2013/11/27)

>  <Rbt.Parameter_File>
/export/apps/rDock/src/rDock_2013.1_src/data/scripts/dock_solv.prm

>  <Rbt.Receptor>
prm/blind_docking_60.prm

>  <SCORE>
-13.5472

>  <SCORE.INTER>
-13.5472

>  <SCORE.INTER.CONST>
1

>  <SCORE.INTER.POLAR>
0

>  <SCORE.INTER.ROT>
0

>  <SCORE.INTER.SOLV>
6.67676

>  <SCORE.INTER.VDW>
-14.857

>  <SCORE.INTER.norm>
-1.35472

>  <SCORE.INTRA>
0

>  <SCORE.INTRA.DIHEDRAL>
0

>  <SCORE.INTRA.DIHEDRAL.0>
0

>  <SCORE.INTRA.POLAR>
0

>  <SCORE.INTRA.POLAR.0>
0

>  <SCORE.INTRA.REPUL>
0

>  <SCORE.INTRA.REPUL.0>
0

>  <SCORE.INTRA.SOLV>
0

>  <SCORE.INTRA.SOLV.lig_0>
-23.9151

>  <SCORE.INTRA.VDW>
0

>  <SCORE.INTRA.VDW.0>
0

>  <SCORE.INTRA.norm>
0

>  <SCORE.RESTR>
0

>  <SCORE.RESTR.CAVITY>
0

>  <SCORE.RESTR.norm>
0

>  <SCORE.SYSTEM>
0

>  <SCORE.SYSTEM.CONST>
0

>  <SCORE.SYSTEM.DIHEDRAL>
0

>  <SCORE.SYSTEM.SOLV>
0

>  <SCORE.SYSTEM.norm>
0

>  <SCORE.heavy>
10

>  <SCORE.norm>
-1.35472

>  <RMSD>
11.369

$$$$
ligand
 OpenBabel11021811503D
libRbt.so/2013.1/901 2013/11/27
 10 11  0  0  0  0  0  0  0  0999 V2000
   -2.1702  -29.1169   28.3386 N   0  0  0  0  0  0  0  0  0  0  0  0
   -3.2947  -28.9195   29.0297 C   0  0  0  0  0  0  0  0  0  0  0  0
   -4.5317  -29.3618   28.7721 N   0  0  0  0  0  0  0  0  0  0  0  0
   -4.5478  -30.0795   27.6327 C   0  0  0  0  0  0  0  0  0  0  0  0
   -3.4733  -30.3671   26.8127 C   0  0  0  0  0  0  0  0  0  0  0  0
   -2.2204  -29.8515   27.1997 C   0  0  0  0  0  0  0  0  0  0  0  0
   -1.0976  -30.0475   26.4898 N   0  0  0  0  0  0  0  0  0  0  0  0
   -3.8650  -31.1373   25.7329 N   0  0  0  0  0  0  0  0  0  0  0  0
   -5.1478  -31.3074   25.9160 C   0  0  0  0  0  0  0  0  0  0  0  0
   -5.6279  -30.6881   27.0393 N   0  0  0  0  0  0  0  0  0  0  0  0
  1  2  2  0  0  0  0
  1  6  1  0  0  0  0
  2  3  1  0  0  0  0
  3  4  2  0  0  0  0
  4  5  1  0  0  0  0
  4 10  1  0  0  0  0
  5  6  2  0  0  0  0
  5  8  1  0  0  0  0
  6  7  1  0  0  0  0
  8  9  1  0  0  0  0
  9 10  2  0  0  0  0
M  END
>  <CHROM.1>
-3.58697485,-30.08633469,27.29467436,0.58561920,0.18278422,1.00602240

>  <Name>
ligand

>  <RI>
0

>  <Rbt.Current_Directory>
/home/itssahil/PROJECTS/Mol_Feturizer/New_Systems/rnas/4LW0

>  <Rbt.Executable>
rbdock ($Id: //depot/dev/client3/rdock/2013.1/src/exe/rbdock.cxx#4 $)

>  <Rbt.Library>
libRbt.so (2013.1, Build901 2013/11/27)

>  <Rbt.Parameter_File>
/export/apps/rDock/src/rDock_2013.1_src/data/scripts/dock_solv.prm

>  <Rbt.Receptor>
prm/blind_docking_60.prm

>  <SCORE>
-13.5646

>  <SCORE.INTER>
-13.565

>  <SCORE.INTER.CONST>
1

>  <SCORE.INTER.POLAR>
0

>  <SCORE.INTER.ROT>
0

>  <SCORE.INTER.SOLV>
6.65377

>  <SCORE.INTER.VDW>
-14.8612

>  <SCORE.INTER.norm>
-1.3565

>  <SCORE.INTRA>
0

>  <SCORE.INTRA.DIHEDRAL>
0

>  <SCORE.INTRA.DIHEDRAL.0>
0

>  <SCORE.INTRA.POLAR>
0

>  <SCORE.INTRA.POLAR.0>
0

>  <SCORE.INTRA.REPUL>
0

>  <SCORE.INTRA.REPUL.0>
0

>  <SCORE.INTRA.SOLV>
0

>  <SCORE.INTRA.SOLV.lig_0>
-23.9151

>  <SCORE.INTRA.VDW>
0

>  <SCORE.INTRA.VDW.0>
0

>  <SCORE.INTRA.norm>
0

>  <SCORE.RESTR>
0.000421226

>  <SCORE.RESTR.CAVITY>
0.000421226

>  <SCORE.RESTR.norm>
4.21226e-05

>  <SCORE.SYSTEM>
0

>  <SCORE.SYSTEM.CONST>
0

>  <SCORE.SYSTEM.DIHEDRAL>
0

>  <SCORE.SYSTEM.SOLV>
0

>  <SCORE.SYSTEM.norm>
0

>  <SCORE.heavy>
10

>  <SCORE.norm>
-1.35646

>  <RMSD>
11.378

$$$$
ligand
 OpenBabel11021811503D
libRbt.so/2013.1/901 2013/11/27
 10 11  0  0  0  0  0  0  0  0999 V2000
   -2.1913  -29.1080   28.3393 N   0  0  0  0  0  0  0  0  0  0  0  0
   -3.3205  -28.9062   29.0212 C   0  0  0  0  0  0  0  0  0  0  0  0
   -4.5563  -29.3480   28.7563 N   0  0  0  0  0  0  0  0  0  0  0  0
   -4.5649  -30.0704   27.6198 C   0  0  0  0  0  0  0  0  0  0  0  0
   -3.4847  -30.3629   26.8090 C   0  0  0  0  0  0  0  0  0  0  0  0
   -2.2341  -29.8474   27.2031 C   0  0  0  0  0  0  0  0  0  0  0  0
   -1.1063  -30.0478   26.5024 N   0  0  0  0  0  0  0  0  0  0  0  0
   -3.8695  -31.1371   25.7296 N   0  0  0  0  0  0  0  0  0  0  0  0
   -5.1538  -31.3048   25.9039 C   0  0  0  0  0  0  0  0  0  0  0  0
   -5.6413  -30.6801   27.0210 N   0  0  0  0  0  0  0  0  0  0  0  0
  1  2  2  0  0  0  0
  1  6  1  0  0  0  0
  2  3  1  0  0  0  0
  3  4  2  0  0  0  0
  4  5  1  0  0  0  0
  4 10  1  0  0  0  0
  5  6  2  0  0  0  0
  5  8  1  0  0  0  0
  6  7  1  0  0  0  0
  8  9  1  0  0  0  0
  9 10  2  0  0  0  0
M  END
>  <CHROM.1>
-3.60157678,-30.07997011,27.28896907,0.59122870,0.17768032,1.00078595

>  <Name>
ligand

>  <RI>
0

>  <Rbt.Current_Directory>
/home/itssahil/PROJECTS/Mol_Feturizer/New_Systems/rnas/4LW0

>  <Rbt.Executable>
rbdock ($Id: //depot/dev/client3/rdock/2013.1/src/exe/rbdock.cxx#4 $)

>  <Rbt.Library>
libRbt.so (2013.1, Build901 2013/11/27)

>  <Rbt.Parameter_File>
/export/apps/rDock/src/rDock_2013.1_src/data/scripts/dock_solv.prm

>  <Rbt.Receptor>
prm/blind_docking_100.prm

>  <SCORE>
-13.5766

>  <SCORE.INTER>
-13.5819

>  <SCORE.INTER.CONST>
1

>  <SCORE.INTER.POLAR>
0

>  <SCORE.INTER.ROT>
0

>  <SCORE.INTER.SOLV>
6.64747

>  <SCORE.INTER.VDW>
-14.8704

>  <SCORE.INTER.norm>
-1.35819

>  <SCORE.INTRA>
0

>  <SCORE.INTRA.DIHEDRAL>
0

>  <SCORE.INTRA.DIHEDRAL.0>
0

>  <SCORE.INTRA.POLAR>
0

>  <SCORE.INTRA.POLAR.0>
0

>  <SCORE.INTRA.REPUL>
0

>  <SCORE.INTRA.REPUL.0>
0

>  <SCORE.INTRA.SOLV>
0

>  <SCORE.INTRA.SOLV.lig_0>
-23.9151

>  <SCORE.INTRA.VDW>
0

>  <SCORE.INTRA.VDW.0>
0

>  <SCORE.INTRA.norm>
0

>  <SCORE.RESTR>
0.00529069

>  <SCORE.RESTR.CAVITY>
0.00529069

>  <SCORE.RESTR.norm>
0.000529069

>  <SCORE.SYSTEM>
0

>  <SCORE.SYSTEM.CONST>
0

>  <SCORE.SYSTEM.DIHEDRAL>
0

>  <SCORE.SYSTEM.SOLV>
0

>  <SCORE.SYSTEM.norm>
0

>  <SCORE.heavy>
10

>  <SCORE.norm>
-1.35766

>  <RMSD>
11.381

$$$$
ligand
 OpenBabel11021811503D
libRbt.so/2013.1/901 2013/11/27
 10 11  0  0  0  0  0  0  0  0999 V2000
   -2.1751  -29.1301   28.3513 N   0  0  0  0  0  0  0  0  0  0  0  0
   -3.3045  -28.9265   29.0324 C   0  0  0  0  0  0  0  0  0  0  0  0
   -4.5417  -29.3620   28.7639 N   0  0  0  0  0  0  0  0  0  0  0  0
   -4.5517  -30.0796   27.6244 C   0  0  0  0  0  0  0  0  0  0  0  0
   -3.4715  -30.3733   26.8140 C   0  0  0  0  0  0  0  0  0  0  0  0
   -2.2193  -29.8645   27.2120 C   0  0  0  0  0  0  0  0  0  0  0  0
   -1.0914  -30.0668   26.5122 N   0  0  0  0  0  0  0  0  0  0  0  0
   -3.8579  -31.1414   25.7308 N   0  0  0  0  0  0  0  0  0  0  0  0
   -5.1431  -31.3045   25.9026 C   0  0  0  0  0  0  0  0  0  0  0  0
   -5.6298  -30.6824   27.0215 N   0  0  0  0  0  0  0  0  0  0  0  0
  1  2  2  0  0  0  0
  1  6  1  0  0  0  0
  2  3  1  0  0  0  0
  3  4  2  0  0  0  0
  4  5  1  0  0  0  0
  4 10  1  0  0  0  0
  5  6  2  0  0  0  0
  5  8  1  0  0  0  0
  6  7  1  0  0  0  0
  8  9  1  0  0  0  0
  9 10  2  0  0  0  0
M  END
>  <CHROM.1>
-3.58791553,-30.09182820,27.29492999,0.59021478,0.17339510,1.00512293

>  <Name>
ligand

>  <RI>
0

>  <Rbt.Current_Directory>
/home/itssahil/PROJECTS/Mol_Feturizer/New_Systems/rnas/4LW0

>  <Rbt.Executable>
rbdock ($Id: //depot/dev/client3/rdock/2013.1/src/exe/rbdock.cxx#4 $)

>  <Rbt.Library>
libRbt.so (2013.1, Build901 2013/11/27)

>  <Rbt.Parameter_File>
/export/apps/rDock/src/rDock_2013.1_src/data/scripts/dock_solv.prm

>  <Rbt.Receptor>
prm/blind_docking_100.prm

>  <SCORE>
-13.5516

>  <SCORE.INTER>
-13.5516

>  <SCORE.INTER.CONST>
1

>  <SCORE.INTER.POLAR>
0

>  <SCORE.INTER.ROT>
0

>  <SCORE.INTER.SOLV>
6.66149

>  <SCORE.INTER.VDW>
-14.8549

>  <SCORE.INTER.norm>
-1.35516

>  <SCORE.INTRA>
0

>  <SCORE.INTRA.DIHEDRAL>
0

>  <SCORE.INTRA.DIHEDRAL.0>
0

>  <SCORE.INTRA.POLAR>
0

>  <SCORE.INTRA.POLAR.0>
0

>  <SCORE.INTRA.REPUL>
0

>  <SCORE.INTRA.REPUL.0>
0

>  <SCORE.INTRA.SOLV>
0

>  <SCORE.INTRA.SOLV.lig_0>
-23.9151

>  <SCORE.INTRA.VDW>
0

>  <SCORE.INTRA.VDW.0>
0

>  <SCORE.INTRA.norm>
0

>  <SCORE.RESTR>
0

>  <SCORE.RESTR.CAVITY>
0

>  <SCORE.RESTR.norm>
0

>  <SCORE.SYSTEM>
0

>  <SCORE.SYSTEM.CONST>
0

>  <SCORE.SYSTEM.DIHEDRAL>
0

>  <SCORE.SYSTEM.SOLV>
0

>  <SCORE.SYSTEM.norm>
0

>  <SCORE.heavy>
10

>  <SCORE.norm>
-1.35516

>  <RMSD>
11.385

$$$$
ligand
 OpenBabel11021811503D
libRbt.so/2013.1/901 2013/11/27
 10 11  0  0  0  0  0  0  0  0999 V2000
   -2.1910  -29.1136   28.3253 N   0  0  0  0  0  0  0  0  0  0  0  0
   -3.3145  -28.9212   29.0194 C   0  0  0  0  0  0  0  0  0  0  0  0
   -4.5508  -29.3667   28.7636 N   0  0  0  0  0  0  0  0  0  0  0  0
   -4.5672  -30.0819   27.6226 C   0  0  0  0  0  0  0  0  0  0  0  0
   -3.4937  -30.3645   26.7996 C   0  0  0  0  0  0  0  0  0  0  0  0
   -2.2415  -29.8459   27.1849 C   0  0  0  0  0  0  0  0  0  0  0  0
   -1.1197  -30.0369   26.4722 N   0  0  0  0  0  0  0  0  0  0  0  0
   -3.8855  -31.1335   25.7191 N   0  0  0  0  0  0  0  0  0  0  0  0
   -5.1673  -31.3080   25.9046 C   0  0  0  0  0  0  0  0  0  0  0  0
   -5.6468  -30.6926   27.0303 N   0  0  0  0  0  0  0  0  0  0  0  0
  1  2  2  0  0  0  0
  1  6  1  0  0  0  0
  2  3  1  0  0  0  0
  3  4  2  0  0  0  0
  4  5  1  0  0  0  0
  4 10  1  0  0  0  0
  5  6  2  0  0  0  0
  5  8  1  0  0  0  0
  6  7  1  0  0  0  0
  8  9  1  0  0  0  0
  9 10  2  0  0  0  0
M  END
>  <CHROM.1>
-3.60713239,-30.08511749,27.28245953,0.58536456,0.18655789,1.00821560

>  <Name>
ligand

>  <RI>
0

>  <Rbt.Current_Directory>
/home/itssahil/PROJECTS/Mol_Feturizer/New_Systems/rnas/4LW0

>  <Rbt.Executable>
rbdock ($Id: //depot/dev/client3/rdock/2013.1/src/exe/rbdock.cxx#4 $)

>  <Rbt.Library>
libRbt.so (2013.1, Build901 2013/11/27)

>  <Rbt.Parameter_File>
/export/apps/rDock/src/rDock_2013.1_src/data/scripts/dock_solv.prm

>  <Rbt.Receptor>
prm/blind_docking_100.prm

>  <SCORE>
-13.6296

>  <SCORE.INTER>
-13.6449

>  <SCORE.INTER.CONST>
1

>  <SCORE.INTER.POLAR>
0

>  <SCORE.INTER.ROT>
0

>  <SCORE.INTER.SOLV>
6.65047

>  <SCORE.INTER.VDW>
-14.9134

>  <SCORE.INTER.norm>
-1.36449

>  <SCORE.INTRA>
0

>  <SCORE.INTRA.DIHEDRAL>
0

>  <SCORE.INTRA.DIHEDRAL.0>
0

>  <SCORE.INTRA.POLAR>
0

>  <SCORE.INTRA.POLAR.0>
0

>  <SCORE.INTRA.REPUL>
0

>  <SCORE.INTRA.REPUL.0>
0

>  <SCORE.INTRA.SOLV>
0

>  <SCORE.INTRA.SOLV.lig_0>
-23.9151

>  <SCORE.INTRA.VDW>
0

>  <SCORE.INTRA.VDW.0>
0

>  <SCORE.INTRA.norm>
0

>  <SCORE.RESTR>
0.0152931

>  <SCORE.RESTR.CAVITY>
0.0152931

>  <SCORE.RESTR.norm>
0.00152931

>  <SCORE.SYSTEM>
0

>  <SCORE.SYSTEM.CONST>
0

>  <SCORE.SYSTEM.DIHEDRAL>
0

>  <SCORE.SYSTEM.SOLV>
0

>  <SCORE.SYSTEM.norm>
0

>  <SCORE.heavy>
10

>  <SCORE.norm>
-1.36296

>  <RMSD>
11.386

$$$$
ligand
 OpenBabel11021811503D
libRbt.so/2013.1/901 2013/11/27
 10 11  0  0  0  0  0  0  0  0999 V2000
   -2.2013  -29.0983   28.3507 N   0  0  0  0  0  0  0  0  0  0  0  0
   -3.3551  -28.9184   28.9967 C   0  0  0  0  0  0  0  0  0  0  0  0
   -4.5719  -29.3894   28.6969 N   0  0  0  0  0  0  0  0  0  0  0  0
   -4.5295  -30.1180   27.5651 C   0  0  0  0  0  0  0  0  0  0  0  0
   -3.4188  -30.3904   26.7894 C   0  0  0  0  0  0  0  0  0  0  0  0
   -2.1926  -29.8445   27.2183 C   0  0  0  0  0  0  0  0  0  0  0  0
   -1.0397  -30.0232   26.5536 N   0  0  0  0  0  0  0  0  0  0  0  0
   -3.7528  -31.1789   25.7035 N   0  0  0  0  0  0  0  0  0  0  0  0
   -5.0378  -31.3747   25.8396 C   0  0  0  0  0  0  0  0  0  0  0  0
   -5.5732  -30.7551   26.9375 N   0  0  0  0  0  0  0  0  0  0  0  0
  1  2  2  0  0  0  0
  1  6  1  0  0  0  0
  2  3  1  0  0  0  0
  3  4  2  0  0  0  0
  4  5  1  0  0  0  0
  4 10  1  0  0  0  0
  5  6  2  0  0  0  0
  5  8  1  0  0  0  0
  6  7  1  0  0  0  0
  8  9  1  0  0  0  0
  9 10  2  0  0  0  0
M  END
>  <CHROM.1>
-3.55658219,-30.10754846,27.26385575,0.62976029,0.17993085,0.98820022

>  <Name>
ligand

>  <RI>
0

>  <Rbt.Current_Directory>
/home/itssahil/PROJECTS/Mol_Feturizer/New_Systems/rnas/4LW0

>  <Rbt.Executable>
rbdock ($Id: //depot/dev/client3/rdock/2013.1/src/exe/rbdock.cxx#4 $)

>  <Rbt.Library>
libRbt.so (2013.1, Build901 2013/11/27)

>  <Rbt.Parameter_File>
/export/apps/rDock/src/rDock_2013.1_src/data/scripts/dock_solv.prm

>  <Rbt.Receptor>
prm/blind_docking_100.prm

>  <SCORE>
-13.5395

>  <SCORE.INTER>
-13.5395

>  <SCORE.INTER.CONST>
1

>  <SCORE.INTER.POLAR>
0

>  <SCORE.INTER.ROT>
0

>  <SCORE.INTER.SOLV>
6.62591

>  <SCORE.INTER.VDW>
-14.835

>  <SCORE.INTER.norm>
-1.35395

>  <SCORE.INTRA>
0

>  <SCORE.INTRA.DIHEDRAL>
0

>  <SCORE.INTRA.DIHEDRAL.0>
0

>  <SCORE.INTRA.POLAR>
0

>  <SCORE.INTRA.POLAR.0>
0

>  <SCORE.INTRA.REPUL>
0

>  <SCORE.INTRA.REPUL.0>
0

>  <SCORE.INTRA.SOLV>
0

>  <SCORE.INTRA.SOLV.lig_0>
-23.9151

>  <SCORE.INTRA.VDW>
0

>  <SCORE.INTRA.VDW.0>
0

>  <SCORE.INTRA.norm>
0

>  <SCORE.RESTR>
0

>  <SCORE.RESTR.CAVITY>
0

>  <SCORE.RESTR.norm>
0

>  <SCORE.SYSTEM>
0

>  <SCORE.SYSTEM.CONST>
0

>  <SCORE.SYSTEM.DIHEDRAL>
0

>  <SCORE.SYSTEM.SOLV>
0

>  <SCORE.SYSTEM.norm>
0

>  <SCORE.heavy>
10

>  <SCORE.norm>
-1.35395

>  <RMSD>
11.387

$$$$
ligand
 OpenBabel11021811503D
libRbt.so/2013.1/901 2013/11/27
 10 11  0  0  0  0  0  0  0  0999 V2000
   -2.1768  -29.1435   28.3307 N   0  0  0  0  0  0  0  0  0  0  0  0
   -3.3031  -28.9440   29.0182 C   0  0  0  0  0  0  0  0  0  0  0  0
   -4.5415  -29.3777   28.7525 N   0  0  0  0  0  0  0  0  0  0  0  0
   -4.5567  -30.0881   27.6085 C   0  0  0  0  0  0  0  0  0  0  0  0
   -3.4803  -30.3767   26.7913 C   0  0  0  0  0  0  0  0  0  0  0  0
   -2.2262  -29.8706   27.1870 C   0  0  0  0  0  0  0  0  0  0  0  0
   -1.1015  -30.0685   26.4808 N   0  0  0  0  0  0  0  0  0  0  0  0
   -3.8717  -31.1378   25.7051 N   0  0  0  0  0  0  0  0  0  0  0  0
   -5.1561  -31.3018   25.8816 C   0  0  0  0  0  0  0  0  0  0  0  0
   -5.6376  -30.6868   27.0066 N   0  0  0  0  0  0  0  0  0  0  0  0
  1  2  2  0  0  0  0
  1  6  1  0  0  0  0
  2  3  1  0  0  0  0
  3  4  2  0  0  0  0
  4  5  1  0  0  0  0
  4 10  1  0  0  0  0
  5  6  2  0  0  0  0
  5  8  1  0  0  0  0
  6  7  1  0  0  0  0
  8  9  1  0  0  0  0
  9 10  2  0  0  0  0
M  END
>  <CHROM.1>
-3.59446700,-30.09826492,27.27461883,0.58628033,0.17569762,1.01218336

>  <Name>
ligand

>  <RI>
0

>  <Rbt.Current_Directory>
/home/itssahil/PROJECTS/Mol_Feturizer/New_Systems/rnas/4LW0

>  <Rbt.Executable>
rbdock ($Id: //depot/dev/client3/rdock/2013.1/src/exe/rbdock.cxx#4 $)

>  <Rbt.Library>
libRbt.so (2013.1, Build901 2013/11/27)

>  <Rbt.Parameter_File>
/export/apps/rDock/src/rDock_2013.1_src/data/scripts/dock_solv.prm

>  <Rbt.Receptor>
prm/blind_docking_60.prm

>  <SCORE>
-13.5995

>  <SCORE.INTER>
-13.6084

>  <SCORE.INTER.CONST>
1

>  <SCORE.INTER.POLAR>
0

>  <SCORE.INTER.ROT>
0

>  <SCORE.INTER.SOLV>
6.67922

>  <SCORE.INTER.VDW>
-14.8987

>  <SCORE.INTER.norm>
-1.36084

>  <SCORE.INTRA>
0

>  <SCORE.INTRA.DIHEDRAL>
0

>  <SCORE.INTRA.DIHEDRAL.0>
0

>  <SCORE.INTRA.POLAR>
0

>  <SCORE.INTRA.POLAR.0>
0

>  <SCORE.INTRA.REPUL>
0

>  <SCORE.INTRA.REPUL.0>
0

>  <SCORE.INTRA.SOLV>
0

>  <SCORE.INTRA.SOLV.lig_0>
-23.9151

>  <SCORE.INTRA.VDW>
0

>  <SCORE.INTRA.VDW.0>
0

>  <SCORE.INTRA.norm>
0

>  <SCORE.RESTR>
0.00890143

>  <SCORE.RESTR.CAVITY>
0.00890143

>  <SCORE.RESTR.norm>
0.000890143

>  <SCORE.SYSTEM>
0

>  <SCORE.SYSTEM.CONST>
0

>  <SCORE.SYSTEM.DIHEDRAL>
0

>  <SCORE.SYSTEM.SOLV>
0

>  <SCORE.SYSTEM.norm>
0

>  <SCORE.heavy>
10

>  <SCORE.norm>
-1.35995

>  <RMSD>
11.390

$$$$
ligand
 OpenBabel11021811503D
libRbt.so/2013.1/901 2013/11/27
 10 11  0  0  0  0  0  0  0  0999 V2000
   -2.1934  -29.1189   28.3301 N   0  0  0  0  0  0  0  0  0  0  0  0
   -3.3252  -28.9335   29.0125 C   0  0  0  0  0  0  0  0  0  0  0  0
   -4.5559  -29.3871   28.7441 N   0  0  0  0  0  0  0  0  0  0  0  0
   -4.5559  -30.1029   27.6033 C   0  0  0  0  0  0  0  0  0  0  0  0
   -3.4721  -30.3788   26.7915 C   0  0  0  0  0  0  0  0  0  0  0  0
   -2.2274  -29.8519   27.1896 C   0  0  0  0  0  0  0  0  0  0  0  0
   -1.0971  -30.0359   26.4885 N   0  0  0  0  0  0  0  0  0  0  0  0
   -3.8477  -31.1507   25.7073 N   0  0  0  0  0  0  0  0  0  0  0  0
   -5.1302  -31.3334   25.8797 C   0  0  0  0  0  0  0  0  0  0  0  0
   -5.6253  -30.7207   27.0001 N   0  0  0  0  0  0  0  0  0  0  0  0
  1  2  2  0  0  0  0
  1  6  1  0  0  0  0
  2  3  1  0  0  0  0
  3  4  2  0  0  0  0
  4  5  1  0  0  0  0
  4 10  1  0  0  0  0
  5  6  2  0  0  0  0
  5  8  1  0  0  0  0
  6  7  1  0  0  0  0
  8  9  1  0  0  0  0
  9 10  2  0  0  0  0
M  END
>  <CHROM.1>
-3.59234014,-30.09995172,27.27307547,0.59777504,0.18652837,1.00554223

>  <Name>
ligand

>  <RI>
0

>  <Rbt.Current_Directory>
/home/itssahil/PROJECTS/Mol_Feturizer/New_Systems/rnas/4LW0

>  <Rbt.Executable>
rbdock ($Id: //depot/dev/client3/rdock/2013.1/src/exe/rbdock.cxx#4 $)

>  <Rbt.Library>
libRbt.so (2013.1, Build901 2013/11/27)

>  <Rbt.Parameter_File>
/export/apps/rDock/src/rDock_2013.1_src/data/scripts/dock_solv.prm

>  <Rbt.Receptor>
prm/blind_docking_100.prm

>  <SCORE>
-13.5187

>  <SCORE.INTER>
-13.5187

>  <SCORE.INTER.CONST>
1

>  <SCORE.INTER.POLAR>
0

>  <SCORE.INTER.ROT>
0

>  <SCORE.INTER.SOLV>
6.64513

>  <SCORE.INTER.VDW>
-14.8275

>  <SCORE.INTER.norm>
-1.35187

>  <SCORE.INTRA>
0

>  <SCORE.INTRA.DIHEDRAL>
0

>  <SCORE.INTRA.DIHEDRAL.0>
0

>  <SCORE.INTRA.POLAR>
0

>  <SCORE.INTRA.POLAR.0>
0

>  <SCORE.INTRA.REPUL>
0

>  <SCORE.INTRA.REPUL.0>
0

>  <SCORE.INTRA.SOLV>
0

>  <SCORE.INTRA.SOLV.lig_0>
-23.9151

>  <SCORE.INTRA.VDW>
0

>  <SCORE.INTRA.VDW.0>
0

>  <SCORE.INTRA.norm>
0

>  <SCORE.RESTR>
0

>  <SCORE.RESTR.CAVITY>
0

>  <SCORE.RESTR.norm>
0

>  <SCORE.SYSTEM>
0

>  <SCORE.SYSTEM.CONST>
0

>  <SCORE.SYSTEM.DIHEDRAL>
0

>  <SCORE.SYSTEM.SOLV>
0

>  <SCORE.SYSTEM.norm>
0

>  <SCORE.heavy>
10

>  <SCORE.norm>
-1.35187

>  <RMSD>
11.392

$$$$
ligand
 OpenBabel11021811503D
libRbt.so/2013.1/901 2013/11/27
 10 11  0  0  0  0  0  0  0  0999 V2000
   -2.1604  -29.1463   28.3406 N   0  0  0  0  0  0  0  0  0  0  0  0
   -3.3016  -28.9582   29.0064 C   0  0  0  0  0  0  0  0  0  0  0  0
   -4.5292  -29.4094   28.7204 N   0  0  0  0  0  0  0  0  0  0  0  0
   -4.5142  -30.1257   27.5801 C   0  0  0  0  0  0  0  0  0  0  0  0
   -3.4194  -30.4042   26.7842 C   0  0  0  0  0  0  0  0  0  0  0  0
   -2.1794  -29.8798   27.2000 C   0  0  0  0  0  0  0  0  0  0  0  0
   -1.0394  -30.0665   26.5155 N   0  0  0  0  0  0  0  0  0  0  0  0
   -3.7809  -31.1759   25.6951 N   0  0  0  0  0  0  0  0  0  0  0  0
   -5.0661  -31.3559   25.8490 C   0  0  0  0  0  0  0  0  0  0  0  0
   -5.5760  -30.7415   26.9618 N   0  0  0  0  0  0  0  0  0  0  0  0
  1  2  2  0  0  0  0
  1  6  1  0  0  0  0
  2  3  1  0  0  0  0
  3  4  2  0  0  0  0
  4  5  1  0  0  0  0
  4 10  1  0  0  0  0
  5  6  2  0  0  0  0
  5  8  1  0  0  0  0
  6  7  1  0  0  0  0
  8  9  1  0  0  0  0
  9 10  2  0  0  0  0
M  END
>  <CHROM.1>
-3.54594344,-30.12493367,27.26388101,0.60903729,0.17698026,1.00303268

>  <Name>
ligand

>  <RI>
0

>  <Rbt.Current_Directory>
/home/itssahil/PROJECTS/Mol_Feturizer/New_Systems/rnas/4LW0

>  <Rbt.Executable>
rbdock ($Id: //depot/dev/client3/rdock/2013.1/src/exe/rbdock.cxx#4 $)

>  <Rbt.Library>
libRbt.so (2013.1, Build901 2013/11/27)

>  <Rbt.Parameter_File>
/export/apps/rDock/src/rDock_2013.1_src/data/scripts/dock_solv.prm

>  <Rbt.Receptor>
prm/blind_docking_60.prm

>  <SCORE>
-13.517

>  <SCORE.INTER>
-13.517

>  <SCORE.INTER.CONST>
1

>  <SCORE.INTER.POLAR>
0

>  <SCORE.INTER.ROT>
0

>  <SCORE.INTER.SOLV>
6.68991

>  <SCORE.INTER.VDW>
-14.8413

>  <SCORE.INTER.norm>
-1.3517

>  <SCORE.INTRA>
0

>  <SCORE.INTRA.DIHEDRAL>
0

>  <SCORE.INTRA.DIHEDRAL.0>
0

>  <SCORE.INTRA.POLAR>
0

>  <SCORE.INTRA.POLAR.0>
0

>  <SCORE.INTRA.REPUL>
0

>  <SCORE.INTRA.REPUL.0>
0

>  <SCORE.INTRA.SOLV>
0

>  <SCORE.INTRA.SOLV.lig_0>
-23.9151

>  <SCORE.INTRA.VDW>
0

>  <SCORE.INTRA.VDW.0>
0

>  <SCORE.INTRA.norm>
0

>  <SCORE.RESTR>
0

>  <SCORE.RESTR.CAVITY>
0

>  <SCORE.RESTR.norm>
0

>  <SCORE.SYSTEM>
0

>  <SCORE.SYSTEM.CONST>
0

>  <SCORE.SYSTEM.DIHEDRAL>
0

>  <SCORE.SYSTEM.SOLV>
0

>  <SCORE.SYSTEM.norm>
0

>  <SCORE.heavy>
10

>  <SCORE.norm>
-1.3517

>  <RMSD>
11.392

$$$$
ligand
 OpenBabel11021811503D
libRbt.so/2013.1/901 2013/11/27
 10 11  0  0  0  0  0  0  0  0999 V2000
   -2.2104  -29.1027   28.3223 N   0  0  0  0  0  0  0  0  0  0  0  0
   -3.3466  -28.9126   28.9961 C   0  0  0  0  0  0  0  0  0  0  0  0
   -4.5751  -29.3699   28.7243 N   0  0  0  0  0  0  0  0  0  0  0  0
   -4.5675  -30.0956   27.5898 C   0  0  0  0  0  0  0  0  0  0  0  0
   -3.4785  -30.3774   26.7871 C   0  0  0  0  0  0  0  0  0  0  0  0
   -2.2367  -29.8457   27.1880 C   0  0  0  0  0  0  0  0  0  0  0  0
   -1.1020  -30.0345   26.4954 N   0  0  0  0  0  0  0  0  0  0  0  0
   -3.8467  -31.1592   25.7074 N   0  0  0  0  0  0  0  0  0  0  0  0
   -5.1300  -31.3418   25.8736 C   0  0  0  0  0  0  0  0  0  0  0  0
   -5.6325  -30.7199   26.9856 N   0  0  0  0  0  0  0  0  0  0  0  0
  1  2  2  0  0  0  0
  1  6  1  0  0  0  0
  2  3  1  0  0  0  0
  3  4  2  0  0  0  0
  4  5  1  0  0  0  0
  4 10  1  0  0  0  0
  5  6  2  0  0  0  0
  5  8  1  0  0  0  0
  6  7  1  0  0  0  0
  8  9  1  0  0  0  0
  9 10  2  0  0  0  0
M  END
>  <CHROM.1>
-3.60190860,-30.09449034,27.26543466,0.60355990,0.18416623,0.99573285

>  <Name>
ligand

>  <RI>
0

>  <Rbt.Current_Directory>
/home/itssahil/PROJECTS/Mol_Feturizer/New_Systems/rnas/4LW0

>  <Rbt.Executable>
rbdock ($Id: //depot/dev/client3/rdock/2013.1/src/exe/rbdock.cxx#4 $)

>  <Rbt.Library>
libRbt.so (2013.1, Build901 2013/11/27)

>  <Rbt.Parameter_File>
/export/apps/rDock/src/rDock_2013.1_src/data/scripts/dock_solv.prm

>  <Rbt.Receptor>
prm/blind_docking_60.prm

>  <SCORE>
-13.5327

>  <SCORE.INTER>
-13.5327

>  <SCORE.INTER.CONST>
1

>  <SCORE.INTER.POLAR>
0

>  <SCORE.INTER.ROT>
0

>  <SCORE.INTER.SOLV>
6.64887

>  <SCORE.INTER.VDW>
-14.8381

>  <SCORE.INTER.norm>
-1.35327

>  <SCORE.INTRA>
0

>  <SCORE.INTRA.DIHEDRAL>
0

>  <SCORE.INTRA.DIHEDRAL.0>
0

>  <SCORE.INTRA.POLAR>
0

>  <SCORE.INTRA.POLAR.0>
0

>  <SCORE.INTRA.REPUL>
0

>  <SCORE.INTRA.REPUL.0>
0

>  <SCORE.INTRA.SOLV>
0

>  <SCORE.INTRA.SOLV.lig_0>
-23.9151

>  <SCORE.INTRA.VDW>
0

>  <SCORE.INTRA.VDW.0>
0

>  <SCORE.INTRA.norm>
0

>  <SCORE.RESTR>
0

>  <SCORE.RESTR.CAVITY>
0

>  <SCORE.RESTR.norm>
0

>  <SCORE.SYSTEM>
0

>  <SCORE.SYSTEM.CONST>
0

>  <SCORE.SYSTEM.DIHEDRAL>
0

>  <SCORE.SYSTEM.SOLV>
0

>  <SCORE.SYSTEM.norm>
0

>  <SCORE.heavy>
10

>  <SCORE.norm>
-1.35327

>  <RMSD>
11.393

$$$$
ligand
 OpenBabel11021811503D
libRbt.so/2013.1/901 2013/11/27
 10 11  0  0  0  0  0  0  0  0999 V2000
   -2.2033  -29.1183   28.3185 N   0  0  0  0  0  0  0  0  0  0  0  0
   -3.3468  -28.9292   28.9799 C   0  0  0  0  0  0  0  0  0  0  0  0
   -4.5714  -29.3899   28.6964 N   0  0  0  0  0  0  0  0  0  0  0  0
   -4.5503  -30.1182   27.5638 C   0  0  0  0  0  0  0  0  0  0  0  0
   -3.4524  -30.3995   26.7731 C   0  0  0  0  0  0  0  0  0  0  0  0
   -2.2161  -29.8640   27.1857 C   0  0  0  0  0  0  0  0  0  0  0  0
   -1.0737  -30.0519   26.5055 N   0  0  0  0  0  0  0  0  0  0  0  0
   -3.8075  -31.1846   25.6915 N   0  0  0  0  0  0  0  0  0  0  0  0
   -5.0921  -31.3698   25.8448 C   0  0  0  0  0  0  0  0  0  0  0  0
   -5.6076  -30.7464   26.9500 N   0  0  0  0  0  0  0  0  0  0  0  0
  1  2  2  0  0  0  0
  1  6  1  0  0  0  0
  2  3  1  0  0  0  0
  3  4  2  0  0  0  0
  4  5  1  0  0  0  0
  4 10  1  0  0  0  0
  5  6  2  0  0  0  0
  5  8  1  0  0  0  0
  6  7  1  0  0  0  0
  8  9  1  0  0  0  0
  9 10  2  0  0  0  0
M  END
>  <CHROM.1>
-3.58142510,-30.11572077,27.24950097,0.61371014,0.18035997,0.99150794

>  <Name>
ligand

>  <RI>
0

>  <Rbt.Current_Directory>
/home/itssahil/PROJECTS/Mol_Feturizer/New_Systems/rnas/4LW0

>  <Rbt.Executable>
rbdock ($Id: //depot/dev/client3/rdock/2013.1/src/exe/rbdock.cxx#4 $)

>  <Rbt.Library>
libRbt.so (2013.1, Build901 2013/11/27)

>  <Rbt.Parameter_File>
/export/apps/rDock/src/rDock_2013.1_src/data/scripts/dock_solv.prm

>  <Rbt.Receptor>
prm/blind_docking_60.prm

>  <SCORE>
-13.5368

>  <SCORE.INTER>
-13.5368

>  <SCORE.INTER.CONST>
1

>  <SCORE.INTER.POLAR>
0

>  <SCORE.INTER.ROT>
0

>  <SCORE.INTER.SOLV>
6.66431

>  <SCORE.INTER.VDW>
-14.846

>  <SCORE.INTER.norm>
-1.35368

>  <SCORE.INTRA>
0

>  <SCORE.INTRA.DIHEDRAL>
0

>  <SCORE.INTRA.DIHEDRAL.0>
0

>  <SCORE.INTRA.POLAR>
0

>  <SCORE.INTRA.POLAR.0>
0

>  <SCORE.INTRA.REPUL>
0

>  <SCORE.INTRA.REPUL.0>
0

>  <SCORE.INTRA.SOLV>
0

>  <SCORE.INTRA.SOLV.lig_0>
-23.9151

>  <SCORE.INTRA.VDW>
0

>  <SCORE.INTRA.VDW.0>
0

>  <SCORE.INTRA.norm>
0

>  <SCORE.RESTR>
0

>  <SCORE.RESTR.CAVITY>
0

>  <SCORE.RESTR.norm>
0

>  <SCORE.SYSTEM>
0

>  <SCORE.SYSTEM.CONST>
0

>  <SCORE.SYSTEM.DIHEDRAL>
0

>  <SCORE.SYSTEM.SOLV>
0

>  <SCORE.SYSTEM.norm>
0

>  <SCORE.heavy>
10

>  <SCORE.norm>
-1.35368

>  <RMSD>
11.400

$$$$
ligand
 OpenBabel11021811503D
libRbt.so/2013.1/901 2013/11/27
 10 11  0  0  0  0  0  0  0  0999 V2000
   -2.2243  -29.1524   28.4396 N   0  0  0  0  0  0  0  0  0  0  0  0
   -3.3716  -29.0071   29.1056 C   0  0  0  0  0  0  0  0  0  0  0  0
   -4.5924  -29.4578   28.7912 N   0  0  0  0  0  0  0  0  0  0  0  0
   -4.5624  -30.1213   27.6196 C   0  0  0  0  0  0  0  0  0  0  0  0
   -3.4596  -30.3516   26.8193 C   0  0  0  0  0  0  0  0  0  0  0  0
   -2.2282  -29.8334   27.2668 C   0  0  0  0  0  0  0  0  0  0  0  0
   -1.0820  -29.9766   26.5821 N   0  0  0  0  0  0  0  0  0  0  0  0
   -3.8059  -31.0768   25.6938 N   0  0  0  0  0  0  0  0  0  0  0  0
   -5.0899  -31.2773   25.8307 C   0  0  0  0  0  0  0  0  0  0  0  0
   -5.6135  -30.7198   26.9669 N   0  0  0  0  0  0  0  0  0  0  0  0
  1  2  2  0  0  0  0
  1  6  1  0  0  0  0
  2  3  1  0  0  0  0
  3  4  2  0  0  0  0
  4  5  1  0  0  0  0
  4 10  1  0  0  0  0
  5  6  2  0  0  0  0
  5  8  1  0  0  0  0
  6  7  1  0  0  0  0
  8  9  1  0  0  0  0
  9 10  2  0  0  0  0
M  END
>  <CHROM.1>
-3.59229112,-30.09581716,27.31026529,0.62039582,0.18290040,1.04648467

>  <Name>
ligand

>  <RI>
0

>  <Rbt.Current_Directory>
/home/itssahil/PROJECTS/Mol_Feturizer/New_Systems/rnas/4LW0

>  <Rbt.Executable>
rbdock ($Id: //depot/dev/client3/rdock/2013.1/src/exe/rbdock.cxx#4 $)

>  <Rbt.Library>
libRbt.so (2013.1, Build901 2013/11/27)

>  <Rbt.Parameter_File>
/export/apps/rDock/src/rDock_2013.1_src/data/scripts/dock_solv.prm

>  <Rbt.Receptor>
prm/blind_docking_80.prm

>  <SCORE>
-13.4987

>  <SCORE.INTER>
-13.4987

>  <SCORE.INTER.CONST>
1

>  <SCORE.INTER.POLAR>
0

>  <SCORE.INTER.ROT>
0

>  <SCORE.INTER.SOLV>
6.56009

>  <SCORE.INTER.VDW>
-14.7859

>  <SCORE.INTER.norm>
-1.34987

>  <SCORE.INTRA>
0

>  <SCORE.INTRA.DIHEDRAL>
0

>  <SCORE.INTRA.DIHEDRAL.0>
0

>  <SCORE.INTRA.POLAR>
0

>  <SCORE.INTRA.POLAR.0>
0

>  <SCORE.INTRA.REPUL>
0

>  <SCORE.INTRA.REPUL.0>
0

>  <SCORE.INTRA.SOLV>
0

>  <SCORE.INTRA.SOLV.lig_0>
-23.9151

>  <SCORE.INTRA.VDW>
0

>  <SCORE.INTRA.VDW.0>
0

>  <SCORE.INTRA.norm>
0

>  <SCORE.RESTR>
0

>  <SCORE.RESTR.CAVITY>
0

>  <SCORE.RESTR.norm>
0

>  <SCORE.SYSTEM>
0

>  <SCORE.SYSTEM.CONST>
0

>  <SCORE.SYSTEM.DIHEDRAL>
0

>  <SCORE.SYSTEM.SOLV>
0

>  <SCORE.SYSTEM.norm>
0

>  <SCORE.heavy>
10

>  <SCORE.norm>
-1.34987

>  <RMSD>
11.403

$$$$
ligand
 OpenBabel11021811503D
libRbt.so/2013.1/901 2013/11/27
 10 11  0  0  0  0  0  0  0  0999 V2000
   -2.2166  -29.1531   28.4496 N   0  0  0  0  0  0  0  0  0  0  0  0
   -3.3751  -29.0101   29.0965 C   0  0  0  0  0  0  0  0  0  0  0  0
   -4.5876  -29.4727   28.7675 N   0  0  0  0  0  0  0  0  0  0  0  0
   -4.5347  -30.1464   27.6026 C   0  0  0  0  0  0  0  0  0  0  0  0
   -3.4181  -30.3758   26.8215 C   0  0  0  0  0  0  0  0  0  0  0  0
   -2.1975  -29.8446   27.2831 C   0  0  0  0  0  0  0  0  0  0  0  0
   -1.0398  -29.9854   26.6175 N   0  0  0  0  0  0  0  0  0  0  0  0
   -3.7417  -31.1135   25.6974 N   0  0  0  0  0  0  0  0  0  0  0  0
   -5.0263  -31.3222   25.8164 C   0  0  0  0  0  0  0  0  0  0  0  0
   -5.5713  -30.7584   26.9393 N   0  0  0  0  0  0  0  0  0  0  0  0
  1  2  2  0  0  0  0
  1  6  1  0  0  0  0
  2  3  1  0  0  0  0
  3  4  2  0  0  0  0
  4  5  1  0  0  0  0
  4 10  1  0  0  0  0
  5  6  2  0  0  0  0
  5  8  1  0  0  0  0
  6  7  1  0  0  0  0
  8  9  1  0  0  0  0
  9 10  2  0  0  0  0
M  END
>  <CHROM.1>
-3.56016828,-30.11655847,27.30800518,0.63763518,0.18137820,1.03431455

>  <Name>
ligand

>  <RI>
0

>  <Rbt.Current_Directory>
/home/itssahil/PROJECTS/Mol_Feturizer/New_Systems/rnas/4LW0

>  <Rbt.Executable>
rbdock ($Id: //depot/dev/client3/rdock/2013.1/src/exe/rbdock.cxx#4 $)

>  <Rbt.Library>
libRbt.so (2013.1, Build901 2013/11/27)

>  <Rbt.Parameter_File>
/export/apps/rDock/src/rDock_2013.1_src/data/scripts/dock_solv.prm

>  <Rbt.Receptor>
prm/blind_docking_100.prm

>  <SCORE>
-13.506

>  <SCORE.INTER>
-13.506

>  <SCORE.INTER.CONST>
1

>  <SCORE.INTER.POLAR>
0

>  <SCORE.INTER.ROT>
0

>  <SCORE.INTER.SOLV>
6.57142

>  <SCORE.INTER.VDW>
-14.7945

>  <SCORE.INTER.norm>
-1.3506

>  <SCORE.INTRA>
0

>  <SCORE.INTRA.DIHEDRAL>
0

>  <SCORE.INTRA.DIHEDRAL.0>
0

>  <SCORE.INTRA.POLAR>
0

>  <SCORE.INTRA.POLAR.0>
0

>  <SCORE.INTRA.REPUL>
0

>  <SCORE.INTRA.REPUL.0>
0

>  <SCORE.INTRA.SOLV>
0

>  <SCORE.INTRA.SOLV.lig_0>
-23.9151

>  <SCORE.INTRA.VDW>
0

>  <SCORE.INTRA.VDW.0>
0

>  <SCORE.INTRA.norm>
0

>  <SCORE.RESTR>
0

>  <SCORE.RESTR.CAVITY>
0

>  <SCORE.RESTR.norm>
0

>  <SCORE.SYSTEM>
0

>  <SCORE.SYSTEM.CONST>
0

>  <SCORE.SYSTEM.DIHEDRAL>
0

>  <SCORE.SYSTEM.SOLV>
0

>  <SCORE.SYSTEM.norm>
0

>  <SCORE.heavy>
10

>  <SCORE.norm>
-1.3506

>  <RMSD>
11.407

$$$$
ligand
 OpenBabel11021811503D
libRbt.so/2013.1/901 2013/11/27
 10 11  0  0  0  0  0  0  0  0999 V2000
   -2.2179  -29.1113   28.3141 N   0  0  0  0  0  0  0  0  0  0  0  0
   -3.3600  -28.9228   28.9781 C   0  0  0  0  0  0  0  0  0  0  0  0
   -4.5845  -29.3868   28.6991 N   0  0  0  0  0  0  0  0  0  0  0  0
   -4.5649  -30.1181   27.5684 C   0  0  0  0  0  0  0  0  0  0  0  0
   -3.4685  -30.3992   26.7756 C   0  0  0  0  0  0  0  0  0  0  0  0
   -2.2322  -29.8601   27.1834 C   0  0  0  0  0  0  0  0  0  0  0  0
   -1.0913  -30.0475   26.5006 N   0  0  0  0  0  0  0  0  0  0  0  0
   -3.8249  -31.1880   25.6970 N   0  0  0  0  0  0  0  0  0  0  0  0
   -5.1087  -31.3754   25.8542 C   0  0  0  0  0  0  0  0  0  0  0  0
   -5.6225  -30.7500   26.9592 N   0  0  0  0  0  0  0  0  0  0  0  0
  1  2  2  0  0  0  0
  1  6  1  0  0  0  0
  2  3  1  0  0  0  0
  3  4  2  0  0  0  0
  4  5  1  0  0  0  0
  4 10  1  0  0  0  0
  5  6  2  0  0  0  0
  5  8  1  0  0  0  0
  6  7  1  0  0  0  0
  8  9  1  0  0  0  0
  9 10  2  0  0  0  0
M  END
>  <CHROM.1>
-3.59684387,-30.11445860,27.25151130,0.61256141,0.18354707,0.98903788

>  <Name>
ligand

>  <RI>
0

>  <Rbt.Current_Directory>
/home/itssahil/PROJECTS/Mol_Feturizer/New_Systems/rnas/4LW0

>  <Rbt.Executable>
rbdock ($Id: //depot/dev/client3/rdock/2013.1/src/exe/rbdock.cxx#4 $)

>  <Rbt.Library>
libRbt.so (2013.1, Build901 2013/11/27)

>  <Rbt.Parameter_File>
/export/apps/rDock/src/rDock_2013.1_src/data/scripts/dock_solv.prm

>  <Rbt.Receptor>
prm/blind_docking_100.prm

>  <SCORE>
-13.5613

>  <SCORE.INTER>
-13.5613

>  <SCORE.INTER.CONST>
1

>  <SCORE.INTER.POLAR>
0

>  <SCORE.INTER.ROT>
0

>  <SCORE.INTER.SOLV>
6.66598

>  <SCORE.INTER.VDW>
-14.8629

>  <SCORE.INTER.norm>
-1.35613

>  <SCORE.INTRA>
0

>  <SCORE.INTRA.DIHEDRAL>
0

>  <SCORE.INTRA.DIHEDRAL.0>
0

>  <SCORE.INTRA.POLAR>
0

>  <SCORE.INTRA.POLAR.0>
0

>  <SCORE.INTRA.REPUL>
0

>  <SCORE.INTRA.REPUL.0>
0

>  <SCORE.INTRA.SOLV>
0

>  <SCORE.INTRA.SOLV.lig_0>
-23.9151

>  <SCORE.INTRA.VDW>
0

>  <SCORE.INTRA.VDW.0>
0

>  <SCORE.INTRA.norm>
0

>  <SCORE.RESTR>
0

>  <SCORE.RESTR.CAVITY>
0

>  <SCORE.RESTR.norm>
0

>  <SCORE.SYSTEM>
0

>  <SCORE.SYSTEM.CONST>
0

>  <SCORE.SYSTEM.DIHEDRAL>
0

>  <SCORE.SYSTEM.SOLV>
0

>  <SCORE.SYSTEM.norm>
0

>  <SCORE.heavy>
10

>  <SCORE.norm>
-1.35613

>  <RMSD>
11.407

$$$$
ligand
 OpenBabel11021811503D
libRbt.so/2013.1/901 2013/11/27
 10 11  0  0  0  0  0  0  0  0999 V2000
   -2.1776  -29.1910   28.3612 N   0  0  0  0  0  0  0  0  0  0  0  0
   -3.3129  -29.0259   29.0430 C   0  0  0  0  0  0  0  0  0  0  0  0
   -4.5436  -29.4649   28.7512 N   0  0  0  0  0  0  0  0  0  0  0  0
   -4.5392  -30.1393   27.5855 C   0  0  0  0  0  0  0  0  0  0  0  0
   -3.4515  -30.3901   26.7709 C   0  0  0  0  0  0  0  0  0  0  0  0
   -2.2073  -29.8825   27.1949 C   0  0  0  0  0  0  0  0  0  0  0  0
   -1.0734  -30.0456   26.4944 N   0  0  0  0  0  0  0  0  0  0  0  0
   -3.8233  -31.1212   25.6575 N   0  0  0  0  0  0  0  0  0  0  0  0
   -5.1074  -31.3052   25.8156 C   0  0  0  0  0  0  0  0  0  0  0  0
   -5.6071  -30.7311   26.9543 N   0  0  0  0  0  0  0  0  0  0  0  0
  1  2  2  0  0  0  0
  1  6  1  0  0  0  0
  2  3  1  0  0  0  0
  3  4  2  0  0  0  0
  4  5  1  0  0  0  0
  4 10  1  0  0  0  0
  5  6  2  0  0  0  0
  5  8  1  0  0  0  0
  6  7  1  0  0  0  0
  8  9  1  0  0  0  0
  9 10  2  0  0  0  0
M  END
>  <CHROM.1>
-3.57365797,-30.12821858,27.26138191,0.60104049,0.18024941,1.04077578

>  <Name>
ligand

>  <RI>
0

>  <Rbt.Current_Directory>
/home/itssahil/PROJECTS/Mol_Feturizer/New_Systems/rnas/4LW0

>  <Rbt.Executable>
rbdock ($Id: //depot/dev/client3/rdock/2013.1/src/exe/rbdock.cxx#4 $)

>  <Rbt.Library>
libRbt.so (2013.1, Build901 2013/11/27)

>  <Rbt.Parameter_File>
/export/apps/rDock/src/rDock_2013.1_src/data/scripts/dock_solv.prm

>  <Rbt.Receptor>
prm/blind_docking_60.prm

>  <SCORE>
-13.4813

>  <SCORE.INTER>
-13.4813

>  <SCORE.INTER.CONST>
1

>  <SCORE.INTER.POLAR>
0

>  <SCORE.INTER.ROT>
0

>  <SCORE.INTER.SOLV>
6.66025

>  <SCORE.INTER.VDW>
-14.8076

>  <SCORE.INTER.norm>
-1.34813

>  <SCORE.INTRA>
0

>  <SCORE.INTRA.DIHEDRAL>
0

>  <SCORE.INTRA.DIHEDRAL.0>
0

>  <SCORE.INTRA.POLAR>
0

>  <SCORE.INTRA.POLAR.0>
0

>  <SCORE.INTRA.REPUL>
0

>  <SCORE.INTRA.REPUL.0>
0

>  <SCORE.INTRA.SOLV>
0

>  <SCORE.INTRA.SOLV.lig_0>
-23.9151

>  <SCORE.INTRA.VDW>
0

>  <SCORE.INTRA.VDW.0>
0

>  <SCORE.INTRA.norm>
0

>  <SCORE.RESTR>
0

>  <SCORE.RESTR.CAVITY>
0

>  <SCORE.RESTR.norm>
0

>  <SCORE.SYSTEM>
0

>  <SCORE.SYSTEM.CONST>
0

>  <SCORE.SYSTEM.DIHEDRAL>
0

>  <SCORE.SYSTEM.SOLV>
0

>  <SCORE.SYSTEM.norm>
0

>  <SCORE.heavy>
10

>  <SCORE.norm>
-1.34813

>  <RMSD>
11.408

$$$$
ligand
 OpenBabel11021811503D
libRbt.so/2013.1/901 2013/11/27
 10 11  0  0  0  0  0  0  0  0999 V2000
   -4.0024  -29.0147   28.9384 N   0  0  0  0  0  0  0  0  0  0  0  0
   -2.7236  -28.6501   28.8255 C   0  0  0  0  0  0  0  0  0  0  0  0
   -1.8209  -29.0135   27.9062 N   0  0  0  0  0  0  0  0  0  0  0  0
   -2.3641  -29.8785   27.0285 C   0  0  0  0  0  0  0  0  0  0  0  0
   -3.6638  -30.3481   27.0156 C   0  0  0  0  0  0  0  0  0  0  0  0
   -4.5200  -29.8813   28.0326 C   0  0  0  0  0  0  0  0  0  0  0  0
   -5.8023  -30.2642   28.1425 N   0  0  0  0  0  0  0  0  0  0  0  0
   -3.8670  -31.2177   25.9597 N   0  0  0  0  0  0  0  0  0  0  0  0
   -2.7090  -31.2555   25.3552 C   0  0  0  0  0  0  0  0  0  0  0  0
   -1.7533  -30.4773   25.9527 N   0  0  0  0  0  0  0  0  0  0  0  0
  1  2  2  0  0  0  0
  1  6  1  0  0  0  0
  2  3  1  0  0  0  0
  3  4  2  0  0  0  0
  4  5  1  0  0  0  0
  4 10  1  0  0  0  0
  5  6  2  0  0  0  0
  5  8  1  0  0  0  0
  6  7  1  0  0  0  0
  8  9  1  0  0  0  0
  9 10  2  0  0  0  0
M  END
>  <CHROM.1>
-3.33236188,-29.99988873,27.32062492,-2.11040529,-0.27717966,-2.21762849

>  <Name>
ligand

>  <RI>
0

>  <Rbt.Current_Directory>
/home/itssahil/PROJECTS/Mol_Feturizer/New_Systems/rnas/4LW0

>  <Rbt.Executable>
rbdock ($Id: //depot/dev/client3/rdock/2013.1/src/exe/rbdock.cxx#4 $)

>  <Rbt.Library>
libRbt.so (2013.1, Build901 2013/11/27)

>  <Rbt.Parameter_File>
/export/apps/rDock/src/rDock_2013.1_src/data/scripts/dock_solv.prm

>  <Rbt.Receptor>
prm/blind_docking_100.prm

>  <SCORE>
-11.715

>  <SCORE.INTER>
-11.715

>  <SCORE.INTER.CONST>
1

>  <SCORE.INTER.POLAR>
0

>  <SCORE.INTER.ROT>
0

>  <SCORE.INTER.SOLV>
9.41773

>  <SCORE.INTER.VDW>
-14.5492

>  <SCORE.INTER.norm>
-1.1715

>  <SCORE.INTRA>
0

>  <SCORE.INTRA.DIHEDRAL>
0

>  <SCORE.INTRA.DIHEDRAL.0>
0

>  <SCORE.INTRA.POLAR>
0

>  <SCORE.INTRA.POLAR.0>
0

>  <SCORE.INTRA.REPUL>
0

>  <SCORE.INTRA.REPUL.0>
0

>  <SCORE.INTRA.SOLV>
0

>  <SCORE.INTRA.SOLV.lig_0>
-23.9151

>  <SCORE.INTRA.VDW>
0

>  <SCORE.INTRA.VDW.0>
0

>  <SCORE.INTRA.norm>
0

>  <SCORE.RESTR>
0

>  <SCORE.RESTR.CAVITY>
0

>  <SCORE.RESTR.norm>
0

>  <SCORE.SYSTEM>
0

>  <SCORE.SYSTEM.CONST>
0

>  <SCORE.SYSTEM.DIHEDRAL>
0

>  <SCORE.SYSTEM.SOLV>
0

>  <SCORE.SYSTEM.norm>
0

>  <SCORE.heavy>
10

>  <SCORE.norm>
-1.1715

>  <RMSD>
11.411

$$$$
ligand
 OpenBabel11021811503D
libRbt.so/2013.1/901 2013/11/27
 10 11  0  0  0  0  0  0  0  0999 V2000
   -2.2254  -29.1315   28.3281 N   0  0  0  0  0  0  0  0  0  0  0  0
   -3.3638  -28.9613   29.0036 C   0  0  0  0  0  0  0  0  0  0  0  0
   -4.5874  -29.4280   28.7255 N   0  0  0  0  0  0  0  0  0  0  0  0
   -4.5717  -30.1396   27.5823 C   0  0  0  0  0  0  0  0  0  0  0  0
   -3.4796  -30.4004   26.7768 C   0  0  0  0  0  0  0  0  0  0  0  0
   -2.2436  -29.8608   27.1849 C   0  0  0  0  0  0  0  0  0  0  0  0
   -1.1066  -30.0294   26.4907 N   0  0  0  0  0  0  0  0  0  0  0  0
   -3.8392  -31.1727   25.6875 N   0  0  0  0  0  0  0  0  0  0  0  0
   -5.1206  -31.3706   25.8507 C   0  0  0  0  0  0  0  0  0  0  0  0
   -5.6300  -30.7675   26.9699 N   0  0  0  0  0  0  0  0  0  0  0  0
  1  2  2  0  0  0  0
  1  6  1  0  0  0  0
  2  3  1  0  0  0  0
  3  4  2  0  0  0  0
  4  5  1  0  0  0  0
  4 10  1  0  0  0  0
  5  6  2  0  0  0  0
  5  8  1  0  0  0  0
  6  7  1  0  0  0  0
  8  9  1  0  0  0  0
  9 10  2  0  0  0  0
M  END
>  <CHROM.1>
-3.60612106,-30.12461001,27.25848531,0.60965289,0.19261084,1.00677818

>  <Name>
ligand

>  <RI>
0

>  <Rbt.Current_Directory>
/home/itssahil/PROJECTS/Mol_Feturizer/New_Systems/rnas/4LW0

>  <Rbt.Executable>
rbdock ($Id: //depot/dev/client3/rdock/2013.1/src/exe/rbdock.cxx#4 $)

>  <Rbt.Library>
libRbt.so (2013.1, Build901 2013/11/27)

>  <Rbt.Parameter_File>
/export/apps/rDock/src/rDock_2013.1_src/data/scripts/dock_solv.prm

>  <Rbt.Receptor>
prm/blind_docking_80.prm

>  <SCORE>
-13.5474

>  <SCORE.INTER>
-13.5474

>  <SCORE.INTER.CONST>
1

>  <SCORE.INTER.POLAR>
0

>  <SCORE.INTER.ROT>
0

>  <SCORE.INTER.SOLV>
6.64128

>  <SCORE.INTER.VDW>
-14.8454

>  <SCORE.INTER.norm>
-1.35474

>  <SCORE.INTRA>
0

>  <SCORE.INTRA.DIHEDRAL>
0

>  <SCORE.INTRA.DIHEDRAL.0>
0

>  <SCORE.INTRA.POLAR>
0

>  <SCORE.INTRA.POLAR.0>
0

>  <SCORE.INTRA.REPUL>
0

>  <SCORE.INTRA.REPUL.0>
0

>  <SCORE.INTRA.SOLV>
0

>  <SCORE.INTRA.SOLV.lig_0>
-23.9151

>  <SCORE.INTRA.VDW>
0

>  <SCORE.INTRA.VDW.0>
0

>  <SCORE.INTRA.norm>
0

>  <SCORE.RESTR>
0

>  <SCORE.RESTR.CAVITY>
0

>  <SCORE.RESTR.norm>
0

>  <SCORE.SYSTEM>
0

>  <SCORE.SYSTEM.CONST>
0

>  <SCORE.SYSTEM.DIHEDRAL>
0

>  <SCORE.SYSTEM.SOLV>
0

>  <SCORE.SYSTEM.norm>
0

>  <SCORE.heavy>
10

>  <SCORE.norm>
-1.35474

>  <RMSD>
11.421

$$$$
ligand
 OpenBabel11021811503D
libRbt.so/2013.1/901 2013/11/27
 10 11  0  0  0  0  0  0  0  0999 V2000
   -2.2425  -29.1494   28.3992 N   0  0  0  0  0  0  0  0  0  0  0  0
   -3.3865  -29.0117   29.0726 C   0  0  0  0  0  0  0  0  0  0  0  0
   -4.6042  -29.4795   28.7714 N   0  0  0  0  0  0  0  0  0  0  0  0
   -4.5752  -30.1526   27.6053 C   0  0  0  0  0  0  0  0  0  0  0  0
   -3.4758  -30.3769   26.7986 C   0  0  0  0  0  0  0  0  0  0  0  0
   -2.2472  -29.8404   27.2322 C   0  0  0  0  0  0  0  0  0  0  0  0
   -1.1046  -29.9760   26.5401 N   0  0  0  0  0  0  0  0  0  0  0  0
   -3.8219  -31.1157   25.6819 N   0  0  0  0  0  0  0  0  0  0  0  0
   -5.1025  -31.3301   25.8304 C   0  0  0  0  0  0  0  0  0  0  0  0
   -5.6240  -30.7690   26.9657 N   0  0  0  0  0  0  0  0  0  0  0  0
  1  2  2  0  0  0  0
  1  6  1  0  0  0  0
  2  3  1  0  0  0  0
  3  4  2  0  0  0  0
  4  5  1  0  0  0  0
  4 10  1  0  0  0  0
  5  6  2  0  0  0  0
  5  8  1  0  0  0  0
  6  7  1  0  0  0  0
  8  9  1  0  0  0  0
  9 10  2  0  0  0  0
M  END
>  <CHROM.1>
-3.60776804,-30.11843572,27.28834832,0.61978174,0.19688419,1.03803680

>  <Name>
ligand

>  <RI>
0

>  <Rbt.Current_Directory>
/home/itssahil/PROJECTS/Mol_Feturizer/New_Systems/rnas/4LW0

>  <Rbt.Executable>
rbdock ($Id: //depot/dev/client3/rdock/2013.1/src/exe/rbdock.cxx#4 $)

>  <Rbt.Library>
libRbt.so (2013.1, Build901 2013/11/27)

>  <Rbt.Parameter_File>
/export/apps/rDock/src/rDock_2013.1_src/data/scripts/dock_solv.prm

>  <Rbt.Receptor>
prm/blind_docking_80.prm

>  <SCORE>
-13.4299

>  <SCORE.INTER>
-13.4299

>  <SCORE.INTER.CONST>
1

>  <SCORE.INTER.POLAR>
0

>  <SCORE.INTER.ROT>
0

>  <SCORE.INTER.SOLV>
6.57592

>  <SCORE.INTER.VDW>
-14.7452

>  <SCORE.INTER.norm>
-1.34299

>  <SCORE.INTRA>
0

>  <SCORE.INTRA.DIHEDRAL>
0

>  <SCORE.INTRA.DIHEDRAL.0>
0

>  <SCORE.INTRA.POLAR>
0

>  <SCORE.INTRA.POLAR.0>
0

>  <SCORE.INTRA.REPUL>
0

>  <SCORE.INTRA.REPUL.0>
0

>  <SCORE.INTRA.SOLV>
0

>  <SCORE.INTRA.SOLV.lig_0>
-23.9151

>  <SCORE.INTRA.VDW>
0

>  <SCORE.INTRA.VDW.0>
0

>  <SCORE.INTRA.norm>
0

>  <SCORE.RESTR>
0

>  <SCORE.RESTR.CAVITY>
0

>  <SCORE.RESTR.norm>
0

>  <SCORE.SYSTEM>
0

>  <SCORE.SYSTEM.CONST>
0

>  <SCORE.SYSTEM.DIHEDRAL>
0

>  <SCORE.SYSTEM.SOLV>
0

>  <SCORE.SYSTEM.norm>
0

>  <SCORE.heavy>
10

>  <SCORE.norm>
-1.34299

>  <RMSD>
11.425

$$$$
ligand
 OpenBabel11021811503D
libRbt.so/2013.1/901 2013/11/27
 10 11  0  0  0  0  0  0  0  0999 V2000
   -2.2732  -29.1826   28.4870 N   0  0  0  0  0  0  0  0  0  0  0  0
   -3.4234  -29.0287   29.1460 C   0  0  0  0  0  0  0  0  0  0  0  0
   -4.6463  -29.4670   28.8220 N   0  0  0  0  0  0  0  0  0  0  0  0
   -4.6149  -30.1266   27.6484 C   0  0  0  0  0  0  0  0  0  0  0  0
   -3.5091  -30.3645   26.8544 C   0  0  0  0  0  0  0  0  0  0  0  0
   -2.2757  -29.8594   27.3117 C   0  0  0  0  0  0  0  0  0  0  0  0
   -1.1265  -30.0109   26.6341 N   0  0  0  0  0  0  0  0  0  0  0  0
   -3.8547  -31.0825   25.7241 N   0  0  0  0  0  0  0  0  0  0  0  0
   -5.1414  -31.2714   25.8520 C   0  0  0  0  0  0  0  0  0  0  0  0
   -5.6672  -30.7129   26.9867 N   0  0  0  0  0  0  0  0  0  0  0  0
  1  2  2  0  0  0  0
  1  6  1  0  0  0  0
  2  3  1  0  0  0  0
  3  4  2  0  0  0  0
  4  5  1  0  0  0  0
  4 10  1  0  0  0  0
  5  6  2  0  0  0  0
  5  8  1  0  0  0  0
  6  7  1  0  0  0  0
  8  9  1  0  0  0  0
  9 10  2  0  0  0  0
M  END
>  <CHROM.1>
-3.64252396,-30.10916384,27.34542677,0.62139546,0.17152837,1.04979115

>  <Name>
ligand

>  <RI>
0

>  <Rbt.Current_Directory>
/home/itssahil/PROJECTS/Mol_Feturizer/New_Systems/rnas/4LW0

>  <Rbt.Executable>
rbdock ($Id: //depot/dev/client3/rdock/2013.1/src/exe/rbdock.cxx#4 $)

>  <Rbt.Library>
libRbt.so (2013.1, Build901 2013/11/27)

>  <Rbt.Parameter_File>
/export/apps/rDock/src/rDock_2013.1_src/data/scripts/dock_solv.prm

>  <Rbt.Receptor>
prm/blind_docking_100.prm

>  <SCORE>
-13.5122

>  <SCORE.INTER>
-13.5122

>  <SCORE.INTER.CONST>
1

>  <SCORE.INTER.POLAR>
0

>  <SCORE.INTER.ROT>
0

>  <SCORE.INTER.SOLV>
6.54387

>  <SCORE.INTER.VDW>
-14.7894

>  <SCORE.INTER.norm>
-1.35122

>  <SCORE.INTRA>
0

>  <SCORE.INTRA.DIHEDRAL>
0

>  <SCORE.INTRA.DIHEDRAL.0>
0

>  <SCORE.INTRA.POLAR>
0

>  <SCORE.INTRA.POLAR.0>
0

>  <SCORE.INTRA.REPUL>
0

>  <SCORE.INTRA.REPUL.0>
0

>  <SCORE.INTRA.SOLV>
0

>  <SCORE.INTRA.SOLV.lig_0>
-23.9151

>  <SCORE.INTRA.VDW>
0

>  <SCORE.INTRA.VDW.0>
0

>  <SCORE.INTRA.norm>
0

>  <SCORE.RESTR>
0

>  <SCORE.RESTR.CAVITY>
0

>  <SCORE.RESTR.norm>
0

>  <SCORE.SYSTEM>
0

>  <SCORE.SYSTEM.CONST>
0

>  <SCORE.SYSTEM.DIHEDRAL>
0

>  <SCORE.SYSTEM.SOLV>
0

>  <SCORE.SYSTEM.norm>
0

>  <SCORE.heavy>
10

>  <SCORE.norm>
-1.35122

>  <RMSD>
11.445

$$$$
ligand
 OpenBabel11021811503D
libRbt.so/2013.1/901 2013/11/27
 10 11  0  0  0  0  0  0  0  0999 V2000
   -4.0600  -29.0884   29.0220 N   0  0  0  0  0  0  0  0  0  0  0  0
   -2.7668  -28.7731   28.9271 C   0  0  0  0  0  0  0  0  0  0  0  0
   -1.8755  -29.1385   27.9973 N   0  0  0  0  0  0  0  0  0  0  0  0
   -2.4500  -29.9462   27.0856 C   0  0  0  0  0  0  0  0  0  0  0  0
   -3.7678  -30.3607   27.0508 C   0  0  0  0  0  0  0  0  0  0  0  0
   -4.6088  -29.8977   28.0822 C   0  0  0  0  0  0  0  0  0  0  0  0
   -5.9063  -30.2309   28.1735 N   0  0  0  0  0  0  0  0  0  0  0  0
   -4.0019  -31.1803   25.9619 N   0  0  0  0  0  0  0  0  0  0  0  0
   -2.8436  -31.2431   25.3600 C   0  0  0  0  0  0  0  0  0  0  0  0
   -1.8594  -30.5285   25.9896 N   0  0  0  0  0  0  0  0  0  0  0  0
  1  2  2  0  0  0  0
  1  6  1  0  0  0  0
  2  3  1  0  0  0  0
  3  4  2  0  0  0  0
  4  5  1  0  0  0  0
  4 10  1  0  0  0  0
  5  6  2  0  0  0  0
  5  8  1  0  0  0  0
  6  7  1  0  0  0  0
  8  9  1  0  0  0  0
  9 10  2  0  0  0  0
M  END
>  <CHROM.1>
-3.42372325,-30.03832638,27.36990697,-2.08858426,-0.24130180,-2.17394463

>  <Name>
ligand

>  <RI>
0

>  <Rbt.Current_Directory>
/home/itssahil/PROJECTS/Mol_Feturizer/New_Systems/rnas/4LW0

>  <Rbt.Executable>
rbdock ($Id: //depot/dev/client3/rdock/2013.1/src/exe/rbdock.cxx#4 $)

>  <Rbt.Library>
libRbt.so (2013.1, Build901 2013/11/27)

>  <Rbt.Parameter_File>
/export/apps/rDock/src/rDock_2013.1_src/data/scripts/dock_solv.prm

>  <Rbt.Receptor>
prm/blind_docking_80.prm

>  <SCORE>
-11.7935

>  <SCORE.INTER>
-11.7935

>  <SCORE.INTER.CONST>
1

>  <SCORE.INTER.POLAR>
0

>  <SCORE.INTER.ROT>
0

>  <SCORE.INTER.SOLV>
9.49223

>  <SCORE.INTER.VDW>
-14.6264

>  <SCORE.INTER.norm>
-1.17935

>  <SCORE.INTRA>
0

>  <SCORE.INTRA.DIHEDRAL>
0

>  <SCORE.INTRA.DIHEDRAL.0>
0

>  <SCORE.INTRA.POLAR>
0

>  <SCORE.INTRA.POLAR.0>
0

>  <SCORE.INTRA.REPUL>
0

>  <SCORE.INTRA.REPUL.0>
0

>  <SCORE.INTRA.SOLV>
0

>  <SCORE.INTRA.SOLV.lig_0>
-23.9151

>  <SCORE.INTRA.VDW>
0

>  <SCORE.INTRA.VDW.0>
0

>  <SCORE.INTRA.norm>
0

>  <SCORE.RESTR>
0

>  <SCORE.RESTR.CAVITY>
0

>  <SCORE.RESTR.norm>
0

>  <SCORE.SYSTEM>
0

>  <SCORE.SYSTEM.CONST>
0

>  <SCORE.SYSTEM.DIHEDRAL>
0

>  <SCORE.SYSTEM.SOLV>
0

>  <SCORE.SYSTEM.norm>
0

>  <SCORE.heavy>
10

>  <SCORE.norm>
-1.17935

>  <RMSD>
11.493

$$$$
ligand
 OpenBabel11021811503D
libRbt.so/2013.1/901 2013/11/27
 10 11  0  0  0  0  0  0  0  0999 V2000
   -1.7647  -30.4655   26.1084 N   0  0  0  0  0  0  0  0  0  0  0  0
   -2.6374  -31.1874   25.4023 C   0  0  0  0  0  0  0  0  0  0  0  0
   -3.9525  -31.3463   25.5959 N   0  0  0  0  0  0  0  0  0  0  0  0
   -4.3550  -30.6608   26.6830 C   0  0  0  0  0  0  0  0  0  0  0  0
   -3.5749  -29.8753   27.5100 C   0  0  0  0  0  0  0  0  0  0  0  0
   -2.2053  -29.7806   27.1928 C   0  0  0  0  0  0  0  0  0  0  0  0
   -1.3346  -29.0598   27.9176 N   0  0  0  0  0  0  0  0  0  0  0  0
   -4.3321  -29.3174   28.5239 N   0  0  0  0  0  0  0  0  0  0  0  0
   -5.5401  -29.7603   28.2953 C   0  0  0  0  0  0  0  0  0  0  0  0
   -5.6244  -30.5841   27.2043 N   0  0  0  0  0  0  0  0  0  0  0  0
  1  2  2  0  0  0  0
  1  6  1  0  0  0  0
  2  3  1  0  0  0  0
  3  4  2  0  0  0  0
  4  5  1  0  0  0  0
  4 10  1  0  0  0  0
  5  6  2  0  0  0  0
  5  8  1  0  0  0  0
  6  7  1  0  0  0  0
  8  9  1  0  0  0  0
  9 10  2  0  0  0  0
M  END
>  <CHROM.1>
-3.52210087,-30.19998104,27.04539272,0.28677624,-0.18737665,-2.19800325

>  <Name>
ligand

>  <RI>
0

>  <Rbt.Current_Directory>
/home/itssahil/PROJECTS/Mol_Feturizer/New_Systems/rnas/4LW0

>  <Rbt.Executable>
rbdock ($Id: //depot/dev/client3/rdock/2013.1/src/exe/rbdock.cxx#4 $)

>  <Rbt.Library>
libRbt.so (2013.1, Build901 2013/11/27)

>  <Rbt.Parameter_File>
/export/apps/rDock/src/rDock_2013.1_src/data/scripts/dock_solv.prm

>  <Rbt.Receptor>
prm/blind_docking_80.prm

>  <SCORE>
-12.1993

>  <SCORE.INTER>
-12.1993

>  <SCORE.INTER.CONST>
1

>  <SCORE.INTER.POLAR>
0

>  <SCORE.INTER.ROT>
0

>  <SCORE.INTER.SOLV>
7.74506

>  <SCORE.INTER.VDW>
-14.3146

>  <SCORE.INTER.norm>
-1.21993

>  <SCORE.INTRA>
0

>  <SCORE.INTRA.DIHEDRAL>
0

>  <SCORE.INTRA.DIHEDRAL.0>
0

>  <SCORE.INTRA.POLAR>
0

>  <SCORE.INTRA.POLAR.0>
0

>  <SCORE.INTRA.REPUL>
0

>  <SCORE.INTRA.REPUL.0>
0

>  <SCORE.INTRA.SOLV>
0

>  <SCORE.INTRA.SOLV.lig_0>
-23.9151

>  <SCORE.INTRA.VDW>
0

>  <SCORE.INTRA.VDW.0>
0

>  <SCORE.INTRA.norm>
0

>  <SCORE.RESTR>
0

>  <SCORE.RESTR.CAVITY>
0

>  <SCORE.RESTR.norm>
0

>  <SCORE.SYSTEM>
0

>  <SCORE.SYSTEM.CONST>
0

>  <SCORE.SYSTEM.DIHEDRAL>
0

>  <SCORE.SYSTEM.SOLV>
0

>  <SCORE.SYSTEM.norm>
0

>  <SCORE.heavy>
10

>  <SCORE.norm>
-1.21993

>  <RMSD>
11.536

$$$$
ligand
 OpenBabel11021811503D
libRbt.so/2013.1/901 2013/11/27
 10 11  0  0  0  0  0  0  0  0999 V2000
    4.6753  -26.9620   16.2101 N   0  0  0  0  0  0  0  0  0  0  0  0
    4.5715  -25.6900   15.8200 C   0  0  0  0  0  0  0  0  0  0  0  0
    3.4715  -24.9824   15.5341 N   0  0  0  0  0  0  0  0  0  0  0  0
    2.3710  -25.7465   15.6708 C   0  0  0  0  0  0  0  0  0  0  0  0
    2.3181  -27.0707   16.0625 C   0  0  0  0  0  0  0  0  0  0  0  0
    3.5461  -27.7009   16.3457 C   0  0  0  0  0  0  0  0  0  0  0  0
    3.6387  -28.9851   16.7267 N   0  0  0  0  0  0  0  0  0  0  0  0
    1.0128  -27.5258   16.0991 N   0  0  0  0  0  0  0  0  0  0  0  0
    0.3063  -26.4860   15.7419 C   0  0  0  0  0  0  0  0  0  0  0  0
    1.0633  -25.3799   15.4599 N   0  0  0  0  0  0  0  0  0  0  0  0
  1  2  2  0  0  0  0
  1  6  1  0  0  0  0
  2  3  1  0  0  0  0
  3  4  2  0  0  0  0
  4  5  1  0  0  0  0
  4 10  1  0  0  0  0
  5  6  2  0  0  0  0
  5  8  1  0  0  0  0
  6  7  1  0  0  0  0
  8  9  1  0  0  0  0
  9 10  2  0  0  0  0
M  END
>  <CHROM.1>
2.70321063,-26.66169581,15.97005388,-0.36400921,-0.07236325,-0.28847085

>  <Name>
ligand

>  <RI>
0

>  <Rbt.Current_Directory>
/home/itssahil/PROJECTS/Mol_Feturizer/New_Systems/rnas/4LW0

>  <Rbt.Executable>
rbdock ($Id: //depot/dev/client3/rdock/2013.1/src/exe/rbdock.cxx#4 $)

>  <Rbt.Library>
libRbt.so (2013.1, Build901 2013/11/27)

>  <Rbt.Parameter_File>
/export/apps/rDock/src/rDock_2013.1_src/data/scripts/dock_solv.prm

>  <Rbt.Receptor>
prm/blind_docking_40.prm

>  <SCORE>
-9.75103

>  <SCORE.INTER>
-9.75103

>  <SCORE.INTER.CONST>
1

>  <SCORE.INTER.POLAR>
0

>  <SCORE.INTER.ROT>
0

>  <SCORE.INTER.SOLV>
5.54354

>  <SCORE.INTER.VDW>
-11.9485

>  <SCORE.INTER.norm>
-0.975103

>  <SCORE.INTRA>
0

>  <SCORE.INTRA.DIHEDRAL>
0

>  <SCORE.INTRA.DIHEDRAL.0>
0

>  <SCORE.INTRA.POLAR>
0

>  <SCORE.INTRA.POLAR.0>
0

>  <SCORE.INTRA.REPUL>
0

>  <SCORE.INTRA.REPUL.0>
0

>  <SCORE.INTRA.SOLV>
0

>  <SCORE.INTRA.SOLV.lig_0>
-23.9151

>  <SCORE.INTRA.VDW>
0

>  <SCORE.INTRA.VDW.0>
0

>  <SCORE.INTRA.norm>
0

>  <SCORE.RESTR>
0

>  <SCORE.RESTR.CAVITY>
0

>  <SCORE.RESTR.norm>
0

>  <SCORE.SYSTEM>
0

>  <SCORE.SYSTEM.CONST>
0

>  <SCORE.SYSTEM.DIHEDRAL>
0

>  <SCORE.SYSTEM.SOLV>
0

>  <SCORE.SYSTEM.norm>
0

>  <SCORE.heavy>
10

>  <SCORE.norm>
-0.975103

>  <RMSD>
11.569

$$$$
ligand
 OpenBabel11021811503D
libRbt.so/2013.1/901 2013/11/27
 10 11  0  0  0  0  0  0  0  0999 V2000
    4.6718  -26.9635   16.2153 N   0  0  0  0  0  0  0  0  0  0  0  0
    4.5722  -25.6950   15.8128 C   0  0  0  0  0  0  0  0  0  0  0  0
    3.4747  -24.9873   15.5179 N   0  0  0  0  0  0  0  0  0  0  0  0
    2.3719  -25.7472   15.6595 C   0  0  0  0  0  0  0  0  0  0  0  0
    2.3147  -27.0674   16.0638 C   0  0  0  0  0  0  0  0  0  0  0  0
    3.5404  -27.6981   16.3556 C   0  0  0  0  0  0  0  0  0  0  0  0
    3.6288  -28.9789   16.7491 N   0  0  0  0  0  0  0  0  0  0  0  0
    1.0081  -27.5187   16.1020 N   0  0  0  0  0  0  0  0  0  0  0  0
    0.3051  -26.4805   15.7334 C   0  0  0  0  0  0  0  0  0  0  0  0
    1.0655  -25.3792   15.4424 N   0  0  0  0  0  0  0  0  0  0  0  0
  1  2  2  0  0  0  0
  1  6  1  0  0  0  0
  2  3  1  0  0  0  0
  3  4  2  0  0  0  0
  4  5  1  0  0  0  0
  4 10  1  0  0  0  0
  5  6  2  0  0  0  0
  5  8  1  0  0  0  0
  6  7  1  0  0  0  0
  8  9  1  0  0  0  0
  9 10  2  0  0  0  0
M  END
>  <CHROM.1>
2.70104112,-26.66031424,15.96825810,-0.36714047,-0.07360392,-0.29826103

>  <Name>
ligand

>  <RI>
0

>  <Rbt.Current_Directory>
/home/itssahil/PROJECTS/Mol_Feturizer/New_Systems/rnas/4LW0

>  <Rbt.Executable>
rbdock ($Id: //depot/dev/client3/rdock/2013.1/src/exe/rbdock.cxx#4 $)

>  <Rbt.Library>
libRbt.so (2013.1, Build901 2013/11/27)

>  <Rbt.Parameter_File>
/export/apps/rDock/src/rDock_2013.1_src/data/scripts/dock_solv.prm

>  <Rbt.Receptor>
prm/blind_docking_40.prm

>  <SCORE>
-9.74973

>  <SCORE.INTER>
-9.74973

>  <SCORE.INTER.CONST>
1

>  <SCORE.INTER.POLAR>
0

>  <SCORE.INTER.ROT>
0

>  <SCORE.INTER.SOLV>
5.551

>  <SCORE.INTER.VDW>
-11.9502

>  <SCORE.INTER.norm>
-0.974973

>  <SCORE.INTRA>
0

>  <SCORE.INTRA.DIHEDRAL>
0

>  <SCORE.INTRA.DIHEDRAL.0>
0

>  <SCORE.INTRA.POLAR>
0

>  <SCORE.INTRA.POLAR.0>
0

>  <SCORE.INTRA.REPUL>
0

>  <SCORE.INTRA.REPUL.0>
0

>  <SCORE.INTRA.SOLV>
0

>  <SCORE.INTRA.SOLV.lig_0>
-23.9151

>  <SCORE.INTRA.VDW>
0

>  <SCORE.INTRA.VDW.0>
0

>  <SCORE.INTRA.norm>
0

>  <SCORE.RESTR>
0

>  <SCORE.RESTR.CAVITY>
0

>  <SCORE.RESTR.norm>
0

>  <SCORE.SYSTEM>
0

>  <SCORE.SYSTEM.CONST>
0

>  <SCORE.SYSTEM.DIHEDRAL>
0

>  <SCORE.SYSTEM.SOLV>
0

>  <SCORE.SYSTEM.norm>
0

>  <SCORE.heavy>
10

>  <SCORE.norm>
-0.974973

>  <RMSD>
11.571

$$$$
ligand
 OpenBabel11021811503D
libRbt.so/2013.1/901 2013/11/27
 10 11  0  0  0  0  0  0  0  0999 V2000
    4.7202  -26.9823   16.2424 N   0  0  0  0  0  0  0  0  0  0  0  0
    4.6000  -25.7147   15.8426 C   0  0  0  0  0  0  0  0  0  0  0  0
    3.4912  -25.0247   15.5480 N   0  0  0  0  0  0  0  0  0  0  0  0
    2.4010  -25.8030   15.6869 C   0  0  0  0  0  0  0  0  0  0  0  0
    2.3653  -27.1249   16.0882 C   0  0  0  0  0  0  0  0  0  0  0  0
    3.6010  -27.7359   16.3799 C   0  0  0  0  0  0  0  0  0  0  0  0
    3.7102  -29.0159   16.7707 N   0  0  0  0  0  0  0  0  0  0  0  0
    1.0663  -27.5979   16.1240 N   0  0  0  0  0  0  0  0  0  0  0  0
    0.3466  -26.5707   15.7569 C   0  0  0  0  0  0  0  0  0  0  0  0
    1.0890  -25.4563   15.4691 N   0  0  0  0  0  0  0  0  0  0  0  0
  1  2  2  0  0  0  0
  1  6  1  0  0  0  0
  2  3  1  0  0  0  0
  3  4  2  0  0  0  0
  4  5  1  0  0  0  0
  4 10  1  0  0  0  0
  5  6  2  0  0  0  0
  5  8  1  0  0  0  0
  6  7  1  0  0  0  0
  8  9  1  0  0  0  0
  9 10  2  0  0  0  0
M  END
>  <CHROM.1>
2.74494546,-26.71128209,15.99392445,-0.35155742,-0.07945491,-0.29486641

>  <Name>
ligand

>  <RI>
0

>  <Rbt.Current_Directory>
/home/itssahil/PROJECTS/Mol_Feturizer/New_Systems/rnas/4LW0

>  <Rbt.Executable>
rbdock ($Id: //depot/dev/client3/rdock/2013.1/src/exe/rbdock.cxx#4 $)

>  <Rbt.Library>
libRbt.so (2013.1, Build901 2013/11/27)

>  <Rbt.Parameter_File>
/export/apps/rDock/src/rDock_2013.1_src/data/scripts/dock_solv.prm

>  <Rbt.Receptor>
prm/blind_docking_40.prm

>  <SCORE>
-9.7802

>  <SCORE.INTER>
-9.7802

>  <SCORE.INTER.CONST>
1

>  <SCORE.INTER.POLAR>
0

>  <SCORE.INTER.ROT>
0

>  <SCORE.INTER.SOLV>
5.47352

>  <SCORE.INTER.VDW>
-11.9446

>  <SCORE.INTER.norm>
-0.97802

>  <SCORE.INTRA>
0

>  <SCORE.INTRA.DIHEDRAL>
0

>  <SCORE.INTRA.DIHEDRAL.0>
0

>  <SCORE.INTRA.POLAR>
0

>  <SCORE.INTRA.POLAR.0>
0

>  <SCORE.INTRA.REPUL>
0

>  <SCORE.INTRA.REPUL.0>
0

>  <SCORE.INTRA.SOLV>
0

>  <SCORE.INTRA.SOLV.lig_0>
-23.9151

>  <SCORE.INTRA.VDW>
0

>  <SCORE.INTRA.VDW.0>
0

>  <SCORE.INTRA.norm>
0

>  <SCORE.RESTR>
0

>  <SCORE.RESTR.CAVITY>
0

>  <SCORE.RESTR.norm>
0

>  <SCORE.SYSTEM>
0

>  <SCORE.SYSTEM.CONST>
0

>  <SCORE.SYSTEM.DIHEDRAL>
0

>  <SCORE.SYSTEM.SOLV>
0

>  <SCORE.SYSTEM.norm>
0

>  <SCORE.heavy>
10

>  <SCORE.norm>
-0.97802

>  <RMSD>
11.578

$$$$
ligand
 OpenBabel11021811503D
libRbt.so/2013.1/901 2013/11/27
 10 11  0  0  0  0  0  0  0  0999 V2000
    4.7392  -27.0192   16.2256 N   0  0  0  0  0  0  0  0  0  0  0  0
    4.6441  -25.7497   15.8250 C   0  0  0  0  0  0  0  0  0  0  0  0
    3.5490  -25.0369   15.5337 N   0  0  0  0  0  0  0  0  0  0  0  0
    2.4432  -25.7921   15.6772 C   0  0  0  0  0  0  0  0  0  0  0  0
    2.3813  -27.1126   16.0799 C   0  0  0  0  0  0  0  0  0  0  0  0
    3.6050  -27.7490   16.3678 C   0  0  0  0  0  0  0  0  0  0  0  0
    3.6888  -29.0306   16.7595 N   0  0  0  0  0  0  0  0  0  0  0  0
    1.0728  -27.5582   16.1208 N   0  0  0  0  0  0  0  0  0  0  0  0
    0.3734  -26.5165   15.7553 C   0  0  0  0  0  0  0  0  0  0  0  0
    1.1379  -25.4182   15.4638 N   0  0  0  0  0  0  0  0  0  0  0  0
  1  2  2  0  0  0  0
  1  6  1  0  0  0  0
  2  3  1  0  0  0  0
  3  4  2  0  0  0  0
  4  5  1  0  0  0  0
  4 10  1  0  0  0  0
  5  6  2  0  0  0  0
  5  8  1  0  0  0  0
  6  7  1  0  0  0  0
  8  9  1  0  0  0  0
  9 10  2  0  0  0  0
M  END
>  <CHROM.1>
2.76913394,-26.70706702,15.98391304,-0.37058609,-0.06991961,-0.29725288

>  <Name>
ligand

>  <RI>
0

>  <Rbt.Current_Directory>
/home/itssahil/PROJECTS/Mol_Feturizer/New_Systems/rnas/4LW0

>  <Rbt.Executable>
rbdock ($Id: //depot/dev/client3/rdock/2013.1/src/exe/rbdock.cxx#4 $)

>  <Rbt.Library>
libRbt.so (2013.1, Build901 2013/11/27)

>  <Rbt.Parameter_File>
/export/apps/rDock/src/rDock_2013.1_src/data/scripts/dock_solv.prm

>  <Rbt.Receptor>
prm/blind_docking_40.prm

>  <SCORE>
-9.80899

>  <SCORE.INTER>
-9.80899

>  <SCORE.INTER.CONST>
1

>  <SCORE.INTER.POLAR>
0

>  <SCORE.INTER.ROT>
0

>  <SCORE.INTER.SOLV>
5.45699

>  <SCORE.INTER.VDW>
-11.9583

>  <SCORE.INTER.norm>
-0.980899

>  <SCORE.INTRA>
0

>  <SCORE.INTRA.DIHEDRAL>
0

>  <SCORE.INTRA.DIHEDRAL.0>
0

>  <SCORE.INTRA.POLAR>
0

>  <SCORE.INTRA.POLAR.0>
0

>  <SCORE.INTRA.REPUL>
0

>  <SCORE.INTRA.REPUL.0>
0

>  <SCORE.INTRA.SOLV>
0

>  <SCORE.INTRA.SOLV.lig_0>
-23.9151

>  <SCORE.INTRA.VDW>
0

>  <SCORE.INTRA.VDW.0>
0

>  <SCORE.INTRA.norm>
0

>  <SCORE.RESTR>
0

>  <SCORE.RESTR.CAVITY>
0

>  <SCORE.RESTR.norm>
0

>  <SCORE.SYSTEM>
0

>  <SCORE.SYSTEM.CONST>
0

>  <SCORE.SYSTEM.DIHEDRAL>
0

>  <SCORE.SYSTEM.SOLV>
0

>  <SCORE.SYSTEM.norm>
0

>  <SCORE.heavy>
10

>  <SCORE.norm>
-0.980899

>  <RMSD>
11.587

$$$$
ligand
 OpenBabel11021811503D
libRbt.so/2013.1/901 2013/11/27
 10 11  0  0  0  0  0  0  0  0999 V2000
    4.7055  -27.0182   16.2336 N   0  0  0  0  0  0  0  0  0  0  0  0
    4.6021  -25.7490   15.8343 C   0  0  0  0  0  0  0  0  0  0  0  0
    3.5024  -25.0437   15.5417 N   0  0  0  0  0  0  0  0  0  0  0  0
    2.4018  -25.8071   15.6821 C   0  0  0  0  0  0  0  0  0  0  0  0
    2.3486  -27.1284   16.0831 C   0  0  0  0  0  0  0  0  0  0  0  0
    3.5763  -27.7564   16.3726 C   0  0  0  0  0  0  0  0  0  0  0  0
    3.6685  -29.0379   16.7630 N   0  0  0  0  0  0  0  0  0  0  0  0
    1.0433  -27.5836   16.1209 N   0  0  0  0  0  0  0  0  0  0  0  0
    0.3372  -26.5465   15.7552 C   0  0  0  0  0  0  0  0  0  0  0  0
    1.0943  -25.4423   15.4666 N   0  0  0  0  0  0  0  0  0  0  0  0
  1  2  2  0  0  0  0
  1  6  1  0  0  0  0
  2  3  1  0  0  0  0
  3  4  2  0  0  0  0
  4  5  1  0  0  0  0
  4 10  1  0  0  0  0
  5  6  2  0  0  0  0
  5  8  1  0  0  0  0
  6  7  1  0  0  0  0
  8  9  1  0  0  0  0
  9 10  2  0  0  0  0
M  END
>  <CHROM.1>
2.73373093,-26.72003541,15.98835973,-0.36426629,-0.07391255,-0.29557933

>  <Name>
ligand

>  <RI>
0

>  <Rbt.Current_Directory>
/home/itssahil/PROJECTS/Mol_Feturizer/New_Systems/rnas/4LW0

>  <Rbt.Executable>
rbdock ($Id: //depot/dev/client3/rdock/2013.1/src/exe/rbdock.cxx#4 $)

>  <Rbt.Library>
libRbt.so (2013.1, Build901 2013/11/27)

>  <Rbt.Parameter_File>
/export/apps/rDock/src/rDock_2013.1_src/data/scripts/dock_solv.prm

>  <Rbt.Receptor>
prm/blind_docking_40.prm

>  <SCORE>
-9.81613

>  <SCORE.INTER>
-9.81613

>  <SCORE.INTER.CONST>
1

>  <SCORE.INTER.POLAR>
0

>  <SCORE.INTER.ROT>
0

>  <SCORE.INTER.SOLV>
5.49886

>  <SCORE.INTER.VDW>
-11.977

>  <SCORE.INTER.norm>
-0.981613

>  <SCORE.INTRA>
0

>  <SCORE.INTRA.DIHEDRAL>
0

>  <SCORE.INTRA.DIHEDRAL.0>
0

>  <SCORE.INTRA.POLAR>
0

>  <SCORE.INTRA.POLAR.0>
0

>  <SCORE.INTRA.REPUL>
0

>  <SCORE.INTRA.REPUL.0>
0

>  <SCORE.INTRA.SOLV>
0

>  <SCORE.INTRA.SOLV.lig_0>
-23.9151

>  <SCORE.INTRA.VDW>
0

>  <SCORE.INTRA.VDW.0>
0

>  <SCORE.INTRA.norm>
0

>  <SCORE.RESTR>
0

>  <SCORE.RESTR.CAVITY>
0

>  <SCORE.RESTR.norm>
0

>  <SCORE.SYSTEM>
0

>  <SCORE.SYSTEM.CONST>
0

>  <SCORE.SYSTEM.DIHEDRAL>
0

>  <SCORE.SYSTEM.SOLV>
0

>  <SCORE.SYSTEM.norm>
0

>  <SCORE.heavy>
10

>  <SCORE.norm>
-0.981613

>  <RMSD>
11.587

$$$$
ligand
 OpenBabel11021811503D
libRbt.so/2013.1/901 2013/11/27
 10 11  0  0  0  0  0  0  0  0999 V2000
    4.7392  -27.0113   16.2105 N   0  0  0  0  0  0  0  0  0  0  0  0
    4.6408  -25.7412   15.8127 C   0  0  0  0  0  0  0  0  0  0  0  0
    3.5436  -25.0296   15.5263 N   0  0  0  0  0  0  0  0  0  0  0  0
    2.4395  -25.7869   15.6718 C   0  0  0  0  0  0  0  0  0  0  0  0
    2.3810  -27.1082   16.0721 C   0  0  0  0  0  0  0  0  0  0  0  0
    3.6066  -27.7433   16.3548 C   0  0  0  0  0  0  0  0  0  0  0  0
    3.6937  -29.0255   16.7437 N   0  0  0  0  0  0  0  0  0  0  0  0
    1.0734  -27.5561   16.1163 N   0  0  0  0  0  0  0  0  0  0  0  0
    0.3712  -26.5148   15.7551 C   0  0  0  0  0  0  0  0  0  0  0  0
    1.1330  -25.4146   15.4633 N   0  0  0  0  0  0  0  0  0  0  0  0
  1  2  2  0  0  0  0
  1  6  1  0  0  0  0
  2  3  1  0  0  0  0
  3  4  2  0  0  0  0
  4  5  1  0  0  0  0
  4 10  1  0  0  0  0
  5  6  2  0  0  0  0
  5  8  1  0  0  0  0
  6  7  1  0  0  0  0
  8  9  1  0  0  0  0
  9 10  2  0  0  0  0
M  END
>  <CHROM.1>
2.76792033,-26.70191735,15.97568620,-0.36810757,-0.06735030,-0.29508939

>  <Name>
ligand

>  <RI>
0

>  <Rbt.Current_Directory>
/home/itssahil/PROJECTS/Mol_Feturizer/New_Systems/rnas/4LW0

>  <Rbt.Executable>
rbdock ($Id: //depot/dev/client3/rdock/2013.1/src/exe/rbdock.cxx#4 $)

>  <Rbt.Library>
libRbt.so (2013.1, Build901 2013/11/27)

>  <Rbt.Parameter_File>
/export/apps/rDock/src/rDock_2013.1_src/data/scripts/dock_solv.prm

>  <Rbt.Receptor>
prm/blind_docking_40.prm

>  <SCORE>
-9.80992

>  <SCORE.INTER>
-9.80992

>  <SCORE.INTER.CONST>
1

>  <SCORE.INTER.POLAR>
0

>  <SCORE.INTER.ROT>
0

>  <SCORE.INTER.SOLV>
5.44019

>  <SCORE.INTER.VDW>
-11.9533

>  <SCORE.INTER.norm>
-0.980992

>  <SCORE.INTRA>
0

>  <SCORE.INTRA.DIHEDRAL>
0

>  <SCORE.INTRA.DIHEDRAL.0>
0

>  <SCORE.INTRA.POLAR>
0

>  <SCORE.INTRA.POLAR.0>
0

>  <SCORE.INTRA.REPUL>
0

>  <SCORE.INTRA.REPUL.0>
0

>  <SCORE.INTRA.SOLV>
0

>  <SCORE.INTRA.SOLV.lig_0>
-23.9151

>  <SCORE.INTRA.VDW>
0

>  <SCORE.INTRA.VDW.0>
0

>  <SCORE.INTRA.norm>
0

>  <SCORE.RESTR>
0

>  <SCORE.RESTR.CAVITY>
0

>  <SCORE.RESTR.norm>
0

>  <SCORE.SYSTEM>
0

>  <SCORE.SYSTEM.CONST>
0

>  <SCORE.SYSTEM.DIHEDRAL>
0

>  <SCORE.SYSTEM.SOLV>
0

>  <SCORE.SYSTEM.norm>
0

>  <SCORE.heavy>
10

>  <SCORE.norm>
-0.980992

>  <RMSD>
11.590

$$$$
ligand
 OpenBabel11021811503D
libRbt.so/2013.1/901 2013/11/27
 10 11  0  0  0  0  0  0  0  0999 V2000
    4.7071  -27.0151   16.2290 N   0  0  0  0  0  0  0  0  0  0  0  0
    4.6021  -25.7472   15.8260 C   0  0  0  0  0  0  0  0  0  0  0  0
    3.5016  -25.0442   15.5310 N   0  0  0  0  0  0  0  0  0  0  0  0
    2.4020  -25.8086   15.6732 C   0  0  0  0  0  0  0  0  0  0  0  0
    2.3504  -27.1289   16.0780 C   0  0  0  0  0  0  0  0  0  0  0  0
    3.5789  -27.7544   16.3698 C   0  0  0  0  0  0  0  0  0  0  0  0
    3.6727  -29.0346   16.7638 N   0  0  0  0  0  0  0  0  0  0  0  0
    1.0457  -27.5857   16.1166 N   0  0  0  0  0  0  0  0  0  0  0  0
    0.3384  -26.5507   15.7477 C   0  0  0  0  0  0  0  0  0  0  0  0
    1.0941  -25.4463   15.4562 N   0  0  0  0  0  0  0  0  0  0  0  0
  1  2  2  0  0  0  0
  1  6  1  0  0  0  0
  2  3  1  0  0  0  0
  3  4  2  0  0  0  0
  4  5  1  0  0  0  0
  4 10  1  0  0  0  0
  5  6  2  0  0  0  0
  5  8  1  0  0  0  0
  6  7  1  0  0  0  0
  8  9  1  0  0  0  0
  9 10  2  0  0  0  0
M  END
>  <CHROM.1>
2.73506231,-26.72028216,15.98220876,-0.36305824,-0.07465897,-0.29834519

>  <Name>
ligand

>  <RI>
0

>  <Rbt.Current_Directory>
/home/itssahil/PROJECTS/Mol_Feturizer/New_Systems/rnas/4LW0

>  <Rbt.Executable>
rbdock ($Id: //depot/dev/client3/rdock/2013.1/src/exe/rbdock.cxx#4 $)

>  <Rbt.Library>
libRbt.so (2013.1, Build901 2013/11/27)

>  <Rbt.Parameter_File>
/export/apps/rDock/src/rDock_2013.1_src/data/scripts/dock_solv.prm

>  <Rbt.Receptor>
prm/blind_docking_40.prm

>  <SCORE>
-9.78828

>  <SCORE.INTER>
-9.78828

>  <SCORE.INTER.CONST>
1

>  <SCORE.INTER.POLAR>
0

>  <SCORE.INTER.ROT>
0

>  <SCORE.INTER.SOLV>
5.48235

>  <SCORE.INTER.VDW>
-11.953

>  <SCORE.INTER.norm>
-0.978828

>  <SCORE.INTRA>
0

>  <SCORE.INTRA.DIHEDRAL>
0

>  <SCORE.INTRA.DIHEDRAL.0>
0

>  <SCORE.INTRA.POLAR>
0

>  <SCORE.INTRA.POLAR.0>
0

>  <SCORE.INTRA.REPUL>
0

>  <SCORE.INTRA.REPUL.0>
0

>  <SCORE.INTRA.SOLV>
0

>  <SCORE.INTRA.SOLV.lig_0>
-23.9151

>  <SCORE.INTRA.VDW>
0

>  <SCORE.INTRA.VDW.0>
0

>  <SCORE.INTRA.norm>
0

>  <SCORE.RESTR>
0

>  <SCORE.RESTR.CAVITY>
0

>  <SCORE.RESTR.norm>
0

>  <SCORE.SYSTEM>
0

>  <SCORE.SYSTEM.CONST>
0

>  <SCORE.SYSTEM.DIHEDRAL>
0

>  <SCORE.SYSTEM.SOLV>
0

>  <SCORE.SYSTEM.norm>
0

>  <SCORE.heavy>
10

>  <SCORE.norm>
-0.978828

>  <RMSD>
11.593

$$$$
ligand
 OpenBabel11021811503D
libRbt.so/2013.1/901 2013/11/27
 10 11  0  0  0  0  0  0  0  0999 V2000
    4.7360  -27.0102   16.1967 N   0  0  0  0  0  0  0  0  0  0  0  0
    4.6390  -25.7417   15.7938 C   0  0  0  0  0  0  0  0  0  0  0  0
    3.5424  -25.0295   15.5062 N   0  0  0  0  0  0  0  0  0  0  0  0
    2.4374  -25.7844   15.6566 C   0  0  0  0  0  0  0  0  0  0  0  0
    2.3774  -27.1040   16.0625 C   0  0  0  0  0  0  0  0  0  0  0  0
    3.6025  -27.7398   16.3460 C   0  0  0  0  0  0  0  0  0  0  0  0
    3.6882  -29.0205   16.7400 N   0  0  0  0  0  0  0  0  0  0  0  0
    1.0692  -27.5497   16.1107 N   0  0  0  0  0  0  0  0  0  0  0  0
    0.3680  -26.5088   15.7462 C   0  0  0  0  0  0  0  0  0  0  0  0
    1.1311  -25.4110   15.4487 N   0  0  0  0  0  0  0  0  0  0  0  0
  1  2  2  0  0  0  0
  1  6  1  0  0  0  0
  2  3  1  0  0  0  0
  3  4  2  0  0  0  0
  4  5  1  0  0  0  0
  4 10  1  0  0  0  0
  5  6  2  0  0  0  0
  5  8  1  0  0  0  0
  6  7  1  0  0  0  0
  8  9  1  0  0  0  0
  9 10  2  0  0  0  0
M  END
>  <CHROM.1>
2.76481021,-26.69873341,15.96378977,-0.36913413,-0.06535753,-0.29934103

>  <Name>
ligand

>  <RI>
0

>  <Rbt.Current_Directory>
/home/itssahil/PROJECTS/Mol_Feturizer/New_Systems/rnas/4LW0

>  <Rbt.Executable>
rbdock ($Id: //depot/dev/client3/rdock/2013.1/src/exe/rbdock.cxx#4 $)

>  <Rbt.Library>
libRbt.so (2013.1, Build901 2013/11/27)

>  <Rbt.Parameter_File>
/export/apps/rDock/src/rDock_2013.1_src/data/scripts/dock_solv.prm

>  <Rbt.Receptor>
prm/blind_docking_40.prm

>  <SCORE>
-9.80393

>  <SCORE.INTER>
-9.80393

>  <SCORE.INTER.CONST>
1

>  <SCORE.INTER.POLAR>
0

>  <SCORE.INTER.ROT>
0

>  <SCORE.INTER.SOLV>
5.42638

>  <SCORE.INTER.VDW>
-11.9447

>  <SCORE.INTER.norm>
-0.980393

>  <SCORE.INTRA>
0

>  <SCORE.INTRA.DIHEDRAL>
0

>  <SCORE.INTRA.DIHEDRAL.0>
0

>  <SCORE.INTRA.POLAR>
0

>  <SCORE.INTRA.POLAR.0>
0

>  <SCORE.INTRA.REPUL>
0

>  <SCORE.INTRA.REPUL.0>
0

>  <SCORE.INTRA.SOLV>
0

>  <SCORE.INTRA.SOLV.lig_0>
-23.9151

>  <SCORE.INTRA.VDW>
0

>  <SCORE.INTRA.VDW.0>
0

>  <SCORE.INTRA.norm>
0

>  <SCORE.RESTR>
0

>  <SCORE.RESTR.CAVITY>
0

>  <SCORE.RESTR.norm>
0

>  <SCORE.SYSTEM>
0

>  <SCORE.SYSTEM.CONST>
0

>  <SCORE.SYSTEM.DIHEDRAL>
0

>  <SCORE.SYSTEM.SOLV>
0

>  <SCORE.SYSTEM.norm>
0

>  <SCORE.heavy>
10

>  <SCORE.norm>
-0.980393

>  <RMSD>
11.599

$$$$
ligand
 OpenBabel11021811503D
libRbt.so/2013.1/901 2013/11/27
 10 11  0  0  0  0  0  0  0  0999 V2000
   -3.4027  -28.9036   29.1969 N   0  0  0  0  0  0  0  0  0  0  0  0
   -4.7119  -29.1552   29.2583 C   0  0  0  0  0  0  0  0  0  0  0  0
   -5.4782  -29.8493   28.4079 N   0  0  0  0  0  0  0  0  0  0  0  0
   -4.7440  -30.3014   27.3734 C   0  0  0  0  0  0  0  0  0  0  0  0
   -3.3887  -30.1223   27.1710 C   0  0  0  0  0  0  0  0  0  0  0  0
   -2.6915  -29.3809   28.1454 C   0  0  0  0  0  0  0  0  0  0  0  0
   -1.3757  -29.1246   28.0669 N   0  0  0  0  0  0  0  0  0  0  0  0
   -2.9760  -30.7358   26.0023 N   0  0  0  0  0  0  0  0  0  0  0  0
   -4.0677  -31.2740   25.5264 C   0  0  0  0  0  0  0  0  0  0  0  0
   -5.1745  -31.0432   26.2994 N   0  0  0  0  0  0  0  0  0  0  0  0
  1  2  2  0  0  0  0
  1  6  1  0  0  0  0
  2  3  1  0  0  0  0
  3  4  2  0  0  0  0
  4  5  1  0  0  0  0
  4 10  1  0  0  0  0
  5  6  2  0  0  0  0
  5  8  1  0  0  0  0
  6  7  1  0  0  0  0
  8  9  1  0  0  0  0
  9 10  2  0  0  0  0
M  END
>  <CHROM.1>
-3.79190603,-29.98460953,27.54862045,1.18661199,0.19001811,1.02743054

>  <Name>
ligand

>  <RI>
0

>  <Rbt.Current_Directory>
/home/itssahil/PROJECTS/Mol_Feturizer/New_Systems/rnas/4LW0

>  <Rbt.Executable>
rbdock ($Id: //depot/dev/client3/rdock/2013.1/src/exe/rbdock.cxx#4 $)

>  <Rbt.Library>
libRbt.so (2013.1, Build901 2013/11/27)

>  <Rbt.Parameter_File>
/export/apps/rDock/src/rDock_2013.1_src/data/scripts/dock_solv.prm

>  <Rbt.Receptor>
prm/blind_docking_80.prm

>  <SCORE>
-12.0951

>  <SCORE.INTER>
-12.1056

>  <SCORE.INTER.CONST>
1

>  <SCORE.INTER.POLAR>
0

>  <SCORE.INTER.ROT>
0

>  <SCORE.INTER.SOLV>
7.86181

>  <SCORE.INTER.VDW>
-14.291

>  <SCORE.INTER.norm>
-1.21056

>  <SCORE.INTRA>
0

>  <SCORE.INTRA.DIHEDRAL>
0

>  <SCORE.INTRA.DIHEDRAL.0>
0

>  <SCORE.INTRA.POLAR>
0

>  <SCORE.INTRA.POLAR.0>
0

>  <SCORE.INTRA.REPUL>
0

>  <SCORE.INTRA.REPUL.0>
0

>  <SCORE.INTRA.SOLV>
0

>  <SCORE.INTRA.SOLV.lig_0>
-23.9151

>  <SCORE.INTRA.VDW>
0

>  <SCORE.INTRA.VDW.0>
0

>  <SCORE.INTRA.norm>
0

>  <SCORE.RESTR>
0.0105232

>  <SCORE.RESTR.CAVITY>
0.0105232

>  <SCORE.RESTR.norm>
0.00105232

>  <SCORE.SYSTEM>
0

>  <SCORE.SYSTEM.CONST>
0

>  <SCORE.SYSTEM.DIHEDRAL>
0

>  <SCORE.SYSTEM.SOLV>
0

>  <SCORE.SYSTEM.norm>
0

>  <SCORE.heavy>
10

>  <SCORE.norm>
-1.20951

>  <RMSD>
11.613

$$$$
ligand
 OpenBabel11021811503D
libRbt.so/2013.1/901 2013/11/27
 10 11  0  0  0  0  0  0  0  0999 V2000
   -2.6773  -29.0002   28.6450 N   0  0  0  0  0  0  0  0  0  0  0  0
   -1.7753  -29.3647   27.7315 C   0  0  0  0  0  0  0  0  0  0  0  0
   -1.9466  -30.0903   26.6195 N   0  0  0  0  0  0  0  0  0  0  0  0
   -3.2322  -30.4734   26.5003 C   0  0  0  0  0  0  0  0  0  0  0  0
   -4.2738  -30.1781   27.3591 C   0  0  0  0  0  0  0  0  0  0  0  0
   -3.9651  -29.3963   28.4900 C   0  0  0  0  0  0  0  0  0  0  0  0
   -4.8794  -29.0452   29.4085 N   0  0  0  0  0  0  0  0  0  0  0  0
   -5.4585  -30.7340   26.9122 N   0  0  0  0  0  0  0  0  0  0  0  0
   -5.1236  -31.3414   25.8045 C   0  0  0  0  0  0  0  0  0  0  0  0
   -3.7926  -31.2322   25.5006 N   0  0  0  0  0  0  0  0  0  0  0  0
  1  2  2  0  0  0  0
  1  6  1  0  0  0  0
  2  3  1  0  0  0  0
  3  4  2  0  0  0  0
  4  5  1  0  0  0  0
  4 10  1  0  0  0  0
  5  6  2  0  0  0  0
  5  8  1  0  0  0  0
  6  7  1  0  0  0  0
  8  9  1  0  0  0  0
  9 10  2  0  0  0  0
M  END
>  <CHROM.1>
-3.71539972,-30.08057382,27.30633729,-1.20160508,-0.19599817,-2.12870898

>  <Name>
ligand

>  <RI>
0

>  <Rbt.Current_Directory>
/home/itssahil/PROJECTS/Mol_Feturizer/New_Systems/rnas/4LW0

>  <Rbt.Executable>
rbdock ($Id: //depot/dev/client3/rdock/2013.1/src/exe/rbdock.cxx#4 $)

>  <Rbt.Library>
libRbt.so (2013.1, Build901 2013/11/27)

>  <Rbt.Parameter_File>
/export/apps/rDock/src/rDock_2013.1_src/data/scripts/dock_solv.prm

>  <Rbt.Receptor>
prm/blind_docking_60.prm

>  <SCORE>
-13.4732

>  <SCORE.INTER>
-13.4732

>  <SCORE.INTER.CONST>
1

>  <SCORE.INTER.POLAR>
0

>  <SCORE.INTER.ROT>
0

>  <SCORE.INTER.SOLV>
6.86181

>  <SCORE.INTER.VDW>
-14.8694

>  <SCORE.INTER.norm>
-1.34732

>  <SCORE.INTRA>
0

>  <SCORE.INTRA.DIHEDRAL>
0

>  <SCORE.INTRA.DIHEDRAL.0>
0

>  <SCORE.INTRA.POLAR>
0

>  <SCORE.INTRA.POLAR.0>
0

>  <SCORE.INTRA.REPUL>
0

>  <SCORE.INTRA.REPUL.0>
0

>  <SCORE.INTRA.SOLV>
0

>  <SCORE.INTRA.SOLV.lig_0>
-23.9151

>  <SCORE.INTRA.VDW>
0

>  <SCORE.INTRA.VDW.0>
0

>  <SCORE.INTRA.norm>
0

>  <SCORE.RESTR>
0

>  <SCORE.RESTR.CAVITY>
0

>  <SCORE.RESTR.norm>
0

>  <SCORE.SYSTEM>
0

>  <SCORE.SYSTEM.CONST>
0

>  <SCORE.SYSTEM.DIHEDRAL>
0

>  <SCORE.SYSTEM.SOLV>
0

>  <SCORE.SYSTEM.norm>
0

>  <SCORE.heavy>
10

>  <SCORE.norm>
-1.34732

>  <RMSD>
11.615

$$$$
ligand
 OpenBabel11021811503D
libRbt.so/2013.1/901 2013/11/27
 10 11  0  0  0  0  0  0  0  0999 V2000
   -2.9736  -28.9247   28.9035 N   0  0  0  0  0  0  0  0  0  0  0  0
   -2.0026  -29.2346   28.0420 C   0  0  0  0  0  0  0  0  0  0  0  0
   -2.0754  -29.9419   26.9077 N   0  0  0  0  0  0  0  0  0  0  0  0
   -3.3348  -30.3712   26.7001 C   0  0  0  0  0  0  0  0  0  0  0  0
   -4.4389  -30.1346   27.4968 C   0  0  0  0  0  0  0  0  0  0  0  0
   -4.2325  -29.3663   28.6598 C   0  0  0  0  0  0  0  0  0  0  0  0
   -5.2156  -29.0704   29.5253 N   0  0  0  0  0  0  0  0  0  0  0  0
   -5.5705  -30.7255   26.9652 N   0  0  0  0  0  0  0  0  0  0  0  0
   -5.1434  -31.2955   25.8695 C   0  0  0  0  0  0  0  0  0  0  0  0
   -3.8013  -31.1289   25.6526 N   0  0  0  0  0  0  0  0  0  0  0  0
  1  2  2  0  0  0  0
  1  6  1  0  0  0  0
  2  3  1  0  0  0  0
  3  4  2  0  0  0  0
  4  5  1  0  0  0  0
  4 10  1  0  0  0  0
  5  6  2  0  0  0  0
  5  8  1  0  0  0  0
  6  7  1  0  0  0  0
  8  9  1  0  0  0  0
  9 10  2  0  0  0  0
M  END
>  <CHROM.1>
-3.88257411,-30.01468269,27.48137271,-1.27700018,-0.19590736,-2.12288721

>  <Name>
ligand

>  <RI>
0

>  <Rbt.Current_Directory>
/home/itssahil/PROJECTS/Mol_Feturizer/New_Systems/rnas/4LW0

>  <Rbt.Executable>
rbdock ($Id: //depot/dev/client3/rdock/2013.1/src/exe/rbdock.cxx#4 $)

>  <Rbt.Library>
libRbt.so (2013.1, Build901 2013/11/27)

>  <Rbt.Parameter_File>
/export/apps/rDock/src/rDock_2013.1_src/data/scripts/dock_solv.prm

>  <Rbt.Receptor>
prm/blind_docking_100.prm

>  <SCORE>
-13.6474

>  <SCORE.INTER>
-13.6474

>  <SCORE.INTER.CONST>
1

>  <SCORE.INTER.POLAR>
0

>  <SCORE.INTER.ROT>
0

>  <SCORE.INTER.SOLV>
6.46351

>  <SCORE.INTER.VDW>
-14.8528

>  <SCORE.INTER.norm>
-1.36474

>  <SCORE.INTRA>
0

>  <SCORE.INTRA.DIHEDRAL>
0

>  <SCORE.INTRA.DIHEDRAL.0>
0

>  <SCORE.INTRA.POLAR>
0

>  <SCORE.INTRA.POLAR.0>
0

>  <SCORE.INTRA.REPUL>
0

>  <SCORE.INTRA.REPUL.0>
0

>  <SCORE.INTRA.SOLV>
0

>  <SCORE.INTRA.SOLV.lig_0>
-23.9151

>  <SCORE.INTRA.VDW>
0

>  <SCORE.INTRA.VDW.0>
0

>  <SCORE.INTRA.norm>
0

>  <SCORE.RESTR>
1.06431e-05

>  <SCORE.RESTR.CAVITY>
1.06431e-05

>  <SCORE.RESTR.norm>
1.06431e-06

>  <SCORE.SYSTEM>
0

>  <SCORE.SYSTEM.CONST>
0

>  <SCORE.SYSTEM.DIHEDRAL>
0

>  <SCORE.SYSTEM.SOLV>
0

>  <SCORE.SYSTEM.norm>
0

>  <SCORE.heavy>
10

>  <SCORE.norm>
-1.36474

>  <RMSD>
11.677

$$$$
ligand
 OpenBabel11021811503D
libRbt.so/2013.1/901 2013/11/27
 10 11  0  0  0  0  0  0  0  0999 V2000
   -3.0137  -28.9011   28.9103 N   0  0  0  0  0  0  0  0  0  0  0  0
   -2.0315  -29.2154   28.0633 C   0  0  0  0  0  0  0  0  0  0  0  0
   -2.0890  -29.9306   26.9330 N   0  0  0  0  0  0  0  0  0  0  0  0
   -3.3451  -30.3631   26.7125 C   0  0  0  0  0  0  0  0  0  0  0  0
   -4.4595  -30.1227   27.4936 C   0  0  0  0  0  0  0  0  0  0  0  0
   -4.2688  -29.3462   28.6538 C   0  0  0  0  0  0  0  0  0  0  0  0
   -5.2631  -29.0458   29.5047 N   0  0  0  0  0  0  0  0  0  0  0  0
   -5.5835  -30.7189   26.9519 N   0  0  0  0  0  0  0  0  0  0  0  0
   -5.1418  -31.2957   25.8656 C   0  0  0  0  0  0  0  0  0  0  0  0
   -3.7973  -31.1287   25.6644 N   0  0  0  0  0  0  0  0  0  0  0  0
  1  2  2  0  0  0  0
  1  6  1  0  0  0  0
  2  3  1  0  0  0  0
  3  4  2  0  0  0  0
  4  5  1  0  0  0  0
  4 10  1  0  0  0  0
  5  6  2  0  0  0  0
  5  8  1  0  0  0  0
  6  7  1  0  0  0  0
  8  9  1  0  0  0  0
  9 10  2  0  0  0  0
M  END
>  <CHROM.1>
-3.90315515,-30.00207777,27.48432295,-1.28866170,-0.19044845,-2.13197569

>  <Name>
ligand

>  <RI>
0

>  <Rbt.Current_Directory>
/home/itssahil/PROJECTS/Mol_Feturizer/New_Systems/rnas/4LW0

>  <Rbt.Executable>
rbdock ($Id: //depot/dev/client3/rdock/2013.1/src/exe/rbdock.cxx#4 $)

>  <Rbt.Library>
libRbt.so (2013.1, Build901 2013/11/27)

>  <Rbt.Parameter_File>
/export/apps/rDock/src/rDock_2013.1_src/data/scripts/dock_solv.prm

>  <Rbt.Receptor>
prm/blind_docking_60.prm

>  <SCORE>
-13.798

>  <SCORE.INTER>
-13.798

>  <SCORE.INTER.CONST>
1

>  <SCORE.INTER.POLAR>
0

>  <SCORE.INTER.ROT>
0

>  <SCORE.INTER.SOLV>
6.42799

>  <SCORE.INTER.VDW>
-14.9414

>  <SCORE.INTER.norm>
-1.3798

>  <SCORE.INTRA>
0

>  <SCORE.INTRA.DIHEDRAL>
0

>  <SCORE.INTRA.DIHEDRAL.0>
0

>  <SCORE.INTRA.POLAR>
0

>  <SCORE.INTRA.POLAR.0>
0

>  <SCORE.INTRA.REPUL>
0

>  <SCORE.INTRA.REPUL.0>
0

>  <SCORE.INTRA.SOLV>
0

>  <SCORE.INTRA.SOLV.lig_0>
-23.9151

>  <SCORE.INTRA.VDW>
0

>  <SCORE.INTRA.VDW.0>
0

>  <SCORE.INTRA.norm>
0

>  <SCORE.RESTR>
0

>  <SCORE.RESTR.CAVITY>
0

>  <SCORE.RESTR.norm>
0

>  <SCORE.SYSTEM>
0

>  <SCORE.SYSTEM.CONST>
0

>  <SCORE.SYSTEM.DIHEDRAL>
0

>  <SCORE.SYSTEM.SOLV>
0

>  <SCORE.SYSTEM.norm>
0

>  <SCORE.heavy>
10

>  <SCORE.norm>
-1.3798

>  <RMSD>
11.678

$$$$
ligand
 OpenBabel11021811503D
libRbt.so/2013.1/901 2013/11/27
 10 11  0  0  0  0  0  0  0  0999 V2000
   -3.0107  -28.8852   28.8983 N   0  0  0  0  0  0  0  0  0  0  0  0
   -2.0299  -29.2255   28.0596 C   0  0  0  0  0  0  0  0  0  0  0  0
   -2.0930  -29.9582   26.9409 N   0  0  0  0  0  0  0  0  0  0  0  0
   -3.3539  -30.3783   26.7232 C   0  0  0  0  0  0  0  0  0  0  0  0
   -4.4674  -30.1112   27.4967 C   0  0  0  0  0  0  0  0  0  0  0  0
   -4.2705  -29.3185   28.6449 C   0  0  0  0  0  0  0  0  0  0  0  0
   -5.2636  -28.9919   29.4876 N   0  0  0  0  0  0  0  0  0  0  0  0
   -5.5973  -30.7019   26.9610 N   0  0  0  0  0  0  0  0  0  0  0  0
   -5.1596  -31.3017   25.8856 C   0  0  0  0  0  0  0  0  0  0  0  0
   -3.8125  -31.1549   25.6862 N   0  0  0  0  0  0  0  0  0  0  0  0
  1  2  2  0  0  0  0
  1  6  1  0  0  0  0
  2  3  1  0  0  0  0
  3  4  2  0  0  0  0
  4  5  1  0  0  0  0
  4 10  1  0  0  0  0
  5  6  2  0  0  0  0
  5  8  1  0  0  0  0
  6  7  1  0  0  0  0
  8  9  1  0  0  0  0
  9 10  2  0  0  0  0
M  END
>  <CHROM.1>
-3.90964151,-29.99779809,27.48733522,-1.28444639,-0.17810698,-2.14736521

>  <Name>
ligand

>  <RI>
0

>  <Rbt.Current_Directory>
/home/itssahil/PROJECTS/Mol_Feturizer/New_Systems/rnas/4LW0

>  <Rbt.Executable>
rbdock ($Id: //depot/dev/client3/rdock/2013.1/src/exe/rbdock.cxx#4 $)

>  <Rbt.Library>
libRbt.so (2013.1, Build901 2013/11/27)

>  <Rbt.Parameter_File>
/export/apps/rDock/src/rDock_2013.1_src/data/scripts/dock_solv.prm

>  <Rbt.Receptor>
prm/blind_docking_80.prm

>  <SCORE>
-13.7585

>  <SCORE.INTER>
-13.7692

>  <SCORE.INTER.CONST>
1

>  <SCORE.INTER.POLAR>
0

>  <SCORE.INTER.ROT>
0

>  <SCORE.INTER.SOLV>
6.45537

>  <SCORE.INTER.VDW>
-14.9313

>  <SCORE.INTER.norm>
-1.37692

>  <SCORE.INTRA>
0

>  <SCORE.INTRA.DIHEDRAL>
0

>  <SCORE.INTRA.DIHEDRAL.0>
0

>  <SCORE.INTRA.POLAR>
0

>  <SCORE.INTRA.POLAR.0>
0

>  <SCORE.INTRA.REPUL>
0

>  <SCORE.INTRA.REPUL.0>
0

>  <SCORE.INTRA.SOLV>
0

>  <SCORE.INTRA.SOLV.lig_0>
-23.9151

>  <SCORE.INTRA.VDW>
0

>  <SCORE.INTRA.VDW.0>
0

>  <SCORE.INTRA.norm>
0

>  <SCORE.RESTR>
0.0107619

>  <SCORE.RESTR.CAVITY>
0.0107619

>  <SCORE.RESTR.norm>
0.00107619

>  <SCORE.SYSTEM>
0

>  <SCORE.SYSTEM.CONST>
0

>  <SCORE.SYSTEM.DIHEDRAL>
0

>  <SCORE.SYSTEM.SOLV>
0

>  <SCORE.SYSTEM.norm>
0

>  <SCORE.heavy>
10

>  <SCORE.norm>
-1.37585

>  <RMSD>
11.678

$$$$
ligand
 OpenBabel11021811503D
libRbt.so/2013.1/901 2013/11/27
 10 11  0  0  0  0  0  0  0  0999 V2000
   -3.0006  -28.9182   28.9029 N   0  0  0  0  0  0  0  0  0  0  0  0
   -2.0216  -29.2281   28.0505 C   0  0  0  0  0  0  0  0  0  0  0  0
   -2.0837  -29.9362   26.9160 N   0  0  0  0  0  0  0  0  0  0  0  0
   -3.3411  -30.3660   26.6970 C   0  0  0  0  0  0  0  0  0  0  0  0
   -4.4525  -30.1293   27.4834 C   0  0  0  0  0  0  0  0  0  0  0  0
   -4.2571  -29.3603   28.6479 C   0  0  0  0  0  0  0  0  0  0  0  0
   -5.2481  -29.0643   29.5041 N   0  0  0  0  0  0  0  0  0  0  0  0
   -5.5790  -30.7209   26.9418 N   0  0  0  0  0  0  0  0  0  0  0  0
   -5.1416  -31.2913   25.8504 C   0  0  0  0  0  0  0  0  0  0  0  0
   -3.7977  -31.1244   25.6457 N   0  0  0  0  0  0  0  0  0  0  0  0
  1  2  2  0  0  0  0
  1  6  1  0  0  0  0
  2  3  1  0  0  0  0
  3  4  2  0  0  0  0
  4  5  1  0  0  0  0
  4 10  1  0  0  0  0
  5  6  2  0  0  0  0
  5  8  1  0  0  0  0
  6  7  1  0  0  0  0
  8  9  1  0  0  0  0
  9 10  2  0  0  0  0
M  END
>  <CHROM.1>
-3.89607683,-30.00921193,27.47302737,-1.28514995,-0.19135870,-2.12501122

>  <Name>
ligand

>  <RI>
0

>  <Rbt.Current_Directory>
/home/itssahil/PROJECTS/Mol_Feturizer/New_Systems/rnas/4LW0

>  <Rbt.Executable>
rbdock ($Id: //depot/dev/client3/rdock/2013.1/src/exe/rbdock.cxx#4 $)

>  <Rbt.Library>
libRbt.so (2013.1, Build901 2013/11/27)

>  <Rbt.Parameter_File>
/export/apps/rDock/src/rDock_2013.1_src/data/scripts/dock_solv.prm

>  <Rbt.Receptor>
prm/blind_docking_60.prm

>  <SCORE>
-13.7924

>  <SCORE.INTER>
-13.7926

>  <SCORE.INTER.CONST>
1

>  <SCORE.INTER.POLAR>
0

>  <SCORE.INTER.ROT>
0

>  <SCORE.INTER.SOLV>
6.44394

>  <SCORE.INTER.VDW>
-14.943

>  <SCORE.INTER.norm>
-1.37926

>  <SCORE.INTRA>
0

>  <SCORE.INTRA.DIHEDRAL>
0

>  <SCORE.INTRA.DIHEDRAL.0>
0

>  <SCORE.INTRA.POLAR>
0

>  <SCORE.INTRA.POLAR.0>
0

>  <SCORE.INTRA.REPUL>
0

>  <SCORE.INTRA.REPUL.0>
0

>  <SCORE.INTRA.SOLV>
0

>  <SCORE.INTRA.SOLV.lig_0>
-23.9151

>  <SCORE.INTRA.VDW>
0

>  <SCORE.INTRA.VDW.0>
0

>  <SCORE.INTRA.norm>
0

>  <SCORE.RESTR>
0.000154443

>  <SCORE.RESTR.CAVITY>
0.000154443

>  <SCORE.RESTR.norm>
1.54443e-05

>  <SCORE.SYSTEM>
0

>  <SCORE.SYSTEM.CONST>
0

>  <SCORE.SYSTEM.DIHEDRAL>
0

>  <SCORE.SYSTEM.SOLV>
0

>  <SCORE.SYSTEM.norm>
0

>  <SCORE.heavy>
10

>  <SCORE.norm>
-1.37924

>  <RMSD>
11.679

$$$$
ligand
 OpenBabel11021811503D
libRbt.so/2013.1/901 2013/11/27
 10 11  0  0  0  0  0  0  0  0999 V2000
   -3.0038  -28.9115   28.9065 N   0  0  0  0  0  0  0  0  0  0  0  0
   -2.0240  -29.2243   28.0560 C   0  0  0  0  0  0  0  0  0  0  0  0
   -2.0852  -29.9362   26.9238 N   0  0  0  0  0  0  0  0  0  0  0  0
   -3.3423  -30.3669   26.7053 C   0  0  0  0  0  0  0  0  0  0  0  0
   -4.4544  -30.1277   27.4900 C   0  0  0  0  0  0  0  0  0  0  0  0
   -4.2600  -29.3547   28.6519 C   0  0  0  0  0  0  0  0  0  0  0  0
   -5.2518  -29.0558   29.5063 N   0  0  0  0  0  0  0  0  0  0  0  0
   -5.5804  -30.7212   26.9494 N   0  0  0  0  0  0  0  0  0  0  0  0
   -5.1420  -31.2953   25.8603 C   0  0  0  0  0  0  0  0  0  0  0  0
   -3.7980  -31.1290   25.6561 N   0  0  0  0  0  0  0  0  0  0  0  0
  1  2  2  0  0  0  0
  1  6  1  0  0  0  0
  2  3  1  0  0  0  0
  3  4  2  0  0  0  0
  4  5  1  0  0  0  0
  4 10  1  0  0  0  0
  5  6  2  0  0  0  0
  5  8  1  0  0  0  0
  6  7  1  0  0  0  0
  8  9  1  0  0  0  0
  9 10  2  0  0  0  0
M  END
>  <CHROM.1>
-3.89798164,-30.00754561,27.47961289,-1.28590767,-0.19102862,-2.12856130

>  <Name>
ligand

>  <RI>
0

>  <Rbt.Current_Directory>
/home/itssahil/PROJECTS/Mol_Feturizer/New_Systems/rnas/4LW0

>  <Rbt.Executable>
rbdock ($Id: //depot/dev/client3/rdock/2013.1/src/exe/rbdock.cxx#4 $)

>  <Rbt.Library>
libRbt.so (2013.1, Build901 2013/11/27)

>  <Rbt.Parameter_File>
/export/apps/rDock/src/rDock_2013.1_src/data/scripts/dock_solv.prm

>  <Rbt.Receptor>
prm/blind_docking_60.prm

>  <SCORE>
-13.8023

>  <SCORE.INTER>
-13.8024

>  <SCORE.INTER.CONST>
1

>  <SCORE.INTER.POLAR>
0

>  <SCORE.INTER.ROT>
0

>  <SCORE.INTER.SOLV>
6.43955

>  <SCORE.INTER.VDW>
-14.9481

>  <SCORE.INTER.norm>
-1.38024

>  <SCORE.INTRA>
0

>  <SCORE.INTRA.DIHEDRAL>
0

>  <SCORE.INTRA.DIHEDRAL.0>
0

>  <SCORE.INTRA.POLAR>
0

>  <SCORE.INTRA.POLAR.0>
0

>  <SCORE.INTRA.REPUL>
0

>  <SCORE.INTRA.REPUL.0>
0

>  <SCORE.INTRA.SOLV>
0

>  <SCORE.INTRA.SOLV.lig_0>
-23.9151

>  <SCORE.INTRA.VDW>
0

>  <SCORE.INTRA.VDW.0>
0

>  <SCORE.INTRA.norm>
0

>  <SCORE.RESTR>
0.000112654

>  <SCORE.RESTR.CAVITY>
0.000112654

>  <SCORE.RESTR.norm>
1.12654e-05

>  <SCORE.SYSTEM>
0

>  <SCORE.SYSTEM.CONST>
0

>  <SCORE.SYSTEM.DIHEDRAL>
0

>  <SCORE.SYSTEM.SOLV>
0

>  <SCORE.SYSTEM.norm>
0

>  <SCORE.heavy>
10

>  <SCORE.norm>
-1.38023

>  <RMSD>
11.679

$$$$
ligand
 OpenBabel11021811503D
libRbt.so/2013.1/901 2013/11/27
 10 11  0  0  0  0  0  0  0  0999 V2000
   -2.9948  -28.9182   28.9054 N   0  0  0  0  0  0  0  0  0  0  0  0
   -2.0173  -29.2417   28.0563 C   0  0  0  0  0  0  0  0  0  0  0  0
   -2.0835  -29.9577   26.9271 N   0  0  0  0  0  0  0  0  0  0  0  0
   -3.3438  -30.3799   26.7101 C   0  0  0  0  0  0  0  0  0  0  0  0
   -4.4542  -30.1292   27.4936 C   0  0  0  0  0  0  0  0  0  0  0  0
   -4.2542  -29.3531   28.6525 C   0  0  0  0  0  0  0  0  0  0  0  0
   -5.2439  -29.0434   29.5055 N   0  0  0  0  0  0  0  0  0  0  0  0
   -5.5845  -30.7166   26.9553 N   0  0  0  0  0  0  0  0  0  0  0  0
   -5.1502  -31.2983   25.8686 C   0  0  0  0  0  0  0  0  0  0  0  0
   -3.8050  -31.1428   25.6639 N   0  0  0  0  0  0  0  0  0  0  0  0
  1  2  2  0  0  0  0
  1  6  1  0  0  0  0
  2  3  1  0  0  0  0
  3  4  2  0  0  0  0
  4  5  1  0  0  0  0
  4 10  1  0  0  0  0
  5  6  2  0  0  0  0
  5  8  1  0  0  0  0
  6  7  1  0  0  0  0
  8  9  1  0  0  0  0
  9 10  2  0  0  0  0
M  END
>  <CHROM.1>
-3.89690532,-30.01329322,27.48283916,-1.28202823,-0.18465587,-2.13187285

>  <Name>
ligand

>  <RI>
0

>  <Rbt.Current_Directory>
/home/itssahil/PROJECTS/Mol_Feturizer/New_Systems/rnas/4LW0

>  <Rbt.Executable>
rbdock ($Id: //depot/dev/client3/rdock/2013.1/src/exe/rbdock.cxx#4 $)

>  <Rbt.Library>
libRbt.so (2013.1, Build901 2013/11/27)

>  <Rbt.Parameter_File>
/export/apps/rDock/src/rDock_2013.1_src/data/scripts/dock_solv.prm

>  <Rbt.Receptor>
prm/blind_docking_100.prm

>  <SCORE>
-13.7852

>  <SCORE.INTER>
-13.7908

>  <SCORE.INTER.CONST>
1

>  <SCORE.INTER.POLAR>
0

>  <SCORE.INTER.ROT>
0

>  <SCORE.INTER.SOLV>
6.45402

>  <SCORE.INTER.VDW>
-14.9452

>  <SCORE.INTER.norm>
-1.37908

>  <SCORE.INTRA>
0

>  <SCORE.INTRA.DIHEDRAL>
0

>  <SCORE.INTRA.DIHEDRAL.0>
0

>  <SCORE.INTRA.POLAR>
0

>  <SCORE.INTRA.POLAR.0>
0

>  <SCORE.INTRA.REPUL>
0

>  <SCORE.INTRA.REPUL.0>
0

>  <SCORE.INTRA.SOLV>
0

>  <SCORE.INTRA.SOLV.lig_0>
-23.9151

>  <SCORE.INTRA.VDW>
0

>  <SCORE.INTRA.VDW.0>
0

>  <SCORE.INTRA.norm>
0

>  <SCORE.RESTR>
0.00556603

>  <SCORE.RESTR.CAVITY>
0.00556603

>  <SCORE.RESTR.norm>
0.000556603

>  <SCORE.SYSTEM>
0

>  <SCORE.SYSTEM.CONST>
0

>  <SCORE.SYSTEM.DIHEDRAL>
0

>  <SCORE.SYSTEM.SOLV>
0

>  <SCORE.SYSTEM.norm>
0

>  <SCORE.heavy>
10

>  <SCORE.norm>
-1.37852

>  <RMSD>
11.683

$$$$
ligand
 OpenBabel11021811503D
libRbt.so/2013.1/901 2013/11/27
 10 11  0  0  0  0  0  0  0  0999 V2000
   -3.0537  -28.8733   28.9026 N   0  0  0  0  0  0  0  0  0  0  0  0
   -2.0572  -29.1785   28.0690 C   0  0  0  0  0  0  0  0  0  0  0  0
   -2.0897  -29.9077   26.9468 N   0  0  0  0  0  0  0  0  0  0  0  0
   -3.3351  -30.3668   26.7190 C   0  0  0  0  0  0  0  0  0  0  0  0
   -4.4616  -30.1387   27.4862 C   0  0  0  0  0  0  0  0  0  0  0  0
   -4.2975  -29.3453   28.6390 C   0  0  0  0  0  0  0  0  0  0  0  0
   -5.3059  -29.0542   29.4765 N   0  0  0  0  0  0  0  0  0  0  0  0
   -5.5686  -30.7626   26.9404 N   0  0  0  0  0  0  0  0  0  0  0  0
   -5.1050  -31.3434   25.8654 C   0  0  0  0  0  0  0  0  0  0  0  0
   -3.7620  -31.1529   25.6755 N   0  0  0  0  0  0  0  0  0  0  0  0
  1  2  2  0  0  0  0
  1  6  1  0  0  0  0
  2  3  1  0  0  0  0
  3  4  2  0  0  0  0
  4  5  1  0  0  0  0
  4 10  1  0  0  0  0
  5  6  2  0  0  0  0
  5  8  1  0  0  0  0
  6  7  1  0  0  0  0
  8  9  1  0  0  0  0
  9 10  2  0  0  0  0
M  END
>  <CHROM.1>
-3.90765710,-30.00757910,27.48096672,-1.30772565,-0.20119615,-2.14736080

>  <Name>
ligand

>  <RI>
0

>  <Rbt.Current_Directory>
/home/itssahil/PROJECTS/Mol_Feturizer/New_Systems/rnas/4LW0

>  <Rbt.Executable>
rbdock ($Id: //depot/dev/client3/rdock/2013.1/src/exe/rbdock.cxx#4 $)

>  <Rbt.Library>
libRbt.so (2013.1, Build901 2013/11/27)

>  <Rbt.Parameter_File>
/export/apps/rDock/src/rDock_2013.1_src/data/scripts/dock_solv.prm

>  <Rbt.Receptor>
prm/blind_docking_80.prm

>  <SCORE>
-13.7197

>  <SCORE.INTER>
-13.7197

>  <SCORE.INTER.CONST>
1

>  <SCORE.INTER.POLAR>
0

>  <SCORE.INTER.ROT>
0

>  <SCORE.INTER.SOLV>
6.40036

>  <SCORE.INTER.VDW>
-14.8799

>  <SCORE.INTER.norm>
-1.37197

>  <SCORE.INTRA>
0

>  <SCORE.INTRA.DIHEDRAL>
0

>  <SCORE.INTRA.DIHEDRAL.0>
0

>  <SCORE.INTRA.POLAR>
0

>  <SCORE.INTRA.POLAR.0>
0

>  <SCORE.INTRA.REPUL>
0

>  <SCORE.INTRA.REPUL.0>
0

>  <SCORE.INTRA.SOLV>
0

>  <SCORE.INTRA.SOLV.lig_0>
-23.9151

>  <SCORE.INTRA.VDW>
0

>  <SCORE.INTRA.VDW.0>
0

>  <SCORE.INTRA.norm>
0

>  <SCORE.RESTR>
0

>  <SCORE.RESTR.CAVITY>
0

>  <SCORE.RESTR.norm>
0

>  <SCORE.SYSTEM>
0

>  <SCORE.SYSTEM.CONST>
0

>  <SCORE.SYSTEM.DIHEDRAL>
0

>  <SCORE.SYSTEM.SOLV>
0

>  <SCORE.SYSTEM.norm>
0

>  <SCORE.heavy>
10

>  <SCORE.norm>
-1.37197

>  <RMSD>
11.685

$$$$
ligand
 OpenBabel11021811503D
libRbt.so/2013.1/901 2013/11/27
 10 11  0  0  0  0  0  0  0  0999 V2000
   -3.0075  -28.9104   28.9049 N   0  0  0  0  0  0  0  0  0  0  0  0
   -2.0297  -29.2400   28.0586 C   0  0  0  0  0  0  0  0  0  0  0  0
   -2.0962  -29.9607   26.9323 N   0  0  0  0  0  0  0  0  0  0  0  0
   -3.3572  -30.3807   26.7154 C   0  0  0  0  0  0  0  0  0  0  0  0
   -4.4680  -30.1239   27.4963 C   0  0  0  0  0  0  0  0  0  0  0  0
   -4.2677  -29.3433   28.6521 C   0  0  0  0  0  0  0  0  0  0  0  0
   -5.2578  -29.0275   29.5024 N   0  0  0  0  0  0  0  0  0  0  0  0
   -5.5991  -30.7109   26.9590 N   0  0  0  0  0  0  0  0  0  0  0  0
   -5.1648  -31.2983   25.8754 C   0  0  0  0  0  0  0  0  0  0  0  0
   -3.8189  -31.1470   25.6719 N   0  0  0  0  0  0  0  0  0  0  0  0
  1  2  2  0  0  0  0
  1  6  1  0  0  0  0
  2  3  1  0  0  0  0
  3  4  2  0  0  0  0
  4  5  1  0  0  0  0
  4 10  1  0  0  0  0
  5  6  2  0  0  0  0
  5  8  1  0  0  0  0
  6  7  1  0  0  0  0
  8  9  1  0  0  0  0
  9 10  2  0  0  0  0
M  END
>  <CHROM.1>
-3.91046479,-30.00943511,27.48584216,-1.28185342,-0.18184652,-2.13615153

>  <Name>
ligand

>  <RI>
0

>  <Rbt.Current_Directory>
/home/itssahil/PROJECTS/Mol_Feturizer/New_Systems/rnas/4LW0

>  <Rbt.Executable>
rbdock ($Id: //depot/dev/client3/rdock/2013.1/src/exe/rbdock.cxx#4 $)

>  <Rbt.Library>
libRbt.so (2013.1, Build901 2013/11/27)

>  <Rbt.Parameter_File>
/export/apps/rDock/src/rDock_2013.1_src/data/scripts/dock_solv.prm

>  <Rbt.Receptor>
prm/blind_docking_80.prm

>  <SCORE>
-13.7789

>  <SCORE.INTER>
-13.7938

>  <SCORE.INTER.CONST>
1

>  <SCORE.INTER.POLAR>
0

>  <SCORE.INTER.ROT>
0

>  <SCORE.INTER.SOLV>
6.44097

>  <SCORE.INTER.VDW>
-14.9429

>  <SCORE.INTER.norm>
-1.37938

>  <SCORE.INTRA>
0

>  <SCORE.INTRA.DIHEDRAL>
0

>  <SCORE.INTRA.DIHEDRAL.0>
0

>  <SCORE.INTRA.POLAR>
0

>  <SCORE.INTRA.POLAR.0>
0

>  <SCORE.INTRA.REPUL>
0

>  <SCORE.INTRA.REPUL.0>
0

>  <SCORE.INTRA.SOLV>
0

>  <SCORE.INTRA.SOLV.lig_0>
-23.9151

>  <SCORE.INTRA.VDW>
0

>  <SCORE.INTRA.VDW.0>
0

>  <SCORE.INTRA.norm>
0

>  <SCORE.RESTR>
0.0148784

>  <SCORE.RESTR.CAVITY>
0.0148784

>  <SCORE.RESTR.norm>
0.00148784

>  <SCORE.SYSTEM>
0

>  <SCORE.SYSTEM.CONST>
0

>  <SCORE.SYSTEM.DIHEDRAL>
0

>  <SCORE.SYSTEM.SOLV>
0

>  <SCORE.SYSTEM.norm>
0

>  <SCORE.heavy>
10

>  <SCORE.norm>
-1.37789

>  <RMSD>
11.688

$$$$
ligand
 OpenBabel11021811503D
libRbt.so/2013.1/901 2013/11/27
 10 11  0  0  0  0  0  0  0  0999 V2000
   -2.9845  -28.9086   28.8998 N   0  0  0  0  0  0  0  0  0  0  0  0
   -2.0202  -29.2372   28.0376 C   0  0  0  0  0  0  0  0  0  0  0  0
   -2.1040  -29.9597   26.9136 N   0  0  0  0  0  0  0  0  0  0  0  0
   -3.3675  -30.3830   26.7186 C   0  0  0  0  0  0  0  0  0  0  0  0
   -4.4656  -30.1277   27.5178 C   0  0  0  0  0  0  0  0  0  0  0  0
   -4.2477  -29.3448   28.6689 C   0  0  0  0  0  0  0  0  0  0  0  0
   -5.2240  -29.0301   29.5353 N   0  0  0  0  0  0  0  0  0  0  0  0
   -5.6041  -30.7181   27.0005 N   0  0  0  0  0  0  0  0  0  0  0  0
   -5.1867  -31.3061   25.9106 C   0  0  0  0  0  0  0  0  0  0  0  0
   -3.8448  -31.1519   25.6842 N   0  0  0  0  0  0  0  0  0  0  0  0
  1  2  2  0  0  0  0
  1  6  1  0  0  0  0
  2  3  1  0  0  0  0
  3  4  2  0  0  0  0
  4  5  1  0  0  0  0
  4 10  1  0  0  0  0
  5  6  2  0  0  0  0
  5  8  1  0  0  0  0
  6  7  1  0  0  0  0
  8  9  1  0  0  0  0
  9 10  2  0  0  0  0
M  END
>  <CHROM.1>
-3.90853632,-30.01188386,27.49773827,-1.26866386,-0.19284444,-2.13518696

>  <Name>
ligand

>  <RI>
0

>  <Rbt.Current_Directory>
/home/itssahil/PROJECTS/Mol_Feturizer/New_Systems/rnas/4LW0

>  <Rbt.Executable>
rbdock ($Id: //depot/dev/client3/rdock/2013.1/src/exe/rbdock.cxx#4 $)

>  <Rbt.Library>
libRbt.so (2013.1, Build901 2013/11/27)

>  <Rbt.Parameter_File>
/export/apps/rDock/src/rDock_2013.1_src/data/scripts/dock_solv.prm

>  <Rbt.Receptor>
prm/blind_docking_100.prm

>  <SCORE>
-13.7916

>  <SCORE.INTER>
-13.8189

>  <SCORE.INTER.CONST>
1

>  <SCORE.INTER.POLAR>
0

>  <SCORE.INTER.ROT>
0

>  <SCORE.INTER.SOLV>
6.44944

>  <SCORE.INTER.VDW>
-14.9624

>  <SCORE.INTER.norm>
-1.38189

>  <SCORE.INTRA>
0

>  <SCORE.INTRA.DIHEDRAL>
0

>  <SCORE.INTRA.DIHEDRAL.0>
0

>  <SCORE.INTRA.POLAR>
0

>  <SCORE.INTRA.POLAR.0>
0

>  <SCORE.INTRA.REPUL>
0

>  <SCORE.INTRA.REPUL.0>
0

>  <SCORE.INTRA.SOLV>
0

>  <SCORE.INTRA.SOLV.lig_0>
-23.9151

>  <SCORE.INTRA.VDW>
0

>  <SCORE.INTRA.VDW.0>
0

>  <SCORE.INTRA.norm>
0

>  <SCORE.RESTR>
0.0272794

>  <SCORE.RESTR.CAVITY>
0.0272794

>  <SCORE.RESTR.norm>
0.00272794

>  <SCORE.SYSTEM>
0

>  <SCORE.SYSTEM.CONST>
0

>  <SCORE.SYSTEM.DIHEDRAL>
0

>  <SCORE.SYSTEM.SOLV>
0

>  <SCORE.SYSTEM.norm>
0

>  <SCORE.heavy>
10

>  <SCORE.norm>
-1.37916

>  <RMSD>
11.690

$$$$
ligand
 OpenBabel11021811503D
libRbt.so/2013.1/901 2013/11/27
 10 11  0  0  0  0  0  0  0  0999 V2000
   -3.0468  -28.8784   28.8790 N   0  0  0  0  0  0  0  0  0  0  0  0
   -2.0600  -29.1840   28.0341 C   0  0  0  0  0  0  0  0  0  0  0  0
   -2.1052  -29.9148   26.9132 N   0  0  0  0  0  0  0  0  0  0  0  0
   -3.3529  -30.3750   26.7008 C   0  0  0  0  0  0  0  0  0  0  0  0
   -4.4704  -30.1467   27.4810 C   0  0  0  0  0  0  0  0  0  0  0  0
   -4.2932  -29.3517   28.6308 C   0  0  0  0  0  0  0  0  0  0  0  0
   -5.2918  -29.0601   29.4798 N   0  0  0  0  0  0  0  0  0  0  0  0
   -5.5834  -30.7720   26.9492 N   0  0  0  0  0  0  0  0  0  0  0  0
   -5.1321  -31.3539   25.8695 C   0  0  0  0  0  0  0  0  0  0  0  0
   -3.7917  -31.1628   25.6635 N   0  0  0  0  0  0  0  0  0  0  0  0
  1  2  2  0  0  0  0
  1  6  1  0  0  0  0
  2  3  1  0  0  0  0
  3  4  2  0  0  0  0
  4  5  1  0  0  0  0
  4 10  1  0  0  0  0
  5  6  2  0  0  0  0
  5  8  1  0  0  0  0
  6  7  1  0  0  0  0
  8  9  1  0  0  0  0
  9 10  2  0  0  0  0
M  END
>  <CHROM.1>
-3.91667221,-30.01514550,27.46905084,-1.29796024,-0.20822948,-2.14667508

>  <Name>
ligand

>  <RI>
0

>  <Rbt.Current_Directory>
/home/itssahil/PROJECTS/Mol_Feturizer/New_Systems/rnas/4LW0

>  <Rbt.Executable>
rbdock ($Id: //depot/dev/client3/rdock/2013.1/src/exe/rbdock.cxx#4 $)

>  <Rbt.Library>
libRbt.so (2013.1, Build901 2013/11/27)

>  <Rbt.Parameter_File>
/export/apps/rDock/src/rDock_2013.1_src/data/scripts/dock_solv.prm

>  <Rbt.Receptor>
prm/blind_docking_80.prm

>  <SCORE>
-13.7236

>  <SCORE.INTER>
-13.7272

>  <SCORE.INTER.CONST>
1

>  <SCORE.INTER.POLAR>
0

>  <SCORE.INTER.ROT>
0

>  <SCORE.INTER.SOLV>
6.40842

>  <SCORE.INTER.VDW>
-14.8876

>  <SCORE.INTER.norm>
-1.37272

>  <SCORE.INTRA>
0

>  <SCORE.INTRA.DIHEDRAL>
0

>  <SCORE.INTRA.DIHEDRAL.0>
0

>  <SCORE.INTRA.POLAR>
0

>  <SCORE.INTRA.POLAR.0>
0

>  <SCORE.INTRA.REPUL>
0

>  <SCORE.INTRA.REPUL.0>
0

>  <SCORE.INTRA.SOLV>
0

>  <SCORE.INTRA.SOLV.lig_0>
-23.9151

>  <SCORE.INTRA.VDW>
0

>  <SCORE.INTRA.VDW.0>
0

>  <SCORE.INTRA.norm>
0

>  <SCORE.RESTR>
0.00359585

>  <SCORE.RESTR.CAVITY>
0.00359585

>  <SCORE.RESTR.norm>
0.000359585

>  <SCORE.SYSTEM>
0

>  <SCORE.SYSTEM.CONST>
0

>  <SCORE.SYSTEM.DIHEDRAL>
0

>  <SCORE.SYSTEM.SOLV>
0

>  <SCORE.SYSTEM.norm>
0

>  <SCORE.heavy>
10

>  <SCORE.norm>
-1.37236

>  <RMSD>
11.693

$$$$
ligand
 OpenBabel11021811503D
libRbt.so/2013.1/901 2013/11/27
 10 11  0  0  0  0  0  0  0  0999 V2000
   -3.0357  -28.8913   28.8834 N   0  0  0  0  0  0  0  0  0  0  0  0
   -2.0458  -29.2135   28.0483 C   0  0  0  0  0  0  0  0  0  0  0  0
   -2.0907  -29.9499   26.9312 N   0  0  0  0  0  0  0  0  0  0  0  0
   -3.3421  -30.3963   26.7111 C   0  0  0  0  0  0  0  0  0  0  0  0
   -4.4631  -30.1502   27.4808 C   0  0  0  0  0  0  0  0  0  0  0  0
   -4.2857  -29.3509   28.6276 C   0  0  0  0  0  0  0  0  0  0  0  0
   -5.2876  -29.0426   29.4667 N   0  0  0  0  0  0  0  0  0  0  0  0
   -5.5791  -30.7651   26.9434 N   0  0  0  0  0  0  0  0  0  0  0  0
   -5.1262  -31.3584   25.8706 C   0  0  0  0  0  0  0  0  0  0  0  0
   -3.7819  -31.1846   25.6746 N   0  0  0  0  0  0  0  0  0  0  0  0
  1  2  2  0  0  0  0
  1  6  1  0  0  0  0
  2  3  1  0  0  0  0
  3  4  2  0  0  0  0
  4  5  1  0  0  0  0
  4 10  1  0  0  0  0
  5  6  2  0  0  0  0
  5  8  1  0  0  0  0
  6  7  1  0  0  0  0
  8  9  1  0  0  0  0
  9 10  2  0  0  0  0
M  END
>  <CHROM.1>
-3.90772636,-30.02539255,27.47267647,-1.29823285,-0.19365598,-2.15231287

>  <Name>
ligand

>  <RI>
0

>  <Rbt.Current_Directory>
/home/itssahil/PROJECTS/Mol_Feturizer/New_Systems/rnas/4LW0

>  <Rbt.Executable>
rbdock ($Id: //depot/dev/client3/rdock/2013.1/src/exe/rbdock.cxx#4 $)

>  <Rbt.Library>
libRbt.so (2013.1, Build901 2013/11/27)

>  <Rbt.Parameter_File>
/export/apps/rDock/src/rDock_2013.1_src/data/scripts/dock_solv.prm

>  <Rbt.Receptor>
prm/blind_docking_80.prm

>  <SCORE>
-13.7247

>  <SCORE.INTER>
-13.7247

>  <SCORE.INTER.CONST>
1

>  <SCORE.INTER.POLAR>
0

>  <SCORE.INTER.ROT>
0

>  <SCORE.INTER.SOLV>
6.43647

>  <SCORE.INTER.VDW>
-14.8953

>  <SCORE.INTER.norm>
-1.37247

>  <SCORE.INTRA>
0

>  <SCORE.INTRA.DIHEDRAL>
0

>  <SCORE.INTRA.DIHEDRAL.0>
0

>  <SCORE.INTRA.POLAR>
0

>  <SCORE.INTRA.POLAR.0>
0

>  <SCORE.INTRA.REPUL>
0

>  <SCORE.INTRA.REPUL.0>
0

>  <SCORE.INTRA.SOLV>
0

>  <SCORE.INTRA.SOLV.lig_0>
-23.9151

>  <SCORE.INTRA.VDW>
0

>  <SCORE.INTRA.VDW.0>
0

>  <SCORE.INTRA.norm>
0

>  <SCORE.RESTR>
0

>  <SCORE.RESTR.CAVITY>
0

>  <SCORE.RESTR.norm>
0

>  <SCORE.SYSTEM>
0

>  <SCORE.SYSTEM.CONST>
0

>  <SCORE.SYSTEM.DIHEDRAL>
0

>  <SCORE.SYSTEM.SOLV>
0

>  <SCORE.SYSTEM.norm>
0

>  <SCORE.heavy>
10

>  <SCORE.norm>
-1.37247

>  <RMSD>
11.697

$$$$
ligand
 OpenBabel11021811503D
libRbt.so/2013.1/901 2013/11/27
 10 11  0  0  0  0  0  0  0  0999 V2000
   -3.0357  -28.8999   28.8948 N   0  0  0  0  0  0  0  0  0  0  0  0
   -2.0475  -29.2126   28.0542 C   0  0  0  0  0  0  0  0  0  0  0  0
   -2.0938  -29.9400   26.9312 N   0  0  0  0  0  0  0  0  0  0  0  0
   -3.3446  -30.3878   26.7111 C   0  0  0  0  0  0  0  0  0  0  0  0
   -4.4640  -30.1510   27.4861 C   0  0  0  0  0  0  0  0  0  0  0  0
   -4.2853  -29.3607   28.6388 C   0  0  0  0  0  0  0  0  0  0  0  0
   -5.2855  -29.0619   29.4834 N   0  0  0  0  0  0  0  0  0  0  0  0
   -5.5800  -30.7644   26.9469 N   0  0  0  0  0  0  0  0  0  0  0  0
   -5.1286  -31.3477   25.8680 C   0  0  0  0  0  0  0  0  0  0  0  0
   -3.7854  -31.1687   25.6695 N   0  0  0  0  0  0  0  0  0  0  0  0
  1  2  2  0  0  0  0
  1  6  1  0  0  0  0
  2  3  1  0  0  0  0
  3  4  2  0  0  0  0
  4  5  1  0  0  0  0
  4 10  1  0  0  0  0
  5  6  2  0  0  0  0
  5  8  1  0  0  0  0
  6  7  1  0  0  0  0
  8  9  1  0  0  0  0
  9 10  2  0  0  0  0
M  END
>  <CHROM.1>
-3.90896515,-30.02466657,27.47735850,-1.29718934,-0.19746221,-2.14389989

>  <Name>
ligand

>  <RI>
0

>  <Rbt.Current_Directory>
/home/itssahil/PROJECTS/Mol_Feturizer/New_Systems/rnas/4LW0

>  <Rbt.Executable>
rbdock ($Id: //depot/dev/client3/rdock/2013.1/src/exe/rbdock.cxx#4 $)

>  <Rbt.Library>
libRbt.so (2013.1, Build901 2013/11/27)

>  <Rbt.Parameter_File>
/export/apps/rDock/src/rDock_2013.1_src/data/scripts/dock_solv.prm

>  <Rbt.Receptor>
prm/blind_docking_100.prm

>  <SCORE>
-13.7295

>  <SCORE.INTER>
-13.7295

>  <SCORE.INTER.CONST>
1

>  <SCORE.INTER.POLAR>
0

>  <SCORE.INTER.ROT>
0

>  <SCORE.INTER.SOLV>
6.42474

>  <SCORE.INTER.VDW>
-14.8946

>  <SCORE.INTER.norm>
-1.37295

>  <SCORE.INTRA>
0

>  <SCORE.INTRA.DIHEDRAL>
0

>  <SCORE.INTRA.DIHEDRAL.0>
0

>  <SCORE.INTRA.POLAR>
0

>  <SCORE.INTRA.POLAR.0>
0

>  <SCORE.INTRA.REPUL>
0

>  <SCORE.INTRA.REPUL.0>
0

>  <SCORE.INTRA.SOLV>
0

>  <SCORE.INTRA.SOLV.lig_0>
-23.9151

>  <SCORE.INTRA.VDW>
0

>  <SCORE.INTRA.VDW.0>
0

>  <SCORE.INTRA.norm>
0

>  <SCORE.RESTR>
0

>  <SCORE.RESTR.CAVITY>
0

>  <SCORE.RESTR.norm>
0

>  <SCORE.SYSTEM>
0

>  <SCORE.SYSTEM.CONST>
0

>  <SCORE.SYSTEM.DIHEDRAL>
0

>  <SCORE.SYSTEM.SOLV>
0

>  <SCORE.SYSTEM.norm>
0

>  <SCORE.heavy>
10

>  <SCORE.norm>
-1.37295

>  <RMSD>
11.698

$$$$
ligand
 OpenBabel11021811503D
libRbt.so/2013.1/901 2013/11/27
 10 11  0  0  0  0  0  0  0  0999 V2000
   -3.0436  -28.9230   28.9459 N   0  0  0  0  0  0  0  0  0  0  0  0
   -2.0585  -29.2089   28.0921 C   0  0  0  0  0  0  0  0  0  0  0  0
   -2.1078  -29.9057   26.9500 N   0  0  0  0  0  0  0  0  0  0  0  0
   -3.3581  -30.3522   26.7241 C   0  0  0  0  0  0  0  0  0  0  0  0
   -4.4744  -30.1409   27.5109 C   0  0  0  0  0  0  0  0  0  0  0  0
   -4.2927  -29.3816   28.6838 C   0  0  0  0  0  0  0  0  0  0  0  0
   -5.2897  -29.1098   29.5413 N   0  0  0  0  0  0  0  0  0  0  0  0
   -5.5908  -30.7439   26.9609 N   0  0  0  0  0  0  0  0  0  0  0  0
   -5.1428  -31.2958   25.8643 C   0  0  0  0  0  0  0  0  0  0  0  0
   -3.8013  -31.1063   25.6639 N   0  0  0  0  0  0  0  0  0  0  0  0
  1  2  2  0  0  0  0
  1  6  1  0  0  0  0
  2  3  1  0  0  0  0
  3  4  2  0  0  0  0
  4  5  1  0  0  0  0
  4 10  1  0  0  0  0
  5  6  2  0  0  0  0
  5  8  1  0  0  0  0
  6  7  1  0  0  0  0
  8  9  1  0  0  0  0
  9 10  2  0  0  0  0
M  END
>  <CHROM.1>
-3.91984948,-30.01227828,27.50283584,-1.29484607,-0.20342837,-2.11624867

>  <Name>
ligand

>  <RI>
0

>  <Rbt.Current_Directory>
/home/itssahil/PROJECTS/Mol_Feturizer/New_Systems/rnas/4LW0

>  <Rbt.Executable>
rbdock ($Id: //depot/dev/client3/rdock/2013.1/src/exe/rbdock.cxx#4 $)

>  <Rbt.Library>
libRbt.so (2013.1, Build901 2013/11/27)

>  <Rbt.Parameter_File>
/export/apps/rDock/src/rDock_2013.1_src/data/scripts/dock_solv.prm

>  <Rbt.Receptor>
prm/blind_docking_100.prm

>  <SCORE>
-13.718

>  <SCORE.INTER>
-13.7184

>  <SCORE.INTER.CONST>
1

>  <SCORE.INTER.POLAR>
0

>  <SCORE.INTER.ROT>
0

>  <SCORE.INTER.SOLV>
6.3705

>  <SCORE.INTER.VDW>
-14.8691

>  <SCORE.INTER.norm>
-1.37184

>  <SCORE.INTRA>
0

>  <SCORE.INTRA.DIHEDRAL>
0

>  <SCORE.INTRA.DIHEDRAL.0>
0

>  <SCORE.INTRA.POLAR>
0

>  <SCORE.INTRA.POLAR.0>
0

>  <SCORE.INTRA.REPUL>
0

>  <SCORE.INTRA.REPUL.0>
0

>  <SCORE.INTRA.SOLV>
0

>  <SCORE.INTRA.SOLV.lig_0>
-23.9151

>  <SCORE.INTRA.VDW>
0

>  <SCORE.INTRA.VDW.0>
0

>  <SCORE.INTRA.norm>
0

>  <SCORE.RESTR>
0.000328751

>  <SCORE.RESTR.CAVITY>
0.000328751

>  <SCORE.RESTR.norm>
3.28751e-05

>  <SCORE.SYSTEM>
0

>  <SCORE.SYSTEM.CONST>
0

>  <SCORE.SYSTEM.DIHEDRAL>
0

>  <SCORE.SYSTEM.SOLV>
0

>  <SCORE.SYSTEM.norm>
0

>  <SCORE.heavy>
10

>  <SCORE.norm>
-1.3718

>  <RMSD>
11.699

$$$$
ligand
 OpenBabel11021811503D
libRbt.so/2013.1/901 2013/11/27
 10 11  0  0  0  0  0  0  0  0999 V2000
   -3.0315  -28.9045   28.8920 N   0  0  0  0  0  0  0  0  0  0  0  0
   -2.0431  -29.2215   28.0531 C   0  0  0  0  0  0  0  0  0  0  0  0
   -2.0902  -29.9504   26.9312 N   0  0  0  0  0  0  0  0  0  0  0  0
   -3.3422  -30.3947   26.7101 C   0  0  0  0  0  0  0  0  0  0  0  0
   -4.4618  -30.1533   27.4833 C   0  0  0  0  0  0  0  0  0  0  0  0
   -4.2822  -29.3618   28.6351 C   0  0  0  0  0  0  0  0  0  0  0  0
   -5.2826  -29.0588   29.4780 N   0  0  0  0  0  0  0  0  0  0  0  0
   -5.5790  -30.7641   26.9435 N   0  0  0  0  0  0  0  0  0  0  0  0
   -5.1280  -31.3503   25.8661 C   0  0  0  0  0  0  0  0  0  0  0  0
   -3.7840  -31.1758   25.6690 N   0  0  0  0  0  0  0  0  0  0  0  0
  1  2  2  0  0  0  0
  1  6  1  0  0  0  0
  2  3  1  0  0  0  0
  3  4  2  0  0  0  0
  4  5  1  0  0  0  0
  4 10  1  0  0  0  0
  5  6  2  0  0  0  0
  5  8  1  0  0  0  0
  6  7  1  0  0  0  0
  8  9  1  0  0  0  0
  9 10  2  0  0  0  0
M  END
>  <CHROM.1>
-3.90637185,-30.02871761,27.47508242,-1.29658758,-0.19419299,-2.14525354

>  <Name>
ligand

>  <RI>
0

>  <Rbt.Current_Directory>
/home/itssahil/PROJECTS/Mol_Feturizer/New_Systems/rnas/4LW0

>  <Rbt.Executable>
rbdock ($Id: //depot/dev/client3/rdock/2013.1/src/exe/rbdock.cxx#4 $)

>  <Rbt.Library>
libRbt.so (2013.1, Build901 2013/11/27)

>  <Rbt.Parameter_File>
/export/apps/rDock/src/rDock_2013.1_src/data/scripts/dock_solv.prm

>  <Rbt.Receptor>
prm/blind_docking_60.prm

>  <SCORE>
-13.7366

>  <SCORE.INTER>
-13.7366

>  <SCORE.INTER.CONST>
1

>  <SCORE.INTER.POLAR>
0

>  <SCORE.INTER.ROT>
0

>  <SCORE.INTER.SOLV>
6.43479

>  <SCORE.INTER.VDW>
-14.9026

>  <SCORE.INTER.norm>
-1.37366

>  <SCORE.INTRA>
0

>  <SCORE.INTRA.DIHEDRAL>
0

>  <SCORE.INTRA.DIHEDRAL.0>
0

>  <SCORE.INTRA.POLAR>
0

>  <SCORE.INTRA.POLAR.0>
0

>  <SCORE.INTRA.REPUL>
0

>  <SCORE.INTRA.REPUL.0>
0

>  <SCORE.INTRA.SOLV>
0

>  <SCORE.INTRA.SOLV.lig_0>
-23.9151

>  <SCORE.INTRA.VDW>
0

>  <SCORE.INTRA.VDW.0>
0

>  <SCORE.INTRA.norm>
0

>  <SCORE.RESTR>
0

>  <SCORE.RESTR.CAVITY>
0

>  <SCORE.RESTR.norm>
0

>  <SCORE.SYSTEM>
0

>  <SCORE.SYSTEM.CONST>
0

>  <SCORE.SYSTEM.DIHEDRAL>
0

>  <SCORE.SYSTEM.SOLV>
0

>  <SCORE.SYSTEM.norm>
0

>  <SCORE.heavy>
10

>  <SCORE.norm>
-1.37366

>  <RMSD>
11.700

$$$$
ligand
 OpenBabel11021811503D
libRbt.so/2013.1/901 2013/11/27
 10 11  0  0  0  0  0  0  0  0999 V2000
   -3.0518  -28.8887   28.8902 N   0  0  0  0  0  0  0  0  0  0  0  0
   -2.0590  -29.2023   28.0553 C   0  0  0  0  0  0  0  0  0  0  0  0
   -2.0980  -29.9356   26.9360 N   0  0  0  0  0  0  0  0  0  0  0  0
   -3.3464  -30.3891   26.7130 C   0  0  0  0  0  0  0  0  0  0  0  0
   -4.4698  -30.1522   27.4821 C   0  0  0  0  0  0  0  0  0  0  0  0
   -4.2987  -29.3553   28.6314 C   0  0  0  0  0  0  0  0  0  0  0  0
   -5.3035  -29.0557   29.4703 N   0  0  0  0  0  0  0  0  0  0  0  0
   -5.5813  -30.7724   26.9415 N   0  0  0  0  0  0  0  0  0  0  0  0
   -5.1234  -31.3597   25.8675 C   0  0  0  0  0  0  0  0  0  0  0  0
   -3.7800  -31.1770   25.6736 N   0  0  0  0  0  0  0  0  0  0  0  0
  1  2  2  0  0  0  0
  1  6  1  0  0  0  0
  2  3  1  0  0  0  0
  3  4  2  0  0  0  0
  4  5  1  0  0  0  0
  4 10  1  0  0  0  0
  5  6  2  0  0  0  0
  5  8  1  0  0  0  0
  6  7  1  0  0  0  0
  8  9  1  0  0  0  0
  9 10  2  0  0  0  0
M  END
>  <CHROM.1>
-3.91516010,-30.02397813,27.47500883,-1.30271774,-0.19819385,-2.15019588

>  <Name>
ligand

>  <RI>
0

>  <Rbt.Current_Directory>
/home/itssahil/PROJECTS/Mol_Feturizer/New_Systems/rnas/4LW0

>  <Rbt.Executable>
rbdock ($Id: //depot/dev/client3/rdock/2013.1/src/exe/rbdock.cxx#4 $)

>  <Rbt.Library>
libRbt.so (2013.1, Build901 2013/11/27)

>  <Rbt.Parameter_File>
/export/apps/rDock/src/rDock_2013.1_src/data/scripts/dock_solv.prm

>  <Rbt.Receptor>
prm/blind_docking_100.prm

>  <SCORE>
-13.7245

>  <SCORE.INTER>
-13.7245

>  <SCORE.INTER.CONST>
1

>  <SCORE.INTER.POLAR>
0

>  <SCORE.INTER.ROT>
0

>  <SCORE.INTER.SOLV>
6.41303

>  <SCORE.INTER.VDW>
-14.8873

>  <SCORE.INTER.norm>
-1.37245

>  <SCORE.INTRA>
0

>  <SCORE.INTRA.DIHEDRAL>
0

>  <SCORE.INTRA.DIHEDRAL.0>
0

>  <SCORE.INTRA.POLAR>
0

>  <SCORE.INTRA.POLAR.0>
0

>  <SCORE.INTRA.REPUL>
0

>  <SCORE.INTRA.REPUL.0>
0

>  <SCORE.INTRA.SOLV>
0

>  <SCORE.INTRA.SOLV.lig_0>
-23.9151

>  <SCORE.INTRA.VDW>
0

>  <SCORE.INTRA.VDW.0>
0

>  <SCORE.INTRA.norm>
0

>  <SCORE.RESTR>
0

>  <SCORE.RESTR.CAVITY>
0

>  <SCORE.RESTR.norm>
0

>  <SCORE.SYSTEM>
0

>  <SCORE.SYSTEM.CONST>
0

>  <SCORE.SYSTEM.DIHEDRAL>
0

>  <SCORE.SYSTEM.SOLV>
0

>  <SCORE.SYSTEM.norm>
0

>  <SCORE.heavy>
10

>  <SCORE.norm>
-1.37245

>  <RMSD>
11.701

$$$$
ligand
 OpenBabel11021811503D
libRbt.so/2013.1/901 2013/11/27
 10 11  0  0  0  0  0  0  0  0999 V2000
   -3.0325  -28.9060   28.8925 N   0  0  0  0  0  0  0  0  0  0  0  0
   -2.0426  -29.2245   28.0561 C   0  0  0  0  0  0  0  0  0  0  0  0
   -2.0879  -29.9541   26.9345 N   0  0  0  0  0  0  0  0  0  0  0  0
   -3.3398  -30.3975   26.7110 C   0  0  0  0  0  0  0  0  0  0  0  0
   -4.4609  -30.1545   27.4816 C   0  0  0  0  0  0  0  0  0  0  0  0
   -4.2830  -29.3624   28.6333 C   0  0  0  0  0  0  0  0  0  0  0  0
   -5.2850  -29.0579   29.4737 N   0  0  0  0  0  0  0  0  0  0  0  0
   -5.5774  -30.7647   26.9399 N   0  0  0  0  0  0  0  0  0  0  0  0
   -5.1246  -31.3521   25.8638 C   0  0  0  0  0  0  0  0  0  0  0  0
   -3.7800  -31.1789   25.6696 N   0  0  0  0  0  0  0  0  0  0  0  0
  1  2  2  0  0  0  0
  1  6  1  0  0  0  0
  2  3  1  0  0  0  0
  3  4  2  0  0  0  0
  4  5  1  0  0  0  0
  4 10  1  0  0  0  0
  5  6  2  0  0  0  0
  5  8  1  0  0  0  0
  6  7  1  0  0  0  0
  8  9  1  0  0  0  0
  9 10  2  0  0  0  0
M  END
>  <CHROM.1>
-3.90529151,-30.03043031,27.47453342,-1.29796050,-0.19226659,-2.14623282

>  <Name>
ligand

>  <RI>
0

>  <Rbt.Current_Directory>
/home/itssahil/PROJECTS/Mol_Feturizer/New_Systems/rnas/4LW0

>  <Rbt.Executable>
rbdock ($Id: //depot/dev/client3/rdock/2013.1/src/exe/rbdock.cxx#4 $)

>  <Rbt.Library>
libRbt.so (2013.1, Build901 2013/11/27)

>  <Rbt.Parameter_File>
/export/apps/rDock/src/rDock_2013.1_src/data/scripts/dock_solv.prm

>  <Rbt.Receptor>
prm/blind_docking_60.prm

>  <SCORE>
-13.7388

>  <SCORE.INTER>
-13.7388

>  <SCORE.INTER.CONST>
1

>  <SCORE.INTER.POLAR>
0

>  <SCORE.INTER.ROT>
0

>  <SCORE.INTER.SOLV>
6.43677

>  <SCORE.INTER.VDW>
-14.9048

>  <SCORE.INTER.norm>
-1.37388

>  <SCORE.INTRA>
0

>  <SCORE.INTRA.DIHEDRAL>
0

>  <SCORE.INTRA.DIHEDRAL.0>
0

>  <SCORE.INTRA.POLAR>
0

>  <SCORE.INTRA.POLAR.0>
0

>  <SCORE.INTRA.REPUL>
0

>  <SCORE.INTRA.REPUL.0>
0

>  <SCORE.INTRA.SOLV>
0

>  <SCORE.INTRA.SOLV.lig_0>
-23.9151

>  <SCORE.INTRA.VDW>
0

>  <SCORE.INTRA.VDW.0>
0

>  <SCORE.INTRA.norm>
0

>  <SCORE.RESTR>
0

>  <SCORE.RESTR.CAVITY>
0

>  <SCORE.RESTR.norm>
0

>  <SCORE.SYSTEM>
0

>  <SCORE.SYSTEM.CONST>
0

>  <SCORE.SYSTEM.DIHEDRAL>
0

>  <SCORE.SYSTEM.SOLV>
0

>  <SCORE.SYSTEM.norm>
0

>  <SCORE.heavy>
10

>  <SCORE.norm>
-1.37388

>  <RMSD>
11.701

$$$$
ligand
 OpenBabel11021811503D
libRbt.so/2013.1/901 2013/11/27
 10 11  0  0  0  0  0  0  0  0999 V2000
   -3.0362  -28.9037   28.8936 N   0  0  0  0  0  0  0  0  0  0  0  0
   -2.0460  -29.2196   28.0564 C   0  0  0  0  0  0  0  0  0  0  0  0
   -2.0904  -29.9485   26.9343 N   0  0  0  0  0  0  0  0  0  0  0  0
   -3.3414  -30.3942   26.7111 C   0  0  0  0  0  0  0  0  0  0  0  0
   -4.4626  -30.1541   27.4824 C   0  0  0  0  0  0  0  0  0  0  0  0
   -4.2859  -29.3625   28.6346 C   0  0  0  0  0  0  0  0  0  0  0  0
   -5.2880  -29.0606   29.4757 N   0  0  0  0  0  0  0  0  0  0  0  0
   -5.5782  -30.7662   26.9407 N   0  0  0  0  0  0  0  0  0  0  0  0
   -5.1247  -31.3518   25.8641 C   0  0  0  0  0  0  0  0  0  0  0  0
   -3.7805  -31.1758   25.6693 N   0  0  0  0  0  0  0  0  0  0  0  0
  1  2  2  0  0  0  0
  1  6  1  0  0  0  0
  2  3  1  0  0  0  0
  3  4  2  0  0  0  0
  4  5  1  0  0  0  0
  4 10  1  0  0  0  0
  5  6  2  0  0  0  0
  5  8  1  0  0  0  0
  6  7  1  0  0  0  0
  8  9  1  0  0  0  0
  9 10  2  0  0  0  0
M  END
>  <CHROM.1>
-3.90732398,-30.02886874,27.47516043,-1.29868539,-0.19422158,-2.14563676

>  <Name>
ligand

>  <RI>
0

>  <Rbt.Current_Directory>
/home/itssahil/PROJECTS/Mol_Feturizer/New_Systems/rnas/4LW0

>  <Rbt.Executable>
rbdock ($Id: //depot/dev/client3/rdock/2013.1/src/exe/rbdock.cxx#4 $)

>  <Rbt.Library>
libRbt.so (2013.1, Build901 2013/11/27)

>  <Rbt.Parameter_File>
/export/apps/rDock/src/rDock_2013.1_src/data/scripts/dock_solv.prm

>  <Rbt.Receptor>
prm/blind_docking_60.prm

>  <SCORE>
-13.7367

>  <SCORE.INTER>
-13.7367

>  <SCORE.INTER.CONST>
1

>  <SCORE.INTER.POLAR>
0

>  <SCORE.INTER.ROT>
0

>  <SCORE.INTER.SOLV>
6.43038

>  <SCORE.INTER.VDW>
-14.9012

>  <SCORE.INTER.norm>
-1.37367

>  <SCORE.INTRA>
0

>  <SCORE.INTRA.DIHEDRAL>
0

>  <SCORE.INTRA.DIHEDRAL.0>
0

>  <SCORE.INTRA.POLAR>
0

>  <SCORE.INTRA.POLAR.0>
0

>  <SCORE.INTRA.REPUL>
0

>  <SCORE.INTRA.REPUL.0>
0

>  <SCORE.INTRA.SOLV>
0

>  <SCORE.INTRA.SOLV.lig_0>
-23.9151

>  <SCORE.INTRA.VDW>
0

>  <SCORE.INTRA.VDW.0>
0

>  <SCORE.INTRA.norm>
0

>  <SCORE.RESTR>
0

>  <SCORE.RESTR.CAVITY>
0

>  <SCORE.RESTR.norm>
0

>  <SCORE.SYSTEM>
0

>  <SCORE.SYSTEM.CONST>
0

>  <SCORE.SYSTEM.DIHEDRAL>
0

>  <SCORE.SYSTEM.SOLV>
0

>  <SCORE.SYSTEM.norm>
0

>  <SCORE.heavy>
10

>  <SCORE.norm>
-1.37367

>  <RMSD>
11.701

$$$$
ligand
 OpenBabel11021811503D
libRbt.so/2013.1/901 2013/11/27
 10 11  0  0  0  0  0  0  0  0999 V2000
   -3.0413  -28.9365   28.9542 N   0  0  0  0  0  0  0  0  0  0  0  0
   -2.0493  -29.2473   28.1175 C   0  0  0  0  0  0  0  0  0  0  0  0
   -2.0952  -29.9498   26.9787 N   0  0  0  0  0  0  0  0  0  0  0  0
   -3.3506  -30.3724   26.7361 C   0  0  0  0  0  0  0  0  0  0  0  0
   -4.4743  -30.1339   27.5043 C   0  0  0  0  0  0  0  0  0  0  0  0
   -4.2953  -29.3713   28.6755 C   0  0  0  0  0  0  0  0  0  0  0  0
   -5.2997  -29.0743   29.5158 N   0  0  0  0  0  0  0  0  0  0  0  0
   -5.5941  -30.7175   26.9405 N   0  0  0  0  0  0  0  0  0  0  0  0
   -5.1407  -31.2850   25.8541 C   0  0  0  0  0  0  0  0  0  0  0  0
   -3.7926  -31.1238   25.6734 N   0  0  0  0  0  0  0  0  0  0  0  0
  1  2  2  0  0  0  0
  1  6  1  0  0  0  0
  2  3  1  0  0  0  0
  3  4  2  0  0  0  0
  4  5  1  0  0  0  0
  4 10  1  0  0  0  0
  5  6  2  0  0  0  0
  5  8  1  0  0  0  0
  6  7  1  0  0  0  0
  8  9  1  0  0  0  0
  9 10  2  0  0  0  0
M  END
>  <CHROM.1>
-3.91724164,-30.01651537,27.50402921,-1.29750818,-0.17813621,-2.12262590

>  <Name>
ligand

>  <RI>
0

>  <Rbt.Current_Directory>
/home/itssahil/PROJECTS/Mol_Feturizer/New_Systems/rnas/4LW0

>  <Rbt.Executable>
rbdock ($Id: //depot/dev/client3/rdock/2013.1/src/exe/rbdock.cxx#4 $)

>  <Rbt.Library>
libRbt.so (2013.1, Build901 2013/11/27)

>  <Rbt.Parameter_File>
/export/apps/rDock/src/rDock_2013.1_src/data/scripts/dock_solv.prm

>  <Rbt.Receptor>
prm/blind_docking_80.prm

>  <SCORE>
-13.6964

>  <SCORE.INTER>
-13.6964

>  <SCORE.INTER.CONST>
1

>  <SCORE.INTER.POLAR>
0

>  <SCORE.INTER.ROT>
0

>  <SCORE.INTER.SOLV>
6.39545

>  <SCORE.INTER.VDW>
-14.8628

>  <SCORE.INTER.norm>
-1.36964

>  <SCORE.INTRA>
0

>  <SCORE.INTRA.DIHEDRAL>
0

>  <SCORE.INTRA.DIHEDRAL.0>
0

>  <SCORE.INTRA.POLAR>
0

>  <SCORE.INTRA.POLAR.0>
0

>  <SCORE.INTRA.REPUL>
0

>  <SCORE.INTRA.REPUL.0>
0

>  <SCORE.INTRA.SOLV>
0

>  <SCORE.INTRA.SOLV.lig_0>
-23.9151

>  <SCORE.INTRA.VDW>
0

>  <SCORE.INTRA.VDW.0>
0

>  <SCORE.INTRA.norm>
0

>  <SCORE.RESTR>
0

>  <SCORE.RESTR.CAVITY>
0

>  <SCORE.RESTR.norm>
0

>  <SCORE.SYSTEM>
0

>  <SCORE.SYSTEM.CONST>
0

>  <SCORE.SYSTEM.DIHEDRAL>
0

>  <SCORE.SYSTEM.SOLV>
0

>  <SCORE.SYSTEM.norm>
0

>  <SCORE.heavy>
10

>  <SCORE.norm>
-1.36964

>  <RMSD>
11.701

$$$$
ligand
 OpenBabel11021811503D
libRbt.so/2013.1/901 2013/11/27
 10 11  0  0  0  0  0  0  0  0999 V2000
   -3.0440  -28.8958   28.8943 N   0  0  0  0  0  0  0  0  0  0  0  0
   -2.0501  -29.2166   28.0635 C   0  0  0  0  0  0  0  0  0  0  0  0
   -2.0896  -29.9512   26.9450 N   0  0  0  0  0  0  0  0  0  0  0  0
   -3.3398  -30.3973   26.7181 C   0  0  0  0  0  0  0  0  0  0  0  0
   -4.4645  -30.1525   27.4828 C   0  0  0  0  0  0  0  0  0  0  0  0
   -4.2927  -29.3551   28.6317 C   0  0  0  0  0  0  0  0  0  0  0  0
   -5.2987  -29.0483   29.4665 N   0  0  0  0  0  0  0  0  0  0  0  0
   -5.5779  -30.7667   26.9390 N   0  0  0  0  0  0  0  0  0  0  0  0
   -5.1197  -31.3582   25.8675 C   0  0  0  0  0  0  0  0  0  0  0  0
   -3.7745  -31.1840   25.6782 N   0  0  0  0  0  0  0  0  0  0  0  0
  1  2  2  0  0  0  0
  1  6  1  0  0  0  0
  2  3  1  0  0  0  0
  3  4  2  0  0  0  0
  4  5  1  0  0  0  0
  4 10  1  0  0  0  0
  5  6  2  0  0  0  0
  5  8  1  0  0  0  0
  6  7  1  0  0  0  0
  8  9  1  0  0  0  0
  9 10  2  0  0  0  0
M  END
>  <CHROM.1>
-3.90911925,-30.02770385,27.47755260,-1.30237892,-0.19109885,-2.15149110

>  <Name>
ligand

>  <RI>
0

>  <Rbt.Current_Directory>
/home/itssahil/PROJECTS/Mol_Feturizer/New_Systems/rnas/4LW0

>  <Rbt.Executable>
rbdock ($Id: //depot/dev/client3/rdock/2013.1/src/exe/rbdock.cxx#4 $)

>  <Rbt.Library>
libRbt.so (2013.1, Build901 2013/11/27)

>  <Rbt.Parameter_File>
/export/apps/rDock/src/rDock_2013.1_src/data/scripts/dock_solv.prm

>  <Rbt.Receptor>
prm/blind_docking_80.prm

>  <SCORE>
-13.7301

>  <SCORE.INTER>
-13.7301

>  <SCORE.INTER.CONST>
1

>  <SCORE.INTER.POLAR>
0

>  <SCORE.INTER.ROT>
0

>  <SCORE.INTER.SOLV>
6.42792

>  <SCORE.INTER.VDW>
-14.896

>  <SCORE.INTER.norm>
-1.37301

>  <SCORE.INTRA>
0

>  <SCORE.INTRA.DIHEDRAL>
0

>  <SCORE.INTRA.DIHEDRAL.0>
0

>  <SCORE.INTRA.POLAR>
0

>  <SCORE.INTRA.POLAR.0>
0

>  <SCORE.INTRA.REPUL>
0

>  <SCORE.INTRA.REPUL.0>
0

>  <SCORE.INTRA.SOLV>
0

>  <SCORE.INTRA.SOLV.lig_0>
-23.9151

>  <SCORE.INTRA.VDW>
0

>  <SCORE.INTRA.VDW.0>
0

>  <SCORE.INTRA.norm>
0

>  <SCORE.RESTR>
0

>  <SCORE.RESTR.CAVITY>
0

>  <SCORE.RESTR.norm>
0

>  <SCORE.SYSTEM>
0

>  <SCORE.SYSTEM.CONST>
0

>  <SCORE.SYSTEM.DIHEDRAL>
0

>  <SCORE.SYSTEM.SOLV>
0

>  <SCORE.SYSTEM.norm>
0

>  <SCORE.heavy>
10

>  <SCORE.norm>
-1.37301

>  <RMSD>
11.701

$$$$
ligand
 OpenBabel11021811503D
libRbt.so/2013.1/901 2013/11/27
 10 11  0  0  0  0  0  0  0  0999 V2000
   -3.0350  -28.9067   28.8916 N   0  0  0  0  0  0  0  0  0  0  0  0
   -2.0452  -29.2236   28.0544 C   0  0  0  0  0  0  0  0  0  0  0  0
   -2.0903  -29.9528   26.9325 N   0  0  0  0  0  0  0  0  0  0  0  0
   -3.3417  -30.3975   26.7096 C   0  0  0  0  0  0  0  0  0  0  0  0
   -4.4627  -30.1562   27.4809 C   0  0  0  0  0  0  0  0  0  0  0  0
   -4.2851  -29.3644   28.6329 C   0  0  0  0  0  0  0  0  0  0  0  0
   -5.2869  -29.0614   29.4740 N   0  0  0  0  0  0  0  0  0  0  0  0
   -5.5788  -30.7675   26.9396 N   0  0  0  0  0  0  0  0  0  0  0  0
   -5.1260  -31.3538   25.8630 C   0  0  0  0  0  0  0  0  0  0  0  0
   -3.7817  -31.1790   25.6680 N   0  0  0  0  0  0  0  0  0  0  0  0
  1  2  2  0  0  0  0
  1  6  1  0  0  0  0
  2  3  1  0  0  0  0
  3  4  2  0  0  0  0
  4  5  1  0  0  0  0
  4 10  1  0  0  0  0
  5  6  2  0  0  0  0
  5  8  1  0  0  0  0
  6  7  1  0  0  0  0
  8  9  1  0  0  0  0
  9 10  2  0  0  0  0
M  END
>  <CHROM.1>
-3.90725439,-30.03147272,27.47359457,-1.29810246,-0.19356798,-2.14579909

>  <Name>
ligand

>  <RI>
0

>  <Rbt.Current_Directory>
/home/itssahil/PROJECTS/Mol_Feturizer/New_Systems/rnas/4LW0

>  <Rbt.Executable>
rbdock ($Id: //depot/dev/client3/rdock/2013.1/src/exe/rbdock.cxx#4 $)

>  <Rbt.Library>
libRbt.so (2013.1, Build901 2013/11/27)

>  <Rbt.Parameter_File>
/export/apps/rDock/src/rDock_2013.1_src/data/scripts/dock_solv.prm

>  <Rbt.Receptor>
prm/blind_docking_60.prm

>  <SCORE>
-13.741

>  <SCORE.INTER>
-13.741

>  <SCORE.INTER.CONST>
1

>  <SCORE.INTER.POLAR>
0

>  <SCORE.INTER.ROT>
0

>  <SCORE.INTER.SOLV>
6.43368

>  <SCORE.INTER.VDW>
-14.9052

>  <SCORE.INTER.norm>
-1.3741

>  <SCORE.INTRA>
0

>  <SCORE.INTRA.DIHEDRAL>
0

>  <SCORE.INTRA.DIHEDRAL.0>
0

>  <SCORE.INTRA.POLAR>
0

>  <SCORE.INTRA.POLAR.0>
0

>  <SCORE.INTRA.REPUL>
0

>  <SCORE.INTRA.REPUL.0>
0

>  <SCORE.INTRA.SOLV>
0

>  <SCORE.INTRA.SOLV.lig_0>
-23.9151

>  <SCORE.INTRA.VDW>
0

>  <SCORE.INTRA.VDW.0>
0

>  <SCORE.INTRA.norm>
0

>  <SCORE.RESTR>
0

>  <SCORE.RESTR.CAVITY>
0

>  <SCORE.RESTR.norm>
0

>  <SCORE.SYSTEM>
0

>  <SCORE.SYSTEM.CONST>
0

>  <SCORE.SYSTEM.DIHEDRAL>
0

>  <SCORE.SYSTEM.SOLV>
0

>  <SCORE.SYSTEM.norm>
0

>  <SCORE.heavy>
10

>  <SCORE.norm>
-1.3741

>  <RMSD>
11.702

$$$$
ligand
 OpenBabel11021811503D
libRbt.so/2013.1/901 2013/11/27
 10 11  0  0  0  0  0  0  0  0999 V2000
   -3.0422  -28.8994   28.8905 N   0  0  0  0  0  0  0  0  0  0  0  0
   -2.0520  -29.2129   28.0526 C   0  0  0  0  0  0  0  0  0  0  0  0
   -2.0953  -29.9426   26.9310 N   0  0  0  0  0  0  0  0  0  0  0  0
   -3.3452  -30.3922   26.7093 C   0  0  0  0  0  0  0  0  0  0  0  0
   -4.4664  -30.1548   27.4815 C   0  0  0  0  0  0  0  0  0  0  0  0
   -4.2908  -29.3619   28.6330 C   0  0  0  0  0  0  0  0  0  0  0  0
   -5.2930  -29.0624   29.4749 N   0  0  0  0  0  0  0  0  0  0  0  0
   -5.5807  -30.7704   26.9414 N   0  0  0  0  0  0  0  0  0  0  0  0
   -5.1266  -31.3555   25.8646 C   0  0  0  0  0  0  0  0  0  0  0  0
   -3.7831  -31.1757   25.6684 N   0  0  0  0  0  0  0  0  0  0  0  0
  1  2  2  0  0  0  0
  1  6  1  0  0  0  0
  2  3  1  0  0  0  0
  3  4  2  0  0  0  0
  4  5  1  0  0  0  0
  4 10  1  0  0  0  0
  5  6  2  0  0  0  0
  5  8  1  0  0  0  0
  6  7  1  0  0  0  0
  8  9  1  0  0  0  0
  9 10  2  0  0  0  0
M  END
>  <CHROM.1>
-3.91147460,-30.02797374,27.47366329,-1.29945340,-0.19718627,-2.14643779

>  <Name>
ligand

>  <RI>
0

>  <Rbt.Current_Directory>
/home/itssahil/PROJECTS/Mol_Feturizer/New_Systems/rnas/4LW0

>  <Rbt.Executable>
rbdock ($Id: //depot/dev/client3/rdock/2013.1/src/exe/rbdock.cxx#4 $)

>  <Rbt.Library>
libRbt.so (2013.1, Build901 2013/11/27)

>  <Rbt.Parameter_File>
/export/apps/rDock/src/rDock_2013.1_src/data/scripts/dock_solv.prm

>  <Rbt.Receptor>
prm/blind_docking_80.prm

>  <SCORE>
-13.7344

>  <SCORE.INTER>
-13.7344

>  <SCORE.INTER.CONST>
1

>  <SCORE.INTER.POLAR>
0

>  <SCORE.INTER.ROT>
0

>  <SCORE.INTER.SOLV>
6.42299

>  <SCORE.INTER.VDW>
-14.8973

>  <SCORE.INTER.norm>
-1.37344

>  <SCORE.INTRA>
0

>  <SCORE.INTRA.DIHEDRAL>
0

>  <SCORE.INTRA.DIHEDRAL.0>
0

>  <SCORE.INTRA.POLAR>
0

>  <SCORE.INTRA.POLAR.0>
0

>  <SCORE.INTRA.REPUL>
0

>  <SCORE.INTRA.REPUL.0>
0

>  <SCORE.INTRA.SOLV>
0

>  <SCORE.INTRA.SOLV.lig_0>
-23.9151

>  <SCORE.INTRA.VDW>
0

>  <SCORE.INTRA.VDW.0>
0

>  <SCORE.INTRA.norm>
0

>  <SCORE.RESTR>
0

>  <SCORE.RESTR.CAVITY>
0

>  <SCORE.RESTR.norm>
0

>  <SCORE.SYSTEM>
0

>  <SCORE.SYSTEM.CONST>
0

>  <SCORE.SYSTEM.DIHEDRAL>
0

>  <SCORE.SYSTEM.SOLV>
0

>  <SCORE.SYSTEM.norm>
0

>  <SCORE.heavy>
10

>  <SCORE.norm>
-1.37344

>  <RMSD>
11.702

$$$$
ligand
 OpenBabel11021811503D
libRbt.so/2013.1/901 2013/11/27
 10 11  0  0  0  0  0  0  0  0999 V2000
   -2.9469  -28.9497   28.8916 N   0  0  0  0  0  0  0  0  0  0  0  0
   -1.9932  -29.2955   28.0245 C   0  0  0  0  0  0  0  0  0  0  0  0
   -2.0956  -30.0166   26.9012 N   0  0  0  0  0  0  0  0  0  0  0  0
   -3.3675  -30.4174   26.7128 C   0  0  0  0  0  0  0  0  0  0  0  0
   -4.4567  -30.1424   27.5176 C   0  0  0  0  0  0  0  0  0  0  0  0
   -4.2189  -29.3633   28.6673 C   0  0  0  0  0  0  0  0  0  0  0  0
   -5.1850  -29.0310   29.5387 N   0  0  0  0  0  0  0  0  0  0  0  0
   -5.6082  -30.7125   27.0063 N   0  0  0  0  0  0  0  0  0  0  0  0
   -5.2071  -31.3080   25.9144 C   0  0  0  0  0  0  0  0  0  0  0  0
   -3.8638  -31.1779   25.6811 N   0  0  0  0  0  0  0  0  0  0  0  0
  1  2  2  0  0  0  0
  1  6  1  0  0  0  0
  2  3  1  0  0  0  0
  3  4  2  0  0  0  0
  4  5  1  0  0  0  0
  4 10  1  0  0  0  0
  5  6  2  0  0  0  0
  5  8  1  0  0  0  0
  6  7  1  0  0  0  0
  8  9  1  0  0  0  0
  9 10  2  0  0  0  0
M  END
>  <CHROM.1>
-3.89778635,-30.03652506,27.49462233,-1.25451562,-0.18053715,-2.13278858

>  <Name>
ligand

>  <RI>
0

>  <Rbt.Current_Directory>
/home/itssahil/PROJECTS/Mol_Feturizer/New_Systems/rnas/4LW0

>  <Rbt.Executable>
rbdock ($Id: //depot/dev/client3/rdock/2013.1/src/exe/rbdock.cxx#4 $)

>  <Rbt.Library>
libRbt.so (2013.1, Build901 2013/11/27)

>  <Rbt.Parameter_File>
/export/apps/rDock/src/rDock_2013.1_src/data/scripts/dock_solv.prm

>  <Rbt.Receptor>
prm/blind_docking_100.prm

>  <SCORE>
-13.8002

>  <SCORE.INTER>
-13.8414

>  <SCORE.INTER.CONST>
1

>  <SCORE.INTER.POLAR>
0

>  <SCORE.INTER.ROT>
0

>  <SCORE.INTER.SOLV>
6.49618

>  <SCORE.INTER.VDW>
-14.993

>  <SCORE.INTER.norm>
-1.38414

>  <SCORE.INTRA>
0

>  <SCORE.INTRA.DIHEDRAL>
0

>  <SCORE.INTRA.DIHEDRAL.0>
0

>  <SCORE.INTRA.POLAR>
0

>  <SCORE.INTRA.POLAR.0>
0

>  <SCORE.INTRA.REPUL>
0

>  <SCORE.INTRA.REPUL.0>
0

>  <SCORE.INTRA.SOLV>
0

>  <SCORE.INTRA.SOLV.lig_0>
-23.9151

>  <SCORE.INTRA.VDW>
0

>  <SCORE.INTRA.VDW.0>
0

>  <SCORE.INTRA.norm>
0

>  <SCORE.RESTR>
0.0411793

>  <SCORE.RESTR.CAVITY>
0.0411793

>  <SCORE.RESTR.norm>
0.00411793

>  <SCORE.SYSTEM>
0

>  <SCORE.SYSTEM.CONST>
0

>  <SCORE.SYSTEM.DIHEDRAL>
0

>  <SCORE.SYSTEM.SOLV>
0

>  <SCORE.SYSTEM.norm>
0

>  <SCORE.heavy>
10

>  <SCORE.norm>
-1.38002

>  <RMSD>
11.703

$$$$
ligand
 OpenBabel11021811503D
libRbt.so/2013.1/901 2013/11/27
 10 11  0  0  0  0  0  0  0  0999 V2000
   -3.0325  -28.9091   28.8913 N   0  0  0  0  0  0  0  0  0  0  0  0
   -2.0435  -29.2265   28.0534 C   0  0  0  0  0  0  0  0  0  0  0  0
   -2.0898  -29.9555   26.9314 N   0  0  0  0  0  0  0  0  0  0  0  0
   -3.3417  -30.3992   26.7091 C   0  0  0  0  0  0  0  0  0  0  0  0
   -4.4620  -30.1573   27.4812 C   0  0  0  0  0  0  0  0  0  0  0  0
   -4.2831  -29.3658   28.6332 C   0  0  0  0  0  0  0  0  0  0  0  0
   -5.2842  -29.0623   29.4750 N   0  0  0  0  0  0  0  0  0  0  0  0
   -5.5789  -30.7676   26.9404 N   0  0  0  0  0  0  0  0  0  0  0  0
   -5.1271  -31.3541   25.8635 C   0  0  0  0  0  0  0  0  0  0  0  0
   -3.7828  -31.1802   25.6677 N   0  0  0  0  0  0  0  0  0  0  0  0
  1  2  2  0  0  0  0
  1  6  1  0  0  0  0
  2  3  1  0  0  0  0
  3  4  2  0  0  0  0
  4  5  1  0  0  0  0
  4 10  1  0  0  0  0
  5  6  2  0  0  0  0
  5  8  1  0  0  0  0
  6  7  1  0  0  0  0
  8  9  1  0  0  0  0
  9 10  2  0  0  0  0
M  END
>  <CHROM.1>
-3.90647206,-30.03294194,27.47356130,-1.29719132,-0.19327675,-2.14543158

>  <Name>
ligand

>  <RI>
0

>  <Rbt.Current_Directory>
/home/itssahil/PROJECTS/Mol_Feturizer/New_Systems/rnas/4LW0

>  <Rbt.Executable>
rbdock ($Id: //depot/dev/client3/rdock/2013.1/src/exe/rbdock.cxx#4 $)

>  <Rbt.Library>
libRbt.so (2013.1, Build901 2013/11/27)

>  <Rbt.Parameter_File>
/export/apps/rDock/src/rDock_2013.1_src/data/scripts/dock_solv.prm

>  <Rbt.Receptor>
prm/blind_docking_80.prm

>  <SCORE>
-13.7421

>  <SCORE.INTER>
-13.7422

>  <SCORE.INTER.CONST>
1

>  <SCORE.INTER.POLAR>
0

>  <SCORE.INTER.ROT>
0

>  <SCORE.INTER.SOLV>
6.43661

>  <SCORE.INTER.VDW>
-14.907

>  <SCORE.INTER.norm>
-1.37422

>  <SCORE.INTRA>
0

>  <SCORE.INTRA.DIHEDRAL>
0

>  <SCORE.INTRA.DIHEDRAL.0>
0

>  <SCORE.INTRA.POLAR>
0

>  <SCORE.INTRA.POLAR.0>
0

>  <SCORE.INTRA.REPUL>
0

>  <SCORE.INTRA.REPUL.0>
0

>  <SCORE.INTRA.SOLV>
0

>  <SCORE.INTRA.SOLV.lig_0>
-23.9151

>  <SCORE.INTRA.VDW>
0

>  <SCORE.INTRA.VDW.0>
0

>  <SCORE.INTRA.norm>
0

>  <SCORE.RESTR>
0.00016902

>  <SCORE.RESTR.CAVITY>
0.00016902

>  <SCORE.RESTR.norm>
1.6902e-05

>  <SCORE.SYSTEM>
0

>  <SCORE.SYSTEM.CONST>
0

>  <SCORE.SYSTEM.DIHEDRAL>
0

>  <SCORE.SYSTEM.SOLV>
0

>  <SCORE.SYSTEM.norm>
0

>  <SCORE.heavy>
10

>  <SCORE.norm>
-1.37421

>  <RMSD>
11.703

$$$$
ligand
 OpenBabel11021811503D
libRbt.so/2013.1/901 2013/11/27
 10 11  0  0  0  0  0  0  0  0999 V2000
   -3.0339  -28.9075   28.8917 N   0  0  0  0  0  0  0  0  0  0  0  0
   -2.0443  -29.2252   28.0546 C   0  0  0  0  0  0  0  0  0  0  0  0
   -2.0898  -29.9545   26.9329 N   0  0  0  0  0  0  0  0  0  0  0  0
   -3.3415  -30.3985   26.7100 C   0  0  0  0  0  0  0  0  0  0  0  0
   -4.4623  -30.1564   27.4812 C   0  0  0  0  0  0  0  0  0  0  0  0
   -4.2843  -29.3645   28.6330 C   0  0  0  0  0  0  0  0  0  0  0  0
   -5.2860  -29.0607   29.4740 N   0  0  0  0  0  0  0  0  0  0  0  0
   -5.5788  -30.7671   26.9399 N   0  0  0  0  0  0  0  0  0  0  0  0
   -5.1263  -31.3539   25.8635 C   0  0  0  0  0  0  0  0  0  0  0  0
   -3.7818  -31.1799   25.6685 N   0  0  0  0  0  0  0  0  0  0  0  0
  1  2  2  0  0  0  0
  1  6  1  0  0  0  0
  2  3  1  0  0  0  0
  3  4  2  0  0  0  0
  4  5  1  0  0  0  0
  4 10  1  0  0  0  0
  5  6  2  0  0  0  0
  5  8  1  0  0  0  0
  6  7  1  0  0  0  0
  8  9  1  0  0  0  0
  9 10  2  0  0  0  0
M  END
>  <CHROM.1>
-3.90681419,-30.03199389,27.47387081,-1.29780660,-0.19301280,-2.14594311

>  <Name>
ligand

>  <RI>
0

>  <Rbt.Current_Directory>
/home/itssahil/PROJECTS/Mol_Feturizer/New_Systems/rnas/4LW0

>  <Rbt.Executable>
rbdock ($Id: //depot/dev/client3/rdock/2013.1/src/exe/rbdock.cxx#4 $)

>  <Rbt.Library>
libRbt.so (2013.1, Build901 2013/11/27)

>  <Rbt.Parameter_File>
/export/apps/rDock/src/rDock_2013.1_src/data/scripts/dock_solv.prm

>  <Rbt.Receptor>
prm/blind_docking_80.prm

>  <SCORE>
-13.7415

>  <SCORE.INTER>
-13.7415

>  <SCORE.INTER.CONST>
1

>  <SCORE.INTER.POLAR>
0

>  <SCORE.INTER.ROT>
0

>  <SCORE.INTER.SOLV>
6.43528

>  <SCORE.INTER.VDW>
-14.9061

>  <SCORE.INTER.norm>
-1.37415

>  <SCORE.INTRA>
0

>  <SCORE.INTRA.DIHEDRAL>
0

>  <SCORE.INTRA.DIHEDRAL.0>
0

>  <SCORE.INTRA.POLAR>
0

>  <SCORE.INTRA.POLAR.0>
0

>  <SCORE.INTRA.REPUL>
0

>  <SCORE.INTRA.REPUL.0>
0

>  <SCORE.INTRA.SOLV>
0

>  <SCORE.INTRA.SOLV.lig_0>
-23.9151

>  <SCORE.INTRA.VDW>
0

>  <SCORE.INTRA.VDW.0>
0

>  <SCORE.INTRA.norm>
0

>  <SCORE.RESTR>
0

>  <SCORE.RESTR.CAVITY>
0

>  <SCORE.RESTR.norm>
0

>  <SCORE.SYSTEM>
0

>  <SCORE.SYSTEM.CONST>
0

>  <SCORE.SYSTEM.DIHEDRAL>
0

>  <SCORE.SYSTEM.SOLV>
0

>  <SCORE.SYSTEM.norm>
0

>  <SCORE.heavy>
10

>  <SCORE.norm>
-1.37415

>  <RMSD>
11.703

$$$$
ligand
 OpenBabel11021811503D
libRbt.so/2013.1/901 2013/11/27
 10 11  0  0  0  0  0  0  0  0999 V2000
   -3.0364  -28.9035   28.8930 N   0  0  0  0  0  0  0  0  0  0  0  0
   -2.0464  -29.2221   28.0567 C   0  0  0  0  0  0  0  0  0  0  0  0
   -2.0913  -29.9531   26.9360 N   0  0  0  0  0  0  0  0  0  0  0  0
   -3.3428  -30.3979   26.7133 C   0  0  0  0  0  0  0  0  0  0  0  0
   -4.4639  -30.1550   27.4839 C   0  0  0  0  0  0  0  0  0  0  0  0
   -4.2865  -29.3614   28.6345 C   0  0  0  0  0  0  0  0  0  0  0  0
   -5.2885  -29.0567   29.4749 N   0  0  0  0  0  0  0  0  0  0  0  0
   -5.5800  -30.7669   26.9431 N   0  0  0  0  0  0  0  0  0  0  0  0
   -5.1270  -31.3551   25.8677 C   0  0  0  0  0  0  0  0  0  0  0  0
   -3.7825  -31.1810   25.6729 N   0  0  0  0  0  0  0  0  0  0  0  0
  1  2  2  0  0  0  0
  1  6  1  0  0  0  0
  2  3  1  0  0  0  0
  3  4  2  0  0  0  0
  4  5  1  0  0  0  0
  4 10  1  0  0  0  0
  5  6  2  0  0  0  0
  5  8  1  0  0  0  0
  6  7  1  0  0  0  0
  8  9  1  0  0  0  0
  9 10  2  0  0  0  0
M  END
>  <CHROM.1>
-3.90845580,-30.03043233,27.47651278,-1.29825861,-0.19314703,-2.14748483

>  <Name>
ligand

>  <RI>
0

>  <Rbt.Current_Directory>
/home/itssahil/PROJECTS/Mol_Feturizer/New_Systems/rnas/4LW0

>  <Rbt.Executable>
rbdock ($Id: //depot/dev/client3/rdock/2013.1/src/exe/rbdock.cxx#4 $)

>  <Rbt.Library>
libRbt.so (2013.1, Build901 2013/11/27)

>  <Rbt.Parameter_File>
/export/apps/rDock/src/rDock_2013.1_src/data/scripts/dock_solv.prm

>  <Rbt.Receptor>
prm/blind_docking_80.prm

>  <SCORE>
-13.7369

>  <SCORE.INTER>
-13.7369

>  <SCORE.INTER.CONST>
1

>  <SCORE.INTER.POLAR>
0

>  <SCORE.INTER.ROT>
0

>  <SCORE.INTER.SOLV>
6.43197

>  <SCORE.INTER.VDW>
-14.9019

>  <SCORE.INTER.norm>
-1.37369

>  <SCORE.INTRA>
0

>  <SCORE.INTRA.DIHEDRAL>
0

>  <SCORE.INTRA.DIHEDRAL.0>
0

>  <SCORE.INTRA.POLAR>
0

>  <SCORE.INTRA.POLAR.0>
0

>  <SCORE.INTRA.REPUL>
0

>  <SCORE.INTRA.REPUL.0>
0

>  <SCORE.INTRA.SOLV>
0

>  <SCORE.INTRA.SOLV.lig_0>
-23.9151

>  <SCORE.INTRA.VDW>
0

>  <SCORE.INTRA.VDW.0>
0

>  <SCORE.INTRA.norm>
0

>  <SCORE.RESTR>
0

>  <SCORE.RESTR.CAVITY>
0

>  <SCORE.RESTR.norm>
0

>  <SCORE.SYSTEM>
0

>  <SCORE.SYSTEM.CONST>
0

>  <SCORE.SYSTEM.DIHEDRAL>
0

>  <SCORE.SYSTEM.SOLV>
0

>  <SCORE.SYSTEM.norm>
0

>  <SCORE.heavy>
10

>  <SCORE.norm>
-1.37369

>  <RMSD>
11.703

$$$$
ligand
 OpenBabel11021811503D
libRbt.so/2013.1/901 2013/11/27
 10 11  0  0  0  0  0  0  0  0999 V2000
   -3.0352  -28.9057   28.8913 N   0  0  0  0  0  0  0  0  0  0  0  0
   -2.0448  -29.2253   28.0559 C   0  0  0  0  0  0  0  0  0  0  0  0
   -2.0893  -29.9566   26.9354 N   0  0  0  0  0  0  0  0  0  0  0  0
   -3.3410  -30.4004   26.7118 C   0  0  0  0  0  0  0  0  0  0  0  0
   -4.4626  -30.1564   27.4814 C   0  0  0  0  0  0  0  0  0  0  0  0
   -4.2855  -29.3625   28.6319 C   0  0  0  0  0  0  0  0  0  0  0  0
   -5.2880  -29.0568   29.4713 N   0  0  0  0  0  0  0  0  0  0  0  0
   -5.5788  -30.7675   26.9399 N   0  0  0  0  0  0  0  0  0  0  0  0
   -5.1253  -31.3564   25.8650 C   0  0  0  0  0  0  0  0  0  0  0  0
   -3.7806  -31.1834   25.6713 N   0  0  0  0  0  0  0  0  0  0  0  0
  1  2  2  0  0  0  0
  1  6  1  0  0  0  0
  2  3  1  0  0  0  0
  3  4  2  0  0  0  0
  4  5  1  0  0  0  0
  4 10  1  0  0  0  0
  5  6  2  0  0  0  0
  5  8  1  0  0  0  0
  6  7  1  0  0  0  0
  8  9  1  0  0  0  0
  9 10  2  0  0  0  0
M  END
>  <CHROM.1>
-3.90704023,-30.03225673,27.47443010,-1.29850988,-0.19199666,-2.14782753

>  <Name>
ligand

>  <RI>
0

>  <Rbt.Current_Directory>
/home/itssahil/PROJECTS/Mol_Feturizer/New_Systems/rnas/4LW0

>  <Rbt.Executable>
rbdock ($Id: //depot/dev/client3/rdock/2013.1/src/exe/rbdock.cxx#4 $)

>  <Rbt.Library>
libRbt.so (2013.1, Build901 2013/11/27)

>  <Rbt.Parameter_File>
/export/apps/rDock/src/rDock_2013.1_src/data/scripts/dock_solv.prm

>  <Rbt.Receptor>
prm/blind_docking_80.prm

>  <SCORE>
-13.7397

>  <SCORE.INTER>
-13.7397

>  <SCORE.INTER.CONST>
1

>  <SCORE.INTER.POLAR>
0

>  <SCORE.INTER.ROT>
0

>  <SCORE.INTER.SOLV>
6.43593

>  <SCORE.INTER.VDW>
-14.9051

>  <SCORE.INTER.norm>
-1.37397

>  <SCORE.INTRA>
0

>  <SCORE.INTRA.DIHEDRAL>
0

>  <SCORE.INTRA.DIHEDRAL.0>
0

>  <SCORE.INTRA.POLAR>
0

>  <SCORE.INTRA.POLAR.0>
0

>  <SCORE.INTRA.REPUL>
0

>  <SCORE.INTRA.REPUL.0>
0

>  <SCORE.INTRA.SOLV>
0

>  <SCORE.INTRA.SOLV.lig_0>
-23.9151

>  <SCORE.INTRA.VDW>
0

>  <SCORE.INTRA.VDW.0>
0

>  <SCORE.INTRA.norm>
0

>  <SCORE.RESTR>
0

>  <SCORE.RESTR.CAVITY>
0

>  <SCORE.RESTR.norm>
0

>  <SCORE.SYSTEM>
0

>  <SCORE.SYSTEM.CONST>
0

>  <SCORE.SYSTEM.DIHEDRAL>
0

>  <SCORE.SYSTEM.SOLV>
0

>  <SCORE.SYSTEM.norm>
0

>  <SCORE.heavy>
10

>  <SCORE.norm>
-1.37397

>  <RMSD>
11.703

$$$$
ligand
 OpenBabel11021811503D
libRbt.so/2013.1/901 2013/11/27
 10 11  0  0  0  0  0  0  0  0999 V2000
   -3.0563  -28.9318   28.9478 N   0  0  0  0  0  0  0  0  0  0  0  0
   -2.0675  -29.2128   28.0967 C   0  0  0  0  0  0  0  0  0  0  0  0
   -2.1116  -29.9044   26.9513 N   0  0  0  0  0  0  0  0  0  0  0  0
   -3.3605  -30.3511   26.7182 C   0  0  0  0  0  0  0  0  0  0  0  0
   -4.4801  -30.1444   27.5014 C   0  0  0  0  0  0  0  0  0  0  0  0
   -4.3040  -29.3902   28.6785 C   0  0  0  0  0  0  0  0  0  0  0  0
   -5.3047  -29.1233   29.5332 N   0  0  0  0  0  0  0  0  0  0  0  0
   -5.5937  -30.7458   26.9441 N   0  0  0  0  0  0  0  0  0  0  0  0
   -5.1408  -31.2924   25.8468 C   0  0  0  0  0  0  0  0  0  0  0  0
   -3.7986  -31.1007   25.6528 N   0  0  0  0  0  0  0  0  0  0  0  0
  1  2  2  0  0  0  0
  1  6  1  0  0  0  0
  2  3  1  0  0  0  0
  3  4  2  0  0  0  0
  4  5  1  0  0  0  0
  4 10  1  0  0  0  0
  5  6  2  0  0  0  0
  5  8  1  0  0  0  0
  6  7  1  0  0  0  0
  8  9  1  0  0  0  0
  9 10  2  0  0  0  0
M  END
>  <CHROM.1>
-3.92572241,-30.01520300,27.49619273,-1.29889243,-0.20213013,-2.11248104

>  <Name>
ligand

>  <RI>
0

>  <Rbt.Current_Directory>
/home/itssahil/PROJECTS/Mol_Feturizer/New_Systems/rnas/4LW0

>  <Rbt.Executable>
rbdock ($Id: //depot/dev/client3/rdock/2013.1/src/exe/rbdock.cxx#4 $)

>  <Rbt.Library>
libRbt.so (2013.1, Build901 2013/11/27)

>  <Rbt.Parameter_File>
/export/apps/rDock/src/rDock_2013.1_src/data/scripts/dock_solv.prm

>  <Rbt.Receptor>
prm/blind_docking_60.prm

>  <SCORE>
-13.721

>  <SCORE.INTER>
-13.7213

>  <SCORE.INTER.CONST>
1

>  <SCORE.INTER.POLAR>
0

>  <SCORE.INTER.ROT>
0

>  <SCORE.INTER.SOLV>
6.3579

>  <SCORE.INTER.VDW>
-14.8668

>  <SCORE.INTER.norm>
-1.37213

>  <SCORE.INTRA>
0

>  <SCORE.INTRA.DIHEDRAL>
0

>  <SCORE.INTRA.DIHEDRAL.0>
0

>  <SCORE.INTRA.POLAR>
0

>  <SCORE.INTRA.POLAR.0>
0

>  <SCORE.INTRA.REPUL>
0

>  <SCORE.INTRA.REPUL.0>
0

>  <SCORE.INTRA.SOLV>
0

>  <SCORE.INTRA.SOLV.lig_0>
-23.9151

>  <SCORE.INTRA.VDW>
0

>  <SCORE.INTRA.VDW.0>
0

>  <SCORE.INTRA.norm>
0

>  <SCORE.RESTR>
0.000248912

>  <SCORE.RESTR.CAVITY>
0.000248912

>  <SCORE.RESTR.norm>
2.48912e-05

>  <SCORE.SYSTEM>
0

>  <SCORE.SYSTEM.CONST>
0

>  <SCORE.SYSTEM.DIHEDRAL>
0

>  <SCORE.SYSTEM.SOLV>
0

>  <SCORE.SYSTEM.norm>
0

>  <SCORE.heavy>
10

>  <SCORE.norm>
-1.3721

>  <RMSD>
11.704

$$$$
ligand
 OpenBabel11021811503D
libRbt.so/2013.1/901 2013/11/27
 10 11  0  0  0  0  0  0  0  0999 V2000
   -3.0441  -28.9532   28.9683 N   0  0  0  0  0  0  0  0  0  0  0  0
   -2.0522  -29.2355   28.1212 C   0  0  0  0  0  0  0  0  0  0  0  0
   -2.0938  -29.9209   26.9719 N   0  0  0  0  0  0  0  0  0  0  0  0
   -3.3439  -30.3593   26.7297 C   0  0  0  0  0  0  0  0  0  0  0  0
   -4.4667  -30.1503   27.5078 C   0  0  0  0  0  0  0  0  0  0  0  0
   -4.2928  -29.4033   28.6898 C   0  0  0  0  0  0  0  0  0  0  0  0
   -5.2967  -29.1351   29.5403 N   0  0  0  0  0  0  0  0  0  0  0  0
   -5.5806  -30.7426   26.9413 N   0  0  0  0  0  0  0  0  0  0  0  0
   -5.1247  -31.2860   25.8437 C   0  0  0  0  0  0  0  0  0  0  0  0
   -3.7804  -31.1009   25.6580 N   0  0  0  0  0  0  0  0  0  0  0  0
  1  2  2  0  0  0  0
  1  6  1  0  0  0  0
  2  3  1  0  0  0  0
  3  4  2  0  0  0  0
  4  5  1  0  0  0  0
  4 10  1  0  0  0  0
  5  6  2  0  0  0  0
  5  8  1  0  0  0  0
  6  7  1  0  0  0  0
  8  9  1  0  0  0  0
  9 10  2  0  0  0  0
M  END
>  <CHROM.1>
-3.91153105,-30.02425950,27.50631330,-1.30075156,-0.19445486,-2.10768208

>  <Name>
ligand

>  <RI>
0

>  <Rbt.Current_Directory>
/home/itssahil/PROJECTS/Mol_Feturizer/New_Systems/rnas/4LW0

>  <Rbt.Executable>
rbdock ($Id: //depot/dev/client3/rdock/2013.1/src/exe/rbdock.cxx#4 $)

>  <Rbt.Library>
libRbt.so (2013.1, Build901 2013/11/27)

>  <Rbt.Parameter_File>
/export/apps/rDock/src/rDock_2013.1_src/data/scripts/dock_solv.prm

>  <Rbt.Receptor>
prm/blind_docking_60.prm

>  <SCORE>
-13.7208

>  <SCORE.INTER>
-13.7208

>  <SCORE.INTER.CONST>
1

>  <SCORE.INTER.POLAR>
0

>  <SCORE.INTER.ROT>
0

>  <SCORE.INTER.SOLV>
6.37322

>  <SCORE.INTER.VDW>
-14.8716

>  <SCORE.INTER.norm>
-1.37208

>  <SCORE.INTRA>
0

>  <SCORE.INTRA.DIHEDRAL>
0

>  <SCORE.INTRA.DIHEDRAL.0>
0

>  <SCORE.INTRA.POLAR>
0

>  <SCORE.INTRA.POLAR.0>
0

>  <SCORE.INTRA.REPUL>
0

>  <SCORE.INTRA.REPUL.0>
0

>  <SCORE.INTRA.SOLV>
0

>  <SCORE.INTRA.SOLV.lig_0>
-23.9151

>  <SCORE.INTRA.VDW>
0

>  <SCORE.INTRA.VDW.0>
0

>  <SCORE.INTRA.norm>
0

>  <SCORE.RESTR>
0

>  <SCORE.RESTR.CAVITY>
0

>  <SCORE.RESTR.norm>
0

>  <SCORE.SYSTEM>
0

>  <SCORE.SYSTEM.CONST>
0

>  <SCORE.SYSTEM.DIHEDRAL>
0

>  <SCORE.SYSTEM.SOLV>
0

>  <SCORE.SYSTEM.norm>
0

>  <SCORE.heavy>
10

>  <SCORE.norm>
-1.37208

>  <RMSD>
11.706

$$$$
ligand
 OpenBabel11021811503D
libRbt.so/2013.1/901 2013/11/27
 10 11  0  0  0  0  0  0  0  0999 V2000
   -3.0357  -28.9610   28.9655 N   0  0  0  0  0  0  0  0  0  0  0  0
   -2.0444  -29.2432   28.1177 C   0  0  0  0  0  0  0  0  0  0  0  0
   -2.0871  -29.9271   26.9676 N   0  0  0  0  0  0  0  0  0  0  0  0
   -3.3377  -30.3640   26.7253 C   0  0  0  0  0  0  0  0  0  0  0  0
   -4.4600  -30.1549   27.5041 C   0  0  0  0  0  0  0  0  0  0  0  0
   -4.2849  -29.4094   28.6869 C   0  0  0  0  0  0  0  0  0  0  0  0
   -5.2882  -29.1413   29.5381 N   0  0  0  0  0  0  0  0  0  0  0  0
   -5.5746  -30.7453   26.9372 N   0  0  0  0  0  0  0  0  0  0  0  0
   -5.1197  -31.2878   25.8387 C   0  0  0  0  0  0  0  0  0  0  0  0
   -3.7753  -31.1038   25.6528 N   0  0  0  0  0  0  0  0  0  0  0  0
  1  2  2  0  0  0  0
  1  6  1  0  0  0  0
  2  3  1  0  0  0  0
  3  4  2  0  0  0  0
  4  5  1  0  0  0  0
  4 10  1  0  0  0  0
  5  6  2  0  0  0  0
  5  8  1  0  0  0  0
  6  7  1  0  0  0  0
  8  9  1  0  0  0  0
  9 10  2  0  0  0  0
M  END
>  <CHROM.1>
-3.90468962,-30.02931196,27.50250177,-1.29992939,-0.19378543,-2.10626863

>  <Name>
ligand

>  <RI>
0

>  <Rbt.Current_Directory>
/home/itssahil/PROJECTS/Mol_Feturizer/New_Systems/rnas/4LW0

>  <Rbt.Executable>
rbdock ($Id: //depot/dev/client3/rdock/2013.1/src/exe/rbdock.cxx#4 $)

>  <Rbt.Library>
libRbt.so (2013.1, Build901 2013/11/27)

>  <Rbt.Parameter_File>
/export/apps/rDock/src/rDock_2013.1_src/data/scripts/dock_solv.prm

>  <Rbt.Receptor>
prm/blind_docking_80.prm

>  <SCORE>
-13.7196

>  <SCORE.INTER>
-13.7196

>  <SCORE.INTER.CONST>
1

>  <SCORE.INTER.POLAR>
0

>  <SCORE.INTER.ROT>
0

>  <SCORE.INTER.SOLV>
6.38572

>  <SCORE.INTER.VDW>
-14.875

>  <SCORE.INTER.norm>
-1.37196

>  <SCORE.INTRA>
0

>  <SCORE.INTRA.DIHEDRAL>
0

>  <SCORE.INTRA.DIHEDRAL.0>
0

>  <SCORE.INTRA.POLAR>
0

>  <SCORE.INTRA.POLAR.0>
0

>  <SCORE.INTRA.REPUL>
0

>  <SCORE.INTRA.REPUL.0>
0

>  <SCORE.INTRA.SOLV>
0

>  <SCORE.INTRA.SOLV.lig_0>
-23.9151

>  <SCORE.INTRA.VDW>
0

>  <SCORE.INTRA.VDW.0>
0

>  <SCORE.INTRA.norm>
0

>  <SCORE.RESTR>
0

>  <SCORE.RESTR.CAVITY>
0

>  <SCORE.RESTR.norm>
0

>  <SCORE.SYSTEM>
0

>  <SCORE.SYSTEM.CONST>
0

>  <SCORE.SYSTEM.DIHEDRAL>
0

>  <SCORE.SYSTEM.SOLV>
0

>  <SCORE.SYSTEM.norm>
0

>  <SCORE.heavy>
10

>  <SCORE.norm>
-1.37196

>  <RMSD>
11.706

$$$$
ligand
 OpenBabel11021811503D
libRbt.so/2013.1/901 2013/11/27
 10 11  0  0  0  0  0  0  0  0999 V2000
   -3.0311  -28.9611   28.9802 N   0  0  0  0  0  0  0  0  0  0  0  0
   -2.0447  -29.2372   28.1247 C   0  0  0  0  0  0  0  0  0  0  0  0
   -2.0930  -29.9171   26.9724 N   0  0  0  0  0  0  0  0  0  0  0  0
   -3.3439  -30.3570   26.7370 C   0  0  0  0  0  0  0  0  0  0  0  0
   -4.4615  -30.1542   27.5241 C   0  0  0  0  0  0  0  0  0  0  0  0
   -4.2808  -29.4125   28.7084 C   0  0  0  0  0  0  0  0  0  0  0  0
   -5.2791  -29.1506   29.5673 N   0  0  0  0  0  0  0  0  0  0  0  0
   -5.5782  -30.7461   26.9627 N   0  0  0  0  0  0  0  0  0  0  0  0
   -5.1290  -31.2832   25.8592 C   0  0  0  0  0  0  0  0  0  0  0  0
   -3.7864  -31.0943   25.6648 N   0  0  0  0  0  0  0  0  0  0  0  0
  1  2  2  0  0  0  0
  1  6  1  0  0  0  0
  2  3  1  0  0  0  0
  3  4  2  0  0  0  0
  4  5  1  0  0  0  0
  4 10  1  0  0  0  0
  5  6  2  0  0  0  0
  5  8  1  0  0  0  0
  6  7  1  0  0  0  0
  8  9  1  0  0  0  0
  9 10  2  0  0  0  0
M  END
>  <CHROM.1>
-3.90667390,-30.02692521,27.51924573,-1.29560042,-0.19992406,-2.10182939

>  <Name>
ligand

>  <RI>
0

>  <Rbt.Current_Directory>
/home/itssahil/PROJECTS/Mol_Feturizer/New_Systems/rnas/4LW0

>  <Rbt.Executable>
rbdock ($Id: //depot/dev/client3/rdock/2013.1/src/exe/rbdock.cxx#4 $)

>  <Rbt.Library>
libRbt.so (2013.1, Build901 2013/11/27)

>  <Rbt.Parameter_File>
/export/apps/rDock/src/rDock_2013.1_src/data/scripts/dock_solv.prm

>  <Rbt.Receptor>
prm/blind_docking_80.prm

>  <SCORE>
-13.7325

>  <SCORE.INTER>
-13.7325

>  <SCORE.INTER.CONST>
1

>  <SCORE.INTER.POLAR>
0

>  <SCORE.INTER.ROT>
0

>  <SCORE.INTER.SOLV>
6.37419

>  <SCORE.INTER.VDW>
-14.8797

>  <SCORE.INTER.norm>
-1.37325

>  <SCORE.INTRA>
0

>  <SCORE.INTRA.DIHEDRAL>
0

>  <SCORE.INTRA.DIHEDRAL.0>
0

>  <SCORE.INTRA.POLAR>
0

>  <SCORE.INTRA.POLAR.0>
0

>  <SCORE.INTRA.REPUL>
0

>  <SCORE.INTRA.REPUL.0>
0

>  <SCORE.INTRA.SOLV>
0

>  <SCORE.INTRA.SOLV.lig_0>
-23.9151

>  <SCORE.INTRA.VDW>
0

>  <SCORE.INTRA.VDW.0>
0

>  <SCORE.INTRA.norm>
0

>  <SCORE.RESTR>
0

>  <SCORE.RESTR.CAVITY>
0

>  <SCORE.RESTR.norm>
0

>  <SCORE.SYSTEM>
0

>  <SCORE.SYSTEM.CONST>
0

>  <SCORE.SYSTEM.DIHEDRAL>
0

>  <SCORE.SYSTEM.SOLV>
0

>  <SCORE.SYSTEM.norm>
0

>  <SCORE.heavy>
10

>  <SCORE.norm>
-1.37325

>  <RMSD>
11.707

$$$$
ligand
 OpenBabel11021811503D
libRbt.so/2013.1/901 2013/11/27
 10 11  0  0  0  0  0  0  0  0999 V2000
   -2.9971  -28.9775   28.9465 N   0  0  0  0  0  0  0  0  0  0  0  0
   -2.0149  -29.2904   28.0989 C   0  0  0  0  0  0  0  0  0  0  0  0
   -2.0761  -29.9859   26.9566 N   0  0  0  0  0  0  0  0  0  0  0  0
   -3.3367  -30.3984   26.7230 C   0  0  0  0  0  0  0  0  0  0  0  0
   -4.4516  -30.1566   27.5029 C   0  0  0  0  0  0  0  0  0  0  0  0
   -4.2566  -29.4020   28.6768 C   0  0  0  0  0  0  0  0  0  0  0  0
   -5.2511  -29.1030   29.5280 N   0  0  0  0  0  0  0  0  0  0  0  0
   -5.5806  -30.7291   26.9461 N   0  0  0  0  0  0  0  0  0  0  0  0
   -5.1410  -31.2933   25.8523 C   0  0  0  0  0  0  0  0  0  0  0  0
   -3.7936  -31.1404   25.6602 N   0  0  0  0  0  0  0  0  0  0  0  0
  1  2  2  0  0  0  0
  1  6  1  0  0  0  0
  2  3  1  0  0  0  0
  3  4  2  0  0  0  0
  4  5  1  0  0  0  0
  4 10  1  0  0  0  0
  5  6  2  0  0  0  0
  5  8  1  0  0  0  0
  6  7  1  0  0  0  0
  8  9  1  0  0  0  0
  9 10  2  0  0  0  0
M  END
>  <CHROM.1>
-3.89375550,-30.04302047,27.49821819,-1.28587366,-0.17699259,-2.11477033

>  <Name>
ligand

>  <RI>
0

>  <Rbt.Current_Directory>
/home/itssahil/PROJECTS/Mol_Feturizer/New_Systems/rnas/4LW0

>  <Rbt.Executable>
rbdock ($Id: //depot/dev/client3/rdock/2013.1/src/exe/rbdock.cxx#4 $)

>  <Rbt.Library>
libRbt.so (2013.1, Build901 2013/11/27)

>  <Rbt.Parameter_File>
/export/apps/rDock/src/rDock_2013.1_src/data/scripts/dock_solv.prm

>  <Rbt.Receptor>
prm/blind_docking_60.prm

>  <SCORE>
-13.6591

>  <SCORE.INTER>
-13.6591

>  <SCORE.INTER.CONST>
1

>  <SCORE.INTER.POLAR>
0

>  <SCORE.INTER.ROT>
0

>  <SCORE.INTER.SOLV>
6.44933

>  <SCORE.INTER.VDW>
-14.8559

>  <SCORE.INTER.norm>
-1.36591

>  <SCORE.INTRA>
0

>  <SCORE.INTRA.DIHEDRAL>
0

>  <SCORE.INTRA.DIHEDRAL.0>
0

>  <SCORE.INTRA.POLAR>
0

>  <SCORE.INTRA.POLAR.0>
0

>  <SCORE.INTRA.REPUL>
0

>  <SCORE.INTRA.REPUL.0>
0

>  <SCORE.INTRA.SOLV>
0

>  <SCORE.INTRA.SOLV.lig_0>
-23.9151

>  <SCORE.INTRA.VDW>
0

>  <SCORE.INTRA.VDW.0>
0

>  <SCORE.INTRA.norm>
0

>  <SCORE.RESTR>
0

>  <SCORE.RESTR.CAVITY>
0

>  <SCORE.RESTR.norm>
0

>  <SCORE.SYSTEM>
0

>  <SCORE.SYSTEM.CONST>
0

>  <SCORE.SYSTEM.DIHEDRAL>
0

>  <SCORE.SYSTEM.SOLV>
0

>  <SCORE.SYSTEM.norm>
0

>  <SCORE.heavy>
10

>  <SCORE.norm>
-1.36591

>  <RMSD>
11.709

$$$$
ligand
 OpenBabel11021811503D
libRbt.so/2013.1/901 2013/11/27
 10 11  0  0  0  0  0  0  0  0999 V2000
   -3.0537  -28.9561   28.9755 N   0  0  0  0  0  0  0  0  0  0  0  0
   -2.0600  -29.2327   28.1287 C   0  0  0  0  0  0  0  0  0  0  0  0
   -2.0981  -29.9151   26.9775 N   0  0  0  0  0  0  0  0  0  0  0  0
   -3.3465  -30.3571   26.7329 C   0  0  0  0  0  0  0  0  0  0  0  0
   -4.4707  -30.1541   27.5104 C   0  0  0  0  0  0  0  0  0  0  0  0
   -4.3006  -29.4097   28.6945 C   0  0  0  0  0  0  0  0  0  0  0  0
   -5.3062  -29.1473   29.5447 N   0  0  0  0  0  0  0  0  0  0  0  0
   -5.5820  -30.7486   26.9411 N   0  0  0  0  0  0  0  0  0  0  0  0
   -5.1231  -31.2875   25.8425 C   0  0  0  0  0  0  0  0  0  0  0  0
   -3.7793  -31.0973   25.6587 N   0  0  0  0  0  0  0  0  0  0  0  0
  1  2  2  0  0  0  0
  1  6  1  0  0  0  0
  2  3  1  0  0  0  0
  3  4  2  0  0  0  0
  4  5  1  0  0  0  0
  4 10  1  0  0  0  0
  5  6  2  0  0  0  0
  5  8  1  0  0  0  0
  6  7  1  0  0  0  0
  8  9  1  0  0  0  0
  9 10  2  0  0  0  0
M  END
>  <CHROM.1>
-3.91599943,-30.02613144,27.50977090,-1.30342229,-0.19690022,-2.10548239

>  <Name>
ligand

>  <RI>
0

>  <Rbt.Current_Directory>
/home/itssahil/PROJECTS/Mol_Feturizer/New_Systems/rnas/4LW0

>  <Rbt.Executable>
rbdock ($Id: //depot/dev/client3/rdock/2013.1/src/exe/rbdock.cxx#4 $)

>  <Rbt.Library>
libRbt.so (2013.1, Build901 2013/11/27)

>  <Rbt.Parameter_File>
/export/apps/rDock/src/rDock_2013.1_src/data/scripts/dock_solv.prm

>  <Rbt.Receptor>
prm/blind_docking_100.prm

>  <SCORE>
-13.7245

>  <SCORE.INTER>
-13.7245

>  <SCORE.INTER.CONST>
1

>  <SCORE.INTER.POLAR>
0

>  <SCORE.INTER.ROT>
0

>  <SCORE.INTER.SOLV>
6.35791

>  <SCORE.INTER.VDW>
-14.869

>  <SCORE.INTER.norm>
-1.37245

>  <SCORE.INTRA>
0

>  <SCORE.INTRA.DIHEDRAL>
0

>  <SCORE.INTRA.DIHEDRAL.0>
0

>  <SCORE.INTRA.POLAR>
0

>  <SCORE.INTRA.POLAR.0>
0

>  <SCORE.INTRA.REPUL>
0

>  <SCORE.INTRA.REPUL.0>
0

>  <SCORE.INTRA.SOLV>
0

>  <SCORE.INTRA.SOLV.lig_0>
-23.9151

>  <SCORE.INTRA.VDW>
0

>  <SCORE.INTRA.VDW.0>
0

>  <SCORE.INTRA.norm>
0

>  <SCORE.RESTR>
0

>  <SCORE.RESTR.CAVITY>
0

>  <SCORE.RESTR.norm>
0

>  <SCORE.SYSTEM>
0

>  <SCORE.SYSTEM.CONST>
0

>  <SCORE.SYSTEM.DIHEDRAL>
0

>  <SCORE.SYSTEM.SOLV>
0

>  <SCORE.SYSTEM.norm>
0

>  <SCORE.heavy>
10

>  <SCORE.norm>
-1.37245

>  <RMSD>
11.710

$$$$
ligand
 OpenBabel11021811503D
libRbt.so/2013.1/901 2013/11/27
 10 11  0  0  0  0  0  0  0  0999 V2000
   -3.0846  -28.9197   28.9772 N   0  0  0  0  0  0  0  0  0  0  0  0
   -2.0893  -29.1946   28.1316 C   0  0  0  0  0  0  0  0  0  0  0  0
   -2.1225  -29.8869   26.9863 N   0  0  0  0  0  0  0  0  0  0  0  0
   -3.3672  -30.3420   26.7467 C   0  0  0  0  0  0  0  0  0  0  0  0
   -4.4924  -30.1424   27.5236 C   0  0  0  0  0  0  0  0  0  0  0  0
   -4.3277  -29.3865   28.7013 C   0  0  0  0  0  0  0  0  0  0  0  0
   -5.3348  -29.1259   29.5503 N   0  0  0  0  0  0  0  0  0  0  0  0
   -5.5990  -30.7514   26.9605 N   0  0  0  0  0  0  0  0  0  0  0  0
   -5.1364  -31.2954   25.8660 C   0  0  0  0  0  0  0  0  0  0  0  0
   -3.7945  -31.0949   25.6792 N   0  0  0  0  0  0  0  0  0  0  0  0
  1  2  2  0  0  0  0
  1  6  1  0  0  0  0
  2  3  1  0  0  0  0
  3  4  2  0  0  0  0
  4  5  1  0  0  0  0
  4 10  1  0  0  0  0
  5  6  2  0  0  0  0
  5  8  1  0  0  0  0
  6  7  1  0  0  0  0
  8  9  1  0  0  0  0
  9 10  2  0  0  0  0
M  END
>  <CHROM.1>
-3.93885266,-30.00950658,27.52136304,-1.30715370,-0.20497948,-2.11462343

>  <Name>
ligand

>  <RI>
0

>  <Rbt.Current_Directory>
/home/itssahil/PROJECTS/Mol_Feturizer/New_Systems/rnas/4LW0

>  <Rbt.Executable>
rbdock ($Id: //depot/dev/client3/rdock/2013.1/src/exe/rbdock.cxx#4 $)

>  <Rbt.Library>
libRbt.so (2013.1, Build901 2013/11/27)

>  <Rbt.Parameter_File>
/export/apps/rDock/src/rDock_2013.1_src/data/scripts/dock_solv.prm

>  <Rbt.Receptor>
prm/blind_docking_60.prm

>  <SCORE>
-13.6661

>  <SCORE.INTER>
-13.6661

>  <SCORE.INTER.CONST>
1

>  <SCORE.INTER.POLAR>
0

>  <SCORE.INTER.ROT>
0

>  <SCORE.INTER.SOLV>
6.31088

>  <SCORE.INTER.VDW>
-14.8144

>  <SCORE.INTER.norm>
-1.36661

>  <SCORE.INTRA>
0

>  <SCORE.INTRA.DIHEDRAL>
0

>  <SCORE.INTRA.DIHEDRAL.0>
0

>  <SCORE.INTRA.POLAR>
0

>  <SCORE.INTRA.POLAR.0>
0

>  <SCORE.INTRA.REPUL>
0

>  <SCORE.INTRA.REPUL.0>
0

>  <SCORE.INTRA.SOLV>
0

>  <SCORE.INTRA.SOLV.lig_0>
-23.9151

>  <SCORE.INTRA.VDW>
0

>  <SCORE.INTRA.VDW.0>
0

>  <SCORE.INTRA.norm>
0

>  <SCORE.RESTR>
0

>  <SCORE.RESTR.CAVITY>
0

>  <SCORE.RESTR.norm>
0

>  <SCORE.SYSTEM>
0

>  <SCORE.SYSTEM.CONST>
0

>  <SCORE.SYSTEM.DIHEDRAL>
0

>  <SCORE.SYSTEM.SOLV>
0

>  <SCORE.SYSTEM.norm>
0

>  <SCORE.heavy>
10

>  <SCORE.norm>
-1.36661

>  <RMSD>
11.710

$$$$
ligand
 OpenBabel11021811503D
libRbt.so/2013.1/901 2013/11/27
 10 11  0  0  0  0  0  0  0  0999 V2000
   -3.0478  -28.9582   28.9771 N   0  0  0  0  0  0  0  0  0  0  0  0
   -2.0585  -29.2327   28.1244 C   0  0  0  0  0  0  0  0  0  0  0  0
   -2.1026  -29.9124   26.9719 N   0  0  0  0  0  0  0  0  0  0  0  0
   -3.3522  -30.3540   26.7328 C   0  0  0  0  0  0  0  0  0  0  0  0
   -4.4724  -30.1529   27.5167 C   0  0  0  0  0  0  0  0  0  0  0  0
   -4.2961  -29.4112   28.7017 C   0  0  0  0  0  0  0  0  0  0  0  0
   -5.2973  -29.1509   29.5577 N   0  0  0  0  0  0  0  0  0  0  0  0
   -5.5866  -30.7462   26.9519 N   0  0  0  0  0  0  0  0  0  0  0  0
   -5.1335  -31.2825   25.8497 C   0  0  0  0  0  0  0  0  0  0  0  0
   -3.7906  -31.0918   25.6592 N   0  0  0  0  0  0  0  0  0  0  0  0
  1  2  2  0  0  0  0
  1  6  1  0  0  0  0
  2  3  1  0  0  0  0
  3  4  2  0  0  0  0
  4  5  1  0  0  0  0
  4 10  1  0  0  0  0
  5  6  2  0  0  0  0
  5  8  1  0  0  0  0
  6  7  1  0  0  0  0
  8  9  1  0  0  0  0
  9 10  2  0  0  0  0
M  END
>  <CHROM.1>
-3.91768847,-30.02487260,27.51345612,-1.29885090,-0.19965554,-2.10227616

>  <Name>
ligand

>  <RI>
0

>  <Rbt.Current_Directory>
/home/itssahil/PROJECTS/Mol_Feturizer/New_Systems/rnas/4LW0

>  <Rbt.Executable>
rbdock ($Id: //depot/dev/client3/rdock/2013.1/src/exe/rbdock.cxx#4 $)

>  <Rbt.Library>
libRbt.so (2013.1, Build901 2013/11/27)

>  <Rbt.Parameter_File>
/export/apps/rDock/src/rDock_2013.1_src/data/scripts/dock_solv.prm

>  <Rbt.Receptor>
prm/blind_docking_60.prm

>  <SCORE>
-13.7178

>  <SCORE.INTER>
-13.7178

>  <SCORE.INTER.CONST>
1

>  <SCORE.INTER.POLAR>
0

>  <SCORE.INTER.ROT>
0

>  <SCORE.INTER.SOLV>
6.3565

>  <SCORE.INTER.VDW>
-14.864

>  <SCORE.INTER.norm>
-1.37178

>  <SCORE.INTRA>
0

>  <SCORE.INTRA.DIHEDRAL>
0

>  <SCORE.INTRA.DIHEDRAL.0>
0

>  <SCORE.INTRA.POLAR>
0

>  <SCORE.INTRA.POLAR.0>
0

>  <SCORE.INTRA.REPUL>
0

>  <SCORE.INTRA.REPUL.0>
0

>  <SCORE.INTRA.SOLV>
0

>  <SCORE.INTRA.SOLV.lig_0>
-23.9151

>  <SCORE.INTRA.VDW>
0

>  <SCORE.INTRA.VDW.0>
0

>  <SCORE.INTRA.norm>
0

>  <SCORE.RESTR>
0

>  <SCORE.RESTR.CAVITY>
0

>  <SCORE.RESTR.norm>
0

>  <SCORE.SYSTEM>
0

>  <SCORE.SYSTEM.CONST>
0

>  <SCORE.SYSTEM.DIHEDRAL>
0

>  <SCORE.SYSTEM.SOLV>
0

>  <SCORE.SYSTEM.norm>
0

>  <SCORE.heavy>
10

>  <SCORE.norm>
-1.37178

>  <RMSD>
11.710

$$$$
ligand
 OpenBabel11021811503D
libRbt.so/2013.1/901 2013/11/27
 10 11  0  0  0  0  0  0  0  0999 V2000
   -2.9823  -28.9977   28.9533 N   0  0  0  0  0  0  0  0  0  0  0  0
   -2.0030  -29.3160   28.1044 C   0  0  0  0  0  0  0  0  0  0  0  0
   -2.0702  -30.0075   26.9599 N   0  0  0  0  0  0  0  0  0  0  0  0
   -3.3342  -30.4089   26.7255 C   0  0  0  0  0  0  0  0  0  0  0  0
   -4.4468  -30.1604   27.5065 C   0  0  0  0  0  0  0  0  0  0  0  0
   -4.2454  -29.4111   28.6826 C   0  0  0  0  0  0  0  0  0  0  0  0
   -5.2371  -29.1066   29.5351 N   0  0  0  0  0  0  0  0  0  0  0  0
   -5.5806  -30.7220   26.9483 N   0  0  0  0  0  0  0  0  0  0  0  0
   -5.1460  -31.2865   25.8527 C   0  0  0  0  0  0  0  0  0  0  0  0
   -3.7975  -31.1440   25.6606 N   0  0  0  0  0  0  0  0  0  0  0  0
  1  2  2  0  0  0  0
  1  6  1  0  0  0  0
  2  3  1  0  0  0  0
  3  4  2  0  0  0  0
  4  5  1  0  0  0  0
  4 10  1  0  0  0  0
  5  6  2  0  0  0  0
  5  8  1  0  0  0  0
  6  7  1  0  0  0  0
  8  9  1  0  0  0  0
  9 10  2  0  0  0  0
M  END
>  <CHROM.1>
-3.88809658,-30.05141542,27.50198220,-1.28132802,-0.17014669,-2.11092578

>  <Name>
ligand

>  <RI>
0

>  <Rbt.Current_Directory>
/home/itssahil/PROJECTS/Mol_Feturizer/New_Systems/rnas/4LW0

>  <Rbt.Executable>
rbdock ($Id: //depot/dev/client3/rdock/2013.1/src/exe/rbdock.cxx#4 $)

>  <Rbt.Library>
libRbt.so (2013.1, Build901 2013/11/27)

>  <Rbt.Parameter_File>
/export/apps/rDock/src/rDock_2013.1_src/data/scripts/dock_solv.prm

>  <Rbt.Receptor>
prm/blind_docking_80.prm

>  <SCORE>
-13.751

>  <SCORE.INTER>
-13.753

>  <SCORE.INTER.CONST>
1

>  <SCORE.INTER.POLAR>
0

>  <SCORE.INTER.ROT>
0

>  <SCORE.INTER.SOLV>
6.46736

>  <SCORE.INTER.VDW>
-14.9245

>  <SCORE.INTER.norm>
-1.3753

>  <SCORE.INTRA>
0

>  <SCORE.INTRA.DIHEDRAL>
0

>  <SCORE.INTRA.DIHEDRAL.0>
0

>  <SCORE.INTRA.POLAR>
0

>  <SCORE.INTRA.POLAR.0>
0

>  <SCORE.INTRA.REPUL>
0

>  <SCORE.INTRA.REPUL.0>
0

>  <SCORE.INTRA.SOLV>
0

>  <SCORE.INTRA.SOLV.lig_0>
-23.9151

>  <SCORE.INTRA.VDW>
0

>  <SCORE.INTRA.VDW.0>
0

>  <SCORE.INTRA.norm>
0

>  <SCORE.RESTR>
0.00204643

>  <SCORE.RESTR.CAVITY>
0.00204643

>  <SCORE.RESTR.norm>
0.000204643

>  <SCORE.SYSTEM>
0

>  <SCORE.SYSTEM.CONST>
0

>  <SCORE.SYSTEM.DIHEDRAL>
0

>  <SCORE.SYSTEM.SOLV>
0

>  <SCORE.SYSTEM.norm>
0

>  <SCORE.heavy>
10

>  <SCORE.norm>
-1.3751

>  <RMSD>
11.714

$$$$
ligand
 OpenBabel11021811503D
libRbt.so/2013.1/901 2013/11/27
 10 11  0  0  0  0  0  0  0  0999 V2000
   -2.9936  -28.9956   28.9540 N   0  0  0  0  0  0  0  0  0  0  0  0
   -2.0107  -29.3158   28.1100 C   0  0  0  0  0  0  0  0  0  0  0  0
   -2.0734  -30.0084   26.9660 N   0  0  0  0  0  0  0  0  0  0  0  0
   -3.3366  -30.4087   26.7261 C   0  0  0  0  0  0  0  0  0  0  0  0
   -4.4527  -30.1581   27.5016 C   0  0  0  0  0  0  0  0  0  0  0  0
   -4.2558  -29.4078   28.6779 C   0  0  0  0  0  0  0  0  0  0  0  0
   -5.2512  -29.1013   29.5254 N   0  0  0  0  0  0  0  0  0  0  0  0
   -5.5845  -30.7189   26.9387 N   0  0  0  0  0  0  0  0  0  0  0  0
   -5.1454  -31.2851   25.8457 C   0  0  0  0  0  0  0  0  0  0  0  0
   -3.7958  -31.1443   25.6597 N   0  0  0  0  0  0  0  0  0  0  0  0
  1  2  2  0  0  0  0
  1  6  1  0  0  0  0
  2  3  1  0  0  0  0
  3  4  2  0  0  0  0
  4  5  1  0  0  0  0
  4 10  1  0  0  0  0
  5  6  2  0  0  0  0
  5  8  1  0  0  0  0
  6  7  1  0  0  0  0
  8  9  1  0  0  0  0
  9 10  2  0  0  0  0
M  END
>  <CHROM.1>
-3.89377345,-30.04973725,27.49958562,-1.28479010,-0.16676942,-2.11253908

>  <Name>
ligand

>  <RI>
0

>  <Rbt.Current_Directory>
/home/itssahil/PROJECTS/Mol_Feturizer/New_Systems/rnas/4LW0

>  <Rbt.Executable>
rbdock ($Id: //depot/dev/client3/rdock/2013.1/src/exe/rbdock.cxx#4 $)

>  <Rbt.Library>
libRbt.so (2013.1, Build901 2013/11/27)

>  <Rbt.Parameter_File>
/export/apps/rDock/src/rDock_2013.1_src/data/scripts/dock_solv.prm

>  <Rbt.Receptor>
prm/blind_docking_100.prm

>  <SCORE>
-13.7523

>  <SCORE.INTER>
-13.7545

>  <SCORE.INTER.CONST>
1

>  <SCORE.INTER.POLAR>
0

>  <SCORE.INTER.ROT>
0

>  <SCORE.INTER.SOLV>
6.45856

>  <SCORE.INTER.VDW>
-14.9225

>  <SCORE.INTER.norm>
-1.37545

>  <SCORE.INTRA>
0

>  <SCORE.INTRA.DIHEDRAL>
0

>  <SCORE.INTRA.DIHEDRAL.0>
0

>  <SCORE.INTRA.POLAR>
0

>  <SCORE.INTRA.POLAR.0>
0

>  <SCORE.INTRA.REPUL>
0

>  <SCORE.INTRA.REPUL.0>
0

>  <SCORE.INTRA.SOLV>
0

>  <SCORE.INTRA.SOLV.lig_0>
-23.9151

>  <SCORE.INTRA.VDW>
0

>  <SCORE.INTRA.VDW.0>
0

>  <SCORE.INTRA.norm>
0

>  <SCORE.RESTR>
0.00219626

>  <SCORE.RESTR.CAVITY>
0.00219626

>  <SCORE.RESTR.norm>
0.000219626

>  <SCORE.SYSTEM>
0

>  <SCORE.SYSTEM.CONST>
0

>  <SCORE.SYSTEM.DIHEDRAL>
0

>  <SCORE.SYSTEM.SOLV>
0

>  <SCORE.SYSTEM.norm>
0

>  <SCORE.heavy>
10

>  <SCORE.norm>
-1.37523

>  <RMSD>
11.715

$$$$
ligand
 OpenBabel11021811503D
libRbt.so/2013.1/901 2013/11/27
 10 11  0  0  0  0  0  0  0  0999 V2000
   -3.0296  -28.9664   28.9679 N   0  0  0  0  0  0  0  0  0  0  0  0
   -2.0355  -29.3007   28.1426 C   0  0  0  0  0  0  0  0  0  0  0  0
   -2.0835  -30.0096   27.0079 N   0  0  0  0  0  0  0  0  0  0  0  0
   -3.3442  -30.4107   26.7559 C   0  0  0  0  0  0  0  0  0  0  0  0
   -4.4705  -30.1467   27.5117 C   0  0  0  0  0  0  0  0  0  0  0  0
   -4.2887  -29.3800   28.6798 C   0  0  0  0  0  0  0  0  0  0  0  0
   -5.2953  -29.0592   29.5086 N   0  0  0  0  0  0  0  0  0  0  0  0
   -5.5955  -30.7133   26.9409 N   0  0  0  0  0  0  0  0  0  0  0  0
   -5.1423  -31.2960   25.8625 C   0  0  0  0  0  0  0  0  0  0  0  0
   -3.7898  -31.1606   25.6938 N   0  0  0  0  0  0  0  0  0  0  0  0
  1  2  2  0  0  0  0
  1  6  1  0  0  0  0
  2  3  1  0  0  0  0
  3  4  2  0  0  0  0
  4  5  1  0  0  0  0
  4 10  1  0  0  0  0
  5  6  2  0  0  0  0
  5  8  1  0  0  0  0
  6  7  1  0  0  0  0
  8  9  1  0  0  0  0
  9 10  2  0  0  0  0
M  END
>  <CHROM.1>
-3.91143725,-30.03953078,27.51610055,-1.29592784,-0.15753229,-2.12871787

>  <Name>
ligand

>  <RI>
0

>  <Rbt.Current_Directory>
/home/itssahil/PROJECTS/Mol_Feturizer/New_Systems/rnas/4LW0

>  <Rbt.Executable>
rbdock ($Id: //depot/dev/client3/rdock/2013.1/src/exe/rbdock.cxx#4 $)

>  <Rbt.Library>
libRbt.so (2013.1, Build901 2013/11/27)

>  <Rbt.Parameter_File>
/export/apps/rDock/src/rDock_2013.1_src/data/scripts/dock_solv.prm

>  <Rbt.Receptor>
prm/blind_docking_60.prm

>  <SCORE>
-13.7405

>  <SCORE.INTER>
-13.7407

>  <SCORE.INTER.CONST>
1

>  <SCORE.INTER.POLAR>
0

>  <SCORE.INTER.ROT>
0

>  <SCORE.INTER.SOLV>
6.43056

>  <SCORE.INTER.VDW>
-14.904

>  <SCORE.INTER.norm>
-1.37407

>  <SCORE.INTRA>
0

>  <SCORE.INTRA.DIHEDRAL>
0

>  <SCORE.INTRA.DIHEDRAL.0>
0

>  <SCORE.INTRA.POLAR>
0

>  <SCORE.INTRA.POLAR.0>
0

>  <SCORE.INTRA.REPUL>
0

>  <SCORE.INTRA.REPUL.0>
0

>  <SCORE.INTRA.SOLV>
0

>  <SCORE.INTRA.SOLV.lig_0>
-23.9151

>  <SCORE.INTRA.VDW>
0

>  <SCORE.INTRA.VDW.0>
0

>  <SCORE.INTRA.norm>
0

>  <SCORE.RESTR>
0.000173457

>  <SCORE.RESTR.CAVITY>
0.000173457

>  <SCORE.RESTR.norm>
1.73457e-05

>  <SCORE.SYSTEM>
0

>  <SCORE.SYSTEM.CONST>
0

>  <SCORE.SYSTEM.DIHEDRAL>
0

>  <SCORE.SYSTEM.SOLV>
0

>  <SCORE.SYSTEM.norm>
0

>  <SCORE.heavy>
10

>  <SCORE.norm>
-1.37405

>  <RMSD>
11.718

$$$$
ligand
 OpenBabel11021811503D
libRbt.so/2013.1/901 2013/11/27
 10 11  0  0  0  0  0  0  0  0999 V2000
   -3.0258  -28.9977   28.9943 N   0  0  0  0  0  0  0  0  0  0  0  0
   -2.0372  -29.2965   28.1489 C   0  0  0  0  0  0  0  0  0  0  0  0
   -2.0898  -29.9729   26.9948 N   0  0  0  0  0  0  0  0  0  0  0  0
   -3.3485  -30.3815   26.7450 C   0  0  0  0  0  0  0  0  0  0  0  0
   -4.4693  -30.1526   27.5204 C   0  0  0  0  0  0  0  0  0  0  0  0
   -4.2832  -29.4177   28.7081 C   0  0  0  0  0  0  0  0  0  0  0  0
   -5.2840  -29.1329   29.5567 N   0  0  0  0  0  0  0  0  0  0  0  0
   -5.5940  -30.7158   26.9457 N   0  0  0  0  0  0  0  0  0  0  0  0
   -5.1462  -31.2619   25.8461 C   0  0  0  0  0  0  0  0  0  0  0  0
   -3.7974  -31.1058   25.6666 N   0  0  0  0  0  0  0  0  0  0  0  0
  1  2  2  0  0  0  0
  1  6  1  0  0  0  0
  2  3  1  0  0  0  0
  3  4  2  0  0  0  0
  4  5  1  0  0  0  0
  4 10  1  0  0  0  0
  5  6  2  0  0  0  0
  5  8  1  0  0  0  0
  6  7  1  0  0  0  0
  8  9  1  0  0  0  0
  9 10  2  0  0  0  0
M  END
>  <CHROM.1>
-3.91140351,-30.03903152,27.52179071,-1.29245103,-0.17320747,-2.09931339

>  <Name>
ligand

>  <RI>
0

>  <Rbt.Current_Directory>
/home/itssahil/PROJECTS/Mol_Feturizer/New_Systems/rnas/4LW0

>  <Rbt.Executable>
rbdock ($Id: //depot/dev/client3/rdock/2013.1/src/exe/rbdock.cxx#4 $)

>  <Rbt.Library>
libRbt.so (2013.1, Build901 2013/11/27)

>  <Rbt.Parameter_File>
/export/apps/rDock/src/rDock_2013.1_src/data/scripts/dock_solv.prm

>  <Rbt.Receptor>
prm/blind_docking_60.prm

>  <SCORE>
-13.6789

>  <SCORE.INTER>
-13.6789

>  <SCORE.INTER.CONST>
1

>  <SCORE.INTER.POLAR>
0

>  <SCORE.INTER.ROT>
0

>  <SCORE.INTER.SOLV>
6.39301

>  <SCORE.INTER.VDW>
-14.8503

>  <SCORE.INTER.norm>
-1.36789

>  <SCORE.INTRA>
0

>  <SCORE.INTRA.DIHEDRAL>
0

>  <SCORE.INTRA.DIHEDRAL.0>
0

>  <SCORE.INTRA.POLAR>
0

>  <SCORE.INTRA.POLAR.0>
0

>  <SCORE.INTRA.REPUL>
0

>  <SCORE.INTRA.REPUL.0>
0

>  <SCORE.INTRA.SOLV>
0

>  <SCORE.INTRA.SOLV.lig_0>
-23.9151

>  <SCORE.INTRA.VDW>
0

>  <SCORE.INTRA.VDW.0>
0

>  <SCORE.INTRA.norm>
0

>  <SCORE.RESTR>
0

>  <SCORE.RESTR.CAVITY>
0

>  <SCORE.RESTR.norm>
0

>  <SCORE.SYSTEM>
0

>  <SCORE.SYSTEM.CONST>
0

>  <SCORE.SYSTEM.DIHEDRAL>
0

>  <SCORE.SYSTEM.SOLV>
0

>  <SCORE.SYSTEM.norm>
0

>  <SCORE.heavy>
10

>  <SCORE.norm>
-1.36789

>  <RMSD>
11.720

$$$$
ligand
 OpenBabel11021811503D
libRbt.so/2013.1/901 2013/11/27
 10 11  0  0  0  0  0  0  0  0999 V2000
   -3.0208  -28.9769   28.9755 N   0  0  0  0  0  0  0  0  0  0  0  0
   -2.0307  -29.3005   28.1412 C   0  0  0  0  0  0  0  0  0  0  0  0
   -2.0831  -30.0010   27.0015 N   0  0  0  0  0  0  0  0  0  0  0  0
   -3.3436  -30.4059   26.7548 C   0  0  0  0  0  0  0  0  0  0  0  0
   -4.4660  -30.1527   27.5201 C   0  0  0  0  0  0  0  0  0  0  0  0
   -4.2799  -29.3940   28.6927 C   0  0  0  0  0  0  0  0  0  0  0  0
   -5.2824  -29.0842   29.5305 N   0  0  0  0  0  0  0  0  0  0  0  0
   -5.5922  -30.7201   26.9524 N   0  0  0  0  0  0  0  0  0  0  0  0
   -5.1435  -31.2925   25.8666 C   0  0  0  0  0  0  0  0  0  0  0  0
   -3.7929  -31.1498   25.6900 N   0  0  0  0  0  0  0  0  0  0  0  0
  1  2  2  0  0  0  0
  1  6  1  0  0  0  0
  2  3  1  0  0  0  0
  3  4  2  0  0  0  0
  4  5  1  0  0  0  0
  4 10  1  0  0  0  0
  5  6  2  0  0  0  0
  5  8  1  0  0  0  0
  6  7  1  0  0  0  0
  8  9  1  0  0  0  0
  9 10  2  0  0  0  0
M  END
>  <CHROM.1>
-3.90740222,-30.04305806,27.52154139,-1.29262494,-0.16486486,-2.12059880

>  <Name>
ligand

>  <RI>
0

>  <Rbt.Current_Directory>
/home/itssahil/PROJECTS/Mol_Feturizer/New_Systems/rnas/4LW0

>  <Rbt.Executable>
rbdock ($Id: //depot/dev/client3/rdock/2013.1/src/exe/rbdock.cxx#4 $)

>  <Rbt.Library>
libRbt.so (2013.1, Build901 2013/11/27)

>  <Rbt.Parameter_File>
/export/apps/rDock/src/rDock_2013.1_src/data/scripts/dock_solv.prm

>  <Rbt.Receptor>
prm/blind_docking_60.prm

>  <SCORE>
-13.7054

>  <SCORE.INTER>
-13.7054

>  <SCORE.INTER.CONST>
1

>  <SCORE.INTER.POLAR>
0

>  <SCORE.INTER.ROT>
0

>  <SCORE.INTER.SOLV>
6.4265

>  <SCORE.INTER.VDW>
-14.8791

>  <SCORE.INTER.norm>
-1.37054

>  <SCORE.INTRA>
0

>  <SCORE.INTRA.DIHEDRAL>
0

>  <SCORE.INTRA.DIHEDRAL.0>
0

>  <SCORE.INTRA.POLAR>
0

>  <SCORE.INTRA.POLAR.0>
0

>  <SCORE.INTRA.REPUL>
0

>  <SCORE.INTRA.REPUL.0>
0

>  <SCORE.INTRA.SOLV>
0

>  <SCORE.INTRA.SOLV.lig_0>
-23.9151

>  <SCORE.INTRA.VDW>
0

>  <SCORE.INTRA.VDW.0>
0

>  <SCORE.INTRA.norm>
0

>  <SCORE.RESTR>
0

>  <SCORE.RESTR.CAVITY>
0

>  <SCORE.RESTR.norm>
0

>  <SCORE.SYSTEM>
0

>  <SCORE.SYSTEM.CONST>
0

>  <SCORE.SYSTEM.DIHEDRAL>
0

>  <SCORE.SYSTEM.SOLV>
0

>  <SCORE.SYSTEM.norm>
0

>  <SCORE.heavy>
10

>  <SCORE.norm>
-1.37054

>  <RMSD>
11.720

$$$$
ligand
 OpenBabel11021811503D
libRbt.so/2013.1/901 2013/11/27
 10 11  0  0  0  0  0  0  0  0999 V2000
   -3.0547  -28.9654   28.9765 N   0  0  0  0  0  0  0  0  0  0  0  0
   -2.0618  -29.2574   28.1338 C   0  0  0  0  0  0  0  0  0  0  0  0
   -2.1043  -29.9459   26.9865 N   0  0  0  0  0  0  0  0  0  0  0  0
   -3.3567  -30.3761   26.7412 C   0  0  0  0  0  0  0  0  0  0  0  0
   -4.4806  -30.1567   27.5147 C   0  0  0  0  0  0  0  0  0  0  0  0
   -4.3055  -29.4073   28.6950 C   0  0  0  0  0  0  0  0  0  0  0  0
   -5.3105  -29.1294   29.5411 N   0  0  0  0  0  0  0  0  0  0  0  0
   -5.5967  -30.7427   26.9460 N   0  0  0  0  0  0  0  0  0  0  0  0
   -5.1409  -31.2927   25.8516 C   0  0  0  0  0  0  0  0  0  0  0  0
   -3.7947  -31.1178   25.6701 N   0  0  0  0  0  0  0  0  0  0  0  0
  1  2  2  0  0  0  0
  1  6  1  0  0  0  0
  2  3  1  0  0  0  0
  3  4  2  0  0  0  0
  4  5  1  0  0  0  0
  4 10  1  0  0  0  0
  5  6  2  0  0  0  0
  5  8  1  0  0  0  0
  6  7  1  0  0  0  0
  8  9  1  0  0  0  0
  9 10  2  0  0  0  0
M  END
>  <CHROM.1>
-3.92460168,-30.03463129,27.51473244,-1.30009944,-0.18650540,-2.11057237

>  <Name>
ligand

>  <RI>
0

>  <Rbt.Current_Directory>
/home/itssahil/PROJECTS/Mol_Feturizer/New_Systems/rnas/4LW0

>  <Rbt.Executable>
rbdock ($Id: //depot/dev/client3/rdock/2013.1/src/exe/rbdock.cxx#4 $)

>  <Rbt.Library>
libRbt.so (2013.1, Build901 2013/11/27)

>  <Rbt.Parameter_File>
/export/apps/rDock/src/rDock_2013.1_src/data/scripts/dock_solv.prm

>  <Rbt.Receptor>
prm/blind_docking_100.prm

>  <SCORE>
-13.7297

>  <SCORE.INTER>
-13.7297

>  <SCORE.INTER.CONST>
1

>  <SCORE.INTER.POLAR>
0

>  <SCORE.INTER.ROT>
0

>  <SCORE.INTER.SOLV>
6.36515

>  <SCORE.INTER.VDW>
-14.8748

>  <SCORE.INTER.norm>
-1.37297

>  <SCORE.INTRA>
0

>  <SCORE.INTRA.DIHEDRAL>
0

>  <SCORE.INTRA.DIHEDRAL.0>
0

>  <SCORE.INTRA.POLAR>
0

>  <SCORE.INTRA.POLAR.0>
0

>  <SCORE.INTRA.REPUL>
0

>  <SCORE.INTRA.REPUL.0>
0

>  <SCORE.INTRA.SOLV>
0

>  <SCORE.INTRA.SOLV.lig_0>
-23.9151

>  <SCORE.INTRA.VDW>
0

>  <SCORE.INTRA.VDW.0>
0

>  <SCORE.INTRA.norm>
0

>  <SCORE.RESTR>
0

>  <SCORE.RESTR.CAVITY>
0

>  <SCORE.RESTR.norm>
0

>  <SCORE.SYSTEM>
0

>  <SCORE.SYSTEM.CONST>
0

>  <SCORE.SYSTEM.DIHEDRAL>
0

>  <SCORE.SYSTEM.SOLV>
0

>  <SCORE.SYSTEM.norm>
0

>  <SCORE.heavy>
10

>  <SCORE.norm>
-1.37297

>  <RMSD>
11.722

$$$$
ligand
 OpenBabel11021811503D
libRbt.so/2013.1/901 2013/11/27
 10 11  0  0  0  0  0  0  0  0999 V2000
   -3.0061  -28.9878   28.9715 N   0  0  0  0  0  0  0  0  0  0  0  0
   -2.0184  -29.3170   28.1366 C   0  0  0  0  0  0  0  0  0  0  0  0
   -2.0752  -30.0184   26.9977 N   0  0  0  0  0  0  0  0  0  0  0  0
   -3.3378  -30.4177   26.7526 C   0  0  0  0  0  0  0  0  0  0  0  0
   -4.4583  -30.1584   27.5188 C   0  0  0  0  0  0  0  0  0  0  0  0
   -4.2674  -29.3993   28.6904 C   0  0  0  0  0  0  0  0  0  0  0  0
   -5.2676  -29.0838   29.5289 N   0  0  0  0  0  0  0  0  0  0  0  0
   -5.5877  -30.7210   26.9528 N   0  0  0  0  0  0  0  0  0  0  0  0
   -5.1429  -31.2968   25.8673 C   0  0  0  0  0  0  0  0  0  0  0  0
   -3.7917  -31.1606   25.6891 N   0  0  0  0  0  0  0  0  0  0  0  0
  1  2  2  0  0  0  0
  1  6  1  0  0  0  0
  2  3  1  0  0  0  0
  3  4  2  0  0  0  0
  4  5  1  0  0  0  0
  4 10  1  0  0  0  0
  5  6  2  0  0  0  0
  5  8  1  0  0  0  0
  6  7  1  0  0  0  0
  8  9  1  0  0  0  0
  9 10  2  0  0  0  0
M  END
>  <CHROM.1>
-3.89918410,-30.05132756,27.51956949,-1.28925524,-0.16136147,-2.12115714

>  <Name>
ligand

>  <RI>
0

>  <Rbt.Current_Directory>
/home/itssahil/PROJECTS/Mol_Feturizer/New_Systems/rnas/4LW0

>  <Rbt.Executable>
rbdock ($Id: //depot/dev/client3/rdock/2013.1/src/exe/rbdock.cxx#4 $)

>  <Rbt.Library>
libRbt.so (2013.1, Build901 2013/11/27)

>  <Rbt.Parameter_File>
/export/apps/rDock/src/rDock_2013.1_src/data/scripts/dock_solv.prm

>  <Rbt.Receptor>
prm/blind_docking_80.prm

>  <SCORE>
-13.7329

>  <SCORE.INTER>
-13.7331

>  <SCORE.INTER.CONST>
1

>  <SCORE.INTER.POLAR>
0

>  <SCORE.INTER.ROT>
0

>  <SCORE.INTER.SOLV>
6.45147

>  <SCORE.INTER.VDW>
-14.9059

>  <SCORE.INTER.norm>
-1.37331

>  <SCORE.INTRA>
0

>  <SCORE.INTRA.DIHEDRAL>
0

>  <SCORE.INTRA.DIHEDRAL.0>
0

>  <SCORE.INTRA.POLAR>
0

>  <SCORE.INTRA.POLAR.0>
0

>  <SCORE.INTRA.REPUL>
0

>  <SCORE.INTRA.REPUL.0>
0

>  <SCORE.INTRA.SOLV>
0

>  <SCORE.INTRA.SOLV.lig_0>
-23.9151

>  <SCORE.INTRA.VDW>
0

>  <SCORE.INTRA.VDW.0>
0

>  <SCORE.INTRA.norm>
0

>  <SCORE.RESTR>
0.00020744

>  <SCORE.RESTR.CAVITY>
0.00020744

>  <SCORE.RESTR.norm>
2.0744e-05

>  <SCORE.SYSTEM>
0

>  <SCORE.SYSTEM.CONST>
0

>  <SCORE.SYSTEM.DIHEDRAL>
0

>  <SCORE.SYSTEM.SOLV>
0

>  <SCORE.SYSTEM.norm>
0

>  <SCORE.heavy>
10

>  <SCORE.norm>
-1.37329

>  <RMSD>
11.722

$$$$
ligand
 OpenBabel11021811503D
libRbt.so/2013.1/901 2013/11/27
 10 11  0  0  0  0  0  0  0  0999 V2000
   -3.0679  -28.9606   28.9818 N   0  0  0  0  0  0  0  0  0  0  0  0
   -2.0734  -29.2453   28.1385 C   0  0  0  0  0  0  0  0  0  0  0  0
   -2.1120  -29.9315   26.9896 N   0  0  0  0  0  0  0  0  0  0  0  0
   -3.3620  -30.3681   26.7433 C   0  0  0  0  0  0  0  0  0  0  0  0
   -4.4872  -30.1566   27.5172 C   0  0  0  0  0  0  0  0  0  0  0  0
   -4.3163  -29.4089   28.6992 C   0  0  0  0  0  0  0  0  0  0  0  0
   -5.3228  -29.1384   29.5458 N   0  0  0  0  0  0  0  0  0  0  0  0
   -5.6000  -30.7475   26.9472 N   0  0  0  0  0  0  0  0  0  0  0  0
   -5.1410  -31.2926   25.8517 C   0  0  0  0  0  0  0  0  0  0  0  0
   -3.7958  -31.1099   25.6706 N   0  0  0  0  0  0  0  0  0  0  0  0
  1  2  2  0  0  0  0
  1  6  1  0  0  0  0
  2  3  1  0  0  0  0
  3  4  2  0  0  0  0
  4  5  1  0  0  0  0
  4 10  1  0  0  0  0
  5  6  2  0  0  0  0
  5  8  1  0  0  0  0
  6  7  1  0  0  0  0
  8  9  1  0  0  0  0
  9 10  2  0  0  0  0
M  END
>  <CHROM.1>
-3.93183194,-30.03146520,27.51757879,-1.30305077,-0.19121505,-2.10895086

>  <Name>
ligand

>  <RI>
0

>  <Rbt.Current_Directory>
/home/itssahil/PROJECTS/Mol_Feturizer/New_Systems/rnas/4LW0

>  <Rbt.Executable>
rbdock ($Id: //depot/dev/client3/rdock/2013.1/src/exe/rbdock.cxx#4 $)

>  <Rbt.Library>
libRbt.so (2013.1, Build901 2013/11/27)

>  <Rbt.Parameter_File>
/export/apps/rDock/src/rDock_2013.1_src/data/scripts/dock_solv.prm

>  <Rbt.Receptor>
prm/blind_docking_60.prm

>  <SCORE>
-13.7284

>  <SCORE.INTER>
-13.7284

>  <SCORE.INTER.CONST>
1

>  <SCORE.INTER.POLAR>
0

>  <SCORE.INTER.ROT>
0

>  <SCORE.INTER.SOLV>
6.34299

>  <SCORE.INTER.VDW>
-14.8666

>  <SCORE.INTER.norm>
-1.37284

>  <SCORE.INTRA>
0

>  <SCORE.INTRA.DIHEDRAL>
0

>  <SCORE.INTRA.DIHEDRAL.0>
0

>  <SCORE.INTRA.POLAR>
0

>  <SCORE.INTRA.POLAR.0>
0

>  <SCORE.INTRA.REPUL>
0

>  <SCORE.INTRA.REPUL.0>
0

>  <SCORE.INTRA.SOLV>
0

>  <SCORE.INTRA.SOLV.lig_0>
-23.9151

>  <SCORE.INTRA.VDW>
0

>  <SCORE.INTRA.VDW.0>
0

>  <SCORE.INTRA.norm>
0

>  <SCORE.RESTR>
0

>  <SCORE.RESTR.CAVITY>
0

>  <SCORE.RESTR.norm>
0

>  <SCORE.SYSTEM>
0

>  <SCORE.SYSTEM.CONST>
0

>  <SCORE.SYSTEM.DIHEDRAL>
0

>  <SCORE.SYSTEM.SOLV>
0

>  <SCORE.SYSTEM.norm>
0

>  <SCORE.heavy>
10

>  <SCORE.norm>
-1.37284

>  <RMSD>
11.724

$$$$
ligand
 OpenBabel11021811503D
libRbt.so/2013.1/901 2013/11/27
 10 11  0  0  0  0  0  0  0  0999 V2000
   -3.0583  -28.9721   28.9817 N   0  0  0  0  0  0  0  0  0  0  0  0
   -2.0652  -29.2579   28.1372 C   0  0  0  0  0  0  0  0  0  0  0  0
   -2.1065  -29.9418   26.9870 N   0  0  0  0  0  0  0  0  0  0  0  0
   -3.3579  -30.3744   26.7407 C   0  0  0  0  0  0  0  0  0  0  0  0
   -4.4819  -30.1613   27.5158 C   0  0  0  0  0  0  0  0  0  0  0  0
   -4.3081  -29.4163   28.6991 C   0  0  0  0  0  0  0  0  0  0  0  0
   -5.3133  -29.1446   29.5470 N   0  0  0  0  0  0  0  0  0  0  0  0
   -5.5968  -30.7480   26.9454 N   0  0  0  0  0  0  0  0  0  0  0  0
   -5.1401  -31.2922   25.8485 C   0  0  0  0  0  0  0  0  0  0  0  0
   -3.7945  -31.1129   25.6669 N   0  0  0  0  0  0  0  0  0  0  0  0
  1  2  2  0  0  0  0
  1  6  1  0  0  0  0
  2  3  1  0  0  0  0
  3  4  2  0  0  0  0
  4  5  1  0  0  0  0
  4 10  1  0  0  0  0
  5  6  2  0  0  0  0
  5  8  1  0  0  0  0
  6  7  1  0  0  0  0
  8  9  1  0  0  0  0
  9 10  2  0  0  0  0
M  END
>  <CHROM.1>
-3.92622283,-30.03768225,27.51604799,-1.30098600,-0.18916676,-2.10662989

>  <Name>
ligand

>  <RI>
0

>  <Rbt.Current_Directory>
/home/itssahil/PROJECTS/Mol_Feturizer/New_Systems/rnas/4LW0

>  <Rbt.Executable>
rbdock ($Id: //depot/dev/client3/rdock/2013.1/src/exe/rbdock.cxx#4 $)

>  <Rbt.Library>
libRbt.so (2013.1, Build901 2013/11/27)

>  <Rbt.Parameter_File>
/export/apps/rDock/src/rDock_2013.1_src/data/scripts/dock_solv.prm

>  <Rbt.Receptor>
prm/blind_docking_60.prm

>  <SCORE>
-13.7289

>  <SCORE.INTER>
-13.7289

>  <SCORE.INTER.CONST>
1

>  <SCORE.INTER.POLAR>
0

>  <SCORE.INTER.ROT>
0

>  <SCORE.INTER.SOLV>
6.35639

>  <SCORE.INTER.VDW>
-14.8714

>  <SCORE.INTER.norm>
-1.37289

>  <SCORE.INTRA>
0

>  <SCORE.INTRA.DIHEDRAL>
0

>  <SCORE.INTRA.DIHEDRAL.0>
0

>  <SCORE.INTRA.POLAR>
0

>  <SCORE.INTRA.POLAR.0>
0

>  <SCORE.INTRA.REPUL>
0

>  <SCORE.INTRA.REPUL.0>
0

>  <SCORE.INTRA.SOLV>
0

>  <SCORE.INTRA.SOLV.lig_0>
-23.9151

>  <SCORE.INTRA.VDW>
0

>  <SCORE.INTRA.VDW.0>
0

>  <SCORE.INTRA.norm>
0

>  <SCORE.RESTR>
0

>  <SCORE.RESTR.CAVITY>
0

>  <SCORE.RESTR.norm>
0

>  <SCORE.SYSTEM>
0

>  <SCORE.SYSTEM.CONST>
0

>  <SCORE.SYSTEM.DIHEDRAL>
0

>  <SCORE.SYSTEM.SOLV>
0

>  <SCORE.SYSTEM.norm>
0

>  <SCORE.heavy>
10

>  <SCORE.norm>
-1.37289

>  <RMSD>
11.726

$$$$
ligand
 OpenBabel11021811503D
libRbt.so/2013.1/901 2013/11/27
 10 11  0  0  0  0  0  0  0  0999 V2000
   -3.0617  -28.9748   28.9855 N   0  0  0  0  0  0  0  0  0  0  0  0
   -2.0685  -29.2566   28.1399 C   0  0  0  0  0  0  0  0  0  0  0  0
   -2.1090  -29.9382   26.9883 N   0  0  0  0  0  0  0  0  0  0  0  0
   -3.3595  -30.3729   26.7418 C   0  0  0  0  0  0  0  0  0  0  0  0
   -4.4836  -30.1639   27.5179 C   0  0  0  0  0  0  0  0  0  0  0  0
   -4.3108  -29.4210   28.7026 C   0  0  0  0  0  0  0  0  0  0  0  0
   -5.3161  -29.1532   29.5516 N   0  0  0  0  0  0  0  0  0  0  0  0
   -5.5975  -30.7517   26.9468 N   0  0  0  0  0  0  0  0  0  0  0  0
   -5.1403  -31.2926   25.8485 C   0  0  0  0  0  0  0  0  0  0  0  0
   -3.7951  -31.1101   25.6666 N   0  0  0  0  0  0  0  0  0  0  0  0
  1  2  2  0  0  0  0
  1  6  1  0  0  0  0
  2  3  1  0  0  0  0
  3  4  2  0  0  0  0
  4  5  1  0  0  0  0
  4 10  1  0  0  0  0
  5  6  2  0  0  0  0
  5  8  1  0  0  0  0
  6  7  1  0  0  0  0
  8  9  1  0  0  0  0
  9 10  2  0  0  0  0
M  END
>  <CHROM.1>
-3.92818458,-30.03906192,27.51807212,-1.30163192,-0.19123751,-2.10463658

>  <Name>
ligand

>  <RI>
0

>  <Rbt.Current_Directory>
/home/itssahil/PROJECTS/Mol_Feturizer/New_Systems/rnas/4LW0

>  <Rbt.Executable>
rbdock ($Id: //depot/dev/client3/rdock/2013.1/src/exe/rbdock.cxx#4 $)

>  <Rbt.Library>
libRbt.so (2013.1, Build901 2013/11/27)

>  <Rbt.Parameter_File>
/export/apps/rDock/src/rDock_2013.1_src/data/scripts/dock_solv.prm

>  <Rbt.Receptor>
prm/blind_docking_80.prm

>  <SCORE>
-13.7285

>  <SCORE.INTER>
-13.7285

>  <SCORE.INTER.CONST>
1

>  <SCORE.INTER.POLAR>
0

>  <SCORE.INTER.ROT>
0

>  <SCORE.INTER.SOLV>
6.34934

>  <SCORE.INTER.VDW>
-14.8688

>  <SCORE.INTER.norm>
-1.37285

>  <SCORE.INTRA>
0

>  <SCORE.INTRA.DIHEDRAL>
0

>  <SCORE.INTRA.DIHEDRAL.0>
0

>  <SCORE.INTRA.POLAR>
0

>  <SCORE.INTRA.POLAR.0>
0

>  <SCORE.INTRA.REPUL>
0

>  <SCORE.INTRA.REPUL.0>
0

>  <SCORE.INTRA.SOLV>
0

>  <SCORE.INTRA.SOLV.lig_0>
-23.9151

>  <SCORE.INTRA.VDW>
0

>  <SCORE.INTRA.VDW.0>
0

>  <SCORE.INTRA.norm>
0

>  <SCORE.RESTR>
0

>  <SCORE.RESTR.CAVITY>
0

>  <SCORE.RESTR.norm>
0

>  <SCORE.SYSTEM>
0

>  <SCORE.SYSTEM.CONST>
0

>  <SCORE.SYSTEM.DIHEDRAL>
0

>  <SCORE.SYSTEM.SOLV>
0

>  <SCORE.SYSTEM.norm>
0

>  <SCORE.heavy>
10

>  <SCORE.norm>
-1.37285

>  <RMSD>
11.728

$$$$
ligand
 OpenBabel11021811503D
libRbt.so/2013.1/901 2013/11/27
 10 11  0  0  0  0  0  0  0  0999 V2000
   -3.5954  -31.0840   25.7078 N   0  0  0  0  0  0  0  0  0  0  0  0
   -4.9065  -31.1916   25.9325 C   0  0  0  0  0  0  0  0  0  0  0  0
   -5.6295  -30.7129   26.9524 N   0  0  0  0  0  0  0  0  0  0  0  0
   -4.8379  -30.0643   27.8278 C   0  0  0  0  0  0  0  0  0  0  0  0
   -3.4726  -29.8721   27.7341 C   0  0  0  0  0  0  0  0  0  0  0  0
   -2.8284  -30.4170   26.6056 C   0  0  0  0  0  0  0  0  0  0  0  0
   -1.5063  -30.3118   26.3960 N   0  0  0  0  0  0  0  0  0  0  0  0
   -2.9974  -29.1515   28.8146 N   0  0  0  0  0  0  0  0  0  0  0  0
   -4.0650  -28.9161   29.5305 C   0  0  0  0  0  0  0  0  0  0  0  0
   -5.2100  -29.4464   28.9977 N   0  0  0  0  0  0  0  0  0  0  0  0
  1  2  2  0  0  0  0
  1  6  1  0  0  0  0
  2  3  1  0  0  0  0
  3  4  2  0  0  0  0
  4  5  1  0  0  0  0
  4 10  1  0  0  0  0
  5  6  2  0  0  0  0
  5  8  1  0  0  0  0
  6  7  1  0  0  0  0
  8  9  1  0  0  0  0
  9 10  2  0  0  0  0
M  END
>  <CHROM.1>
-3.89589829,-30.11864502,27.44403243,1.23296025,-0.15290107,-2.10240513

>  <Name>
ligand

>  <RI>
0

>  <Rbt.Current_Directory>
/home/itssahil/PROJECTS/Mol_Feturizer/New_Systems/rnas/4LW0

>  <Rbt.Executable>
rbdock ($Id: //depot/dev/client3/rdock/2013.1/src/exe/rbdock.cxx#4 $)

>  <Rbt.Library>
libRbt.so (2013.1, Build901 2013/11/27)

>  <Rbt.Parameter_File>
/export/apps/rDock/src/rDock_2013.1_src/data/scripts/dock_solv.prm

>  <Rbt.Receptor>
prm/blind_docking_100.prm

>  <SCORE>
-13.7783

>  <SCORE.INTER>
-13.7783

>  <SCORE.INTER.CONST>
1

>  <SCORE.INTER.POLAR>
0

>  <SCORE.INTER.ROT>
0

>  <SCORE.INTER.SOLV>
6.93263

>  <SCORE.INTER.VDW>
-15.0964

>  <SCORE.INTER.norm>
-1.37783

>  <SCORE.INTRA>
0

>  <SCORE.INTRA.DIHEDRAL>
0

>  <SCORE.INTRA.DIHEDRAL.0>
0

>  <SCORE.INTRA.POLAR>
0

>  <SCORE.INTRA.POLAR.0>
0

>  <SCORE.INTRA.REPUL>
0

>  <SCORE.INTRA.REPUL.0>
0

>  <SCORE.INTRA.SOLV>
0

>  <SCORE.INTRA.SOLV.lig_0>
-23.9151

>  <SCORE.INTRA.VDW>
0

>  <SCORE.INTRA.VDW.0>
0

>  <SCORE.INTRA.norm>
0

>  <SCORE.RESTR>
0

>  <SCORE.RESTR.CAVITY>
0

>  <SCORE.RESTR.norm>
0

>  <SCORE.SYSTEM>
0

>  <SCORE.SYSTEM.CONST>
0

>  <SCORE.SYSTEM.DIHEDRAL>
0

>  <SCORE.SYSTEM.SOLV>
0

>  <SCORE.SYSTEM.norm>
0

>  <SCORE.heavy>
10

>  <SCORE.norm>
-1.37783

>  <RMSD>
11.741

$$$$
ligand
 OpenBabel11021811503D
libRbt.so/2013.1/901 2013/11/27
 10 11  0  0  0  0  0  0  0  0999 V2000
   -3.5790  -31.0898   25.7067 N   0  0  0  0  0  0  0  0  0  0  0  0
   -4.8890  -31.2092   25.9318 C   0  0  0  0  0  0  0  0  0  0  0  0
   -5.6162  -30.7363   26.9516 N   0  0  0  0  0  0  0  0  0  0  0  0
   -4.8303  -30.0796   27.8261 C   0  0  0  0  0  0  0  0  0  0  0  0
   -3.4669  -29.8750   27.7319 C   0  0  0  0  0  0  0  0  0  0  0  0
   -2.8180  -30.4149   26.6037 C   0  0  0  0  0  0  0  0  0  0  0  0
   -1.4969  -30.2977   26.3936 N   0  0  0  0  0  0  0  0  0  0  0  0
   -2.9980  -29.1490   28.8115 N   0  0  0  0  0  0  0  0  0  0  0  0
   -4.0676  -28.9227   29.5275 C   0  0  0  0  0  0  0  0  0  0  0  0
   -5.2078  -29.4640   28.9955 N   0  0  0  0  0  0  0  0  0  0  0  0
  1  2  2  0  0  0  0
  1  6  1  0  0  0  0
  2  3  1  0  0  0  0
  3  4  2  0  0  0  0
  4  5  1  0  0  0  0
  4 10  1  0  0  0  0
  5  6  2  0  0  0  0
  5  8  1  0  0  0  0
  6  7  1  0  0  0  0
  8  9  1  0  0  0  0
  9 10  2  0  0  0  0
M  END
>  <CHROM.1>
-3.88797338,-30.12561217,27.44212881,1.22846583,-0.16095861,-2.10404166

>  <Name>
ligand

>  <RI>
0

>  <Rbt.Current_Directory>
/home/itssahil/PROJECTS/Mol_Feturizer/New_Systems/rnas/4LW0

>  <Rbt.Executable>
rbdock ($Id: //depot/dev/client3/rdock/2013.1/src/exe/rbdock.cxx#4 $)

>  <Rbt.Library>
libRbt.so (2013.1, Build901 2013/11/27)

>  <Rbt.Parameter_File>
/export/apps/rDock/src/rDock_2013.1_src/data/scripts/dock_solv.prm

>  <Rbt.Receptor>
prm/blind_docking_80.prm

>  <SCORE>
-13.7773

>  <SCORE.INTER>
-13.7775

>  <SCORE.INTER.CONST>
1

>  <SCORE.INTER.POLAR>
0

>  <SCORE.INTER.ROT>
0

>  <SCORE.INTER.SOLV>
6.91386

>  <SCORE.INTER.VDW>
-15.0896

>  <SCORE.INTER.norm>
-1.37775

>  <SCORE.INTRA>
0

>  <SCORE.INTRA.DIHEDRAL>
0

>  <SCORE.INTRA.DIHEDRAL.0>
0

>  <SCORE.INTRA.POLAR>
0

>  <SCORE.INTRA.POLAR.0>
0

>  <SCORE.INTRA.REPUL>
0

>  <SCORE.INTRA.REPUL.0>
0

>  <SCORE.INTRA.SOLV>
0

>  <SCORE.INTRA.SOLV.lig_0>
-23.9151

>  <SCORE.INTRA.VDW>
0

>  <SCORE.INTRA.VDW.0>
0

>  <SCORE.INTRA.norm>
0

>  <SCORE.RESTR>
0.000232277

>  <SCORE.RESTR.CAVITY>
0.000232277

>  <SCORE.RESTR.norm>
2.32277e-05

>  <SCORE.SYSTEM>
0

>  <SCORE.SYSTEM.CONST>
0

>  <SCORE.SYSTEM.DIHEDRAL>
0

>  <SCORE.SYSTEM.SOLV>
0

>  <SCORE.SYSTEM.norm>
0

>  <SCORE.heavy>
10

>  <SCORE.norm>
-1.37773

>  <RMSD>
11.742

$$$$
ligand
 OpenBabel11021811503D
libRbt.so/2013.1/901 2013/11/27
 10 11  0  0  0  0  0  0  0  0999 V2000
   -3.5796  -31.0878   25.7079 N   0  0  0  0  0  0  0  0  0  0  0  0
   -4.8891  -31.2099   25.9342 C   0  0  0  0  0  0  0  0  0  0  0  0
   -5.6162  -30.7393   26.9551 N   0  0  0  0  0  0  0  0  0  0  0  0
   -4.8307  -30.0819   27.8295 C   0  0  0  0  0  0  0  0  0  0  0  0
   -3.4677  -29.8748   27.7342 C   0  0  0  0  0  0  0  0  0  0  0  0
   -2.8189  -30.4124   26.6049 C   0  0  0  0  0  0  0  0  0  0  0  0
   -1.4983  -30.2926   26.3937 N   0  0  0  0  0  0  0  0  0  0  0  0
   -2.9993  -29.1490   28.8141 N   0  0  0  0  0  0  0  0  0  0  0  0
   -4.0686  -28.9253   29.5313 C   0  0  0  0  0  0  0  0  0  0  0  0
   -5.2082  -29.4682   28.9999 N   0  0  0  0  0  0  0  0  0  0  0  0
  1  2  2  0  0  0  0
  1  6  1  0  0  0  0
  2  3  1  0  0  0  0
  3  4  2  0  0  0  0
  4  5  1  0  0  0  0
  4 10  1  0  0  0  0
  5  6  2  0  0  0  0
  5  8  1  0  0  0  0
  6  7  1  0  0  0  0
  8  9  1  0  0  0  0
  9 10  2  0  0  0  0
M  END
>  <CHROM.1>
-3.88865300,-30.12590073,27.44460996,1.22832777,-0.16301515,-2.10310049

>  <Name>
ligand

>  <RI>
0

>  <Rbt.Current_Directory>
/home/itssahil/PROJECTS/Mol_Feturizer/New_Systems/rnas/4LW0

>  <Rbt.Executable>
rbdock ($Id: //depot/dev/client3/rdock/2013.1/src/exe/rbdock.cxx#4 $)

>  <Rbt.Library>
libRbt.so (2013.1, Build901 2013/11/27)

>  <Rbt.Parameter_File>
/export/apps/rDock/src/rDock_2013.1_src/data/scripts/dock_solv.prm

>  <Rbt.Receptor>
prm/blind_docking_60.prm

>  <SCORE>
-13.7719

>  <SCORE.INTER>
-13.7719

>  <SCORE.INTER.CONST>
1

>  <SCORE.INTER.POLAR>
0

>  <SCORE.INTER.ROT>
0

>  <SCORE.INTER.SOLV>
6.90849

>  <SCORE.INTER.VDW>
-15.0841

>  <SCORE.INTER.norm>
-1.37719

>  <SCORE.INTRA>
0

>  <SCORE.INTRA.DIHEDRAL>
0

>  <SCORE.INTRA.DIHEDRAL.0>
0

>  <SCORE.INTRA.POLAR>
0

>  <SCORE.INTRA.POLAR.0>
0

>  <SCORE.INTRA.REPUL>
0

>  <SCORE.INTRA.REPUL.0>
0

>  <SCORE.INTRA.SOLV>
0

>  <SCORE.INTRA.SOLV.lig_0>
-23.9151

>  <SCORE.INTRA.VDW>
0

>  <SCORE.INTRA.VDW.0>
0

>  <SCORE.INTRA.norm>
0

>  <SCORE.RESTR>
0

>  <SCORE.RESTR.CAVITY>
0

>  <SCORE.RESTR.norm>
0

>  <SCORE.SYSTEM>
0

>  <SCORE.SYSTEM.CONST>
0

>  <SCORE.SYSTEM.DIHEDRAL>
0

>  <SCORE.SYSTEM.SOLV>
0

>  <SCORE.SYSTEM.norm>
0

>  <SCORE.heavy>
10

>  <SCORE.norm>
-1.37719

>  <RMSD>
11.743

$$$$
ligand
 OpenBabel11021811503D
libRbt.so/2013.1/901 2013/11/27
 10 11  0  0  0  0  0  0  0  0999 V2000
   -3.6161  -31.0948   25.7051 N   0  0  0  0  0  0  0  0  0  0  0  0
   -4.9262  -31.1974   25.9378 C   0  0  0  0  0  0  0  0  0  0  0  0
   -5.6421  -30.7115   26.9595 N   0  0  0  0  0  0  0  0  0  0  0  0
   -4.8436  -30.0609   27.8271 C   0  0  0  0  0  0  0  0  0  0  0  0
   -3.4783  -29.8733   27.7247 C   0  0  0  0  0  0  0  0  0  0  0  0
   -2.8421  -30.4256   26.5953 C   0  0  0  0  0  0  0  0  0  0  0  0
   -1.5209  -30.3254   26.3776 N   0  0  0  0  0  0  0  0  0  0  0  0
   -2.9948  -29.1488   28.7989 N   0  0  0  0  0  0  0  0  0  0  0  0
   -4.0577  -28.9066   29.5196 C   0  0  0  0  0  0  0  0  0  0  0  0
   -5.2072  -29.4362   28.9960 N   0  0  0  0  0  0  0  0  0  0  0  0
  1  2  2  0  0  0  0
  1  6  1  0  0  0  0
  2  3  1  0  0  0  0
  3  4  2  0  0  0  0
  4  5  1  0  0  0  0
  4 10  1  0  0  0  0
  5  6  2  0  0  0  0
  5  8  1  0  0  0  0
  6  7  1  0  0  0  0
  8  9  1  0  0  0  0
  9 10  2  0  0  0  0
M  END
>  <CHROM.1>
-3.90394281,-30.11999566,27.43827251,1.23941729,-0.15324439,-2.10637274

>  <Name>
ligand

>  <RI>
0

>  <Rbt.Current_Directory>
/home/itssahil/PROJECTS/Mol_Feturizer/New_Systems/rnas/4LW0

>  <Rbt.Executable>
rbdock ($Id: //depot/dev/client3/rdock/2013.1/src/exe/rbdock.cxx#4 $)

>  <Rbt.Library>
libRbt.so (2013.1, Build901 2013/11/27)

>  <Rbt.Parameter_File>
/export/apps/rDock/src/rDock_2013.1_src/data/scripts/dock_solv.prm

>  <Rbt.Receptor>
prm/blind_docking_60.prm

>  <SCORE>
-13.7814

>  <SCORE.INTER>
-13.7814

>  <SCORE.INTER.CONST>
1

>  <SCORE.INTER.POLAR>
0

>  <SCORE.INTER.ROT>
0

>  <SCORE.INTER.SOLV>
7.00758

>  <SCORE.INTER.VDW>
-15.1235

>  <SCORE.INTER.norm>
-1.37814

>  <SCORE.INTRA>
0

>  <SCORE.INTRA.DIHEDRAL>
0

>  <SCORE.INTRA.DIHEDRAL.0>
0

>  <SCORE.INTRA.POLAR>
0

>  <SCORE.INTRA.POLAR.0>
0

>  <SCORE.INTRA.REPUL>
0

>  <SCORE.INTRA.REPUL.0>
0

>  <SCORE.INTRA.SOLV>
0

>  <SCORE.INTRA.SOLV.lig_0>
-23.9151

>  <SCORE.INTRA.VDW>
0

>  <SCORE.INTRA.VDW.0>
0

>  <SCORE.INTRA.norm>
0

>  <SCORE.RESTR>
0

>  <SCORE.RESTR.CAVITY>
0

>  <SCORE.RESTR.norm>
0

>  <SCORE.SYSTEM>
0

>  <SCORE.SYSTEM.CONST>
0

>  <SCORE.SYSTEM.DIHEDRAL>
0

>  <SCORE.SYSTEM.SOLV>
0

>  <SCORE.SYSTEM.norm>
0

>  <SCORE.heavy>
10

>  <SCORE.norm>
-1.37814

>  <RMSD>
11.746

$$$$
ligand
 OpenBabel11021811503D
libRbt.so/2013.1/901 2013/11/27
 10 11  0  0  0  0  0  0  0  0999 V2000
   -3.5956  -31.0822   25.6975 N   0  0  0  0  0  0  0  0  0  0  0  0
   -4.9028  -31.2126   25.9324 C   0  0  0  0  0  0  0  0  0  0  0  0
   -5.6257  -30.7489   26.9594 N   0  0  0  0  0  0  0  0  0  0  0  0
   -4.8381  -30.0892   27.8301 C   0  0  0  0  0  0  0  0  0  0  0  0
   -3.4771  -29.8737   27.7261 C   0  0  0  0  0  0  0  0  0  0  0  0
   -2.8328  -30.4046   26.5910 C   0  0  0  0  0  0  0  0  0  0  0  0
   -1.5144  -30.2764   26.3711 N   0  0  0  0  0  0  0  0  0  0  0  0
   -3.0055  -29.1479   28.8047 N   0  0  0  0  0  0  0  0  0  0  0  0
   -4.0713  -28.9324   29.5297 C   0  0  0  0  0  0  0  0  0  0  0  0
   -5.2112  -29.4807   29.0047 N   0  0  0  0  0  0  0  0  0  0  0  0
  1  2  2  0  0  0  0
  1  6  1  0  0  0  0
  2  3  1  0  0  0  0
  3  4  2  0  0  0  0
  4  5  1  0  0  0  0
  4 10  1  0  0  0  0
  5  6  2  0  0  0  0
  5  8  1  0  0  0  0
  6  7  1  0  0  0  0
  8  9  1  0  0  0  0
  9 10  2  0  0  0  0
M  END
>  <CHROM.1>
-3.89849737,-30.12657173,27.43875834,1.23126261,-0.17156568,-2.10001846

>  <Name>
ligand

>  <RI>
0

>  <Rbt.Current_Directory>
/home/itssahil/PROJECTS/Mol_Feturizer/New_Systems/rnas/4LW0

>  <Rbt.Executable>
rbdock ($Id: //depot/dev/client3/rdock/2013.1/src/exe/rbdock.cxx#4 $)

>  <Rbt.Library>
libRbt.so (2013.1, Build901 2013/11/27)

>  <Rbt.Parameter_File>
/export/apps/rDock/src/rDock_2013.1_src/data/scripts/dock_solv.prm

>  <Rbt.Receptor>
prm/blind_docking_100.prm

>  <SCORE>
-13.7597

>  <SCORE.INTER>
-13.7599

>  <SCORE.INTER.CONST>
1

>  <SCORE.INTER.POLAR>
0

>  <SCORE.INTER.ROT>
0

>  <SCORE.INTER.SOLV>
6.96661

>  <SCORE.INTER.VDW>
-15.0955

>  <SCORE.INTER.norm>
-1.37599

>  <SCORE.INTRA>
0

>  <SCORE.INTRA.DIHEDRAL>
0

>  <SCORE.INTRA.DIHEDRAL.0>
0

>  <SCORE.INTRA.POLAR>
0

>  <SCORE.INTRA.POLAR.0>
0

>  <SCORE.INTRA.REPUL>
0

>  <SCORE.INTRA.REPUL.0>
0

>  <SCORE.INTRA.SOLV>
0

>  <SCORE.INTRA.SOLV.lig_0>
-23.9151

>  <SCORE.INTRA.VDW>
0

>  <SCORE.INTRA.VDW.0>
0

>  <SCORE.INTRA.norm>
0

>  <SCORE.RESTR>
0.000208703

>  <SCORE.RESTR.CAVITY>
0.000208703

>  <SCORE.RESTR.norm>
2.08703e-05

>  <SCORE.SYSTEM>
0

>  <SCORE.SYSTEM.CONST>
0

>  <SCORE.SYSTEM.DIHEDRAL>
0

>  <SCORE.SYSTEM.SOLV>
0

>  <SCORE.SYSTEM.norm>
0

>  <SCORE.heavy>
10

>  <SCORE.norm>
-1.37597

>  <RMSD>
11.747

$$$$
ligand
 OpenBabel11021811503D
libRbt.so/2013.1/901 2013/11/27
 10 11  0  0  0  0  0  0  0  0999 V2000
   -3.6387  -31.0913   25.6988 N   0  0  0  0  0  0  0  0  0  0  0  0
   -4.9473  -31.1940   25.9400 C   0  0  0  0  0  0  0  0  0  0  0  0
   -5.6564  -30.7085   26.9665 N   0  0  0  0  0  0  0  0  0  0  0  0
   -4.8522  -30.0582   27.8291 C   0  0  0  0  0  0  0  0  0  0  0  0
   -3.4876  -29.8706   27.7179 C   0  0  0  0  0  0  0  0  0  0  0  0
   -2.8588  -30.4225   26.5841 C   0  0  0  0  0  0  0  0  0  0  0  0
   -1.5391  -30.3222   26.3579 N   0  0  0  0  0  0  0  0  0  0  0  0
   -2.9971  -29.1465   28.7891 N   0  0  0  0  0  0  0  0  0  0  0  0
   -4.0553  -28.9046   29.5169 C   0  0  0  0  0  0  0  0  0  0  0  0
   -5.2081  -29.4339   29.0006 N   0  0  0  0  0  0  0  0  0  0  0  0
  1  2  2  0  0  0  0
  1  6  1  0  0  0  0
  2  3  1  0  0  0  0
  3  4  2  0  0  0  0
  4  5  1  0  0  0  0
  4 10  1  0  0  0  0
  5  6  2  0  0  0  0
  5  8  1  0  0  0  0
  6  7  1  0  0  0  0
  8  9  1  0  0  0  0
  9 10  2  0  0  0  0
M  END
>  <CHROM.1>
-3.91515032,-30.11716603,27.43413912,1.24513034,-0.15654592,-2.10510380

>  <Name>
ligand

>  <RI>
0

>  <Rbt.Current_Directory>
/home/itssahil/PROJECTS/Mol_Feturizer/New_Systems/rnas/4LW0

>  <Rbt.Executable>
rbdock ($Id: //depot/dev/client3/rdock/2013.1/src/exe/rbdock.cxx#4 $)

>  <Rbt.Library>
libRbt.so (2013.1, Build901 2013/11/27)

>  <Rbt.Parameter_File>
/export/apps/rDock/src/rDock_2013.1_src/data/scripts/dock_solv.prm

>  <Rbt.Receptor>
prm/blind_docking_60.prm

>  <SCORE>
-13.7775

>  <SCORE.INTER>
-13.7775

>  <SCORE.INTER.CONST>
1

>  <SCORE.INTER.POLAR>
0

>  <SCORE.INTER.ROT>
0

>  <SCORE.INTER.SOLV>
7.06723

>  <SCORE.INTER.VDW>
-15.1408

>  <SCORE.INTER.norm>
-1.37775

>  <SCORE.INTRA>
0

>  <SCORE.INTRA.DIHEDRAL>
0

>  <SCORE.INTRA.DIHEDRAL.0>
0

>  <SCORE.INTRA.POLAR>
0

>  <SCORE.INTRA.POLAR.0>
0

>  <SCORE.INTRA.REPUL>
0

>  <SCORE.INTRA.REPUL.0>
0

>  <SCORE.INTRA.SOLV>
0

>  <SCORE.INTRA.SOLV.lig_0>
-23.9151

>  <SCORE.INTRA.VDW>
0

>  <SCORE.INTRA.VDW.0>
0

>  <SCORE.INTRA.norm>
0

>  <SCORE.RESTR>
0

>  <SCORE.RESTR.CAVITY>
0

>  <SCORE.RESTR.norm>
0

>  <SCORE.SYSTEM>
0

>  <SCORE.SYSTEM.CONST>
0

>  <SCORE.SYSTEM.DIHEDRAL>
0

>  <SCORE.SYSTEM.SOLV>
0

>  <SCORE.SYSTEM.norm>
0

>  <SCORE.heavy>
10

>  <SCORE.norm>
-1.37775

>  <RMSD>
11.749

$$$$
ligand
 OpenBabel11021811503D
libRbt.so/2013.1/901 2013/11/27
 10 11  0  0  0  0  0  0  0  0999 V2000
   -3.6473  -31.1551   25.6772 N   0  0  0  0  0  0  0  0  0  0  0  0
   -4.9543  -31.2232   25.9382 C   0  0  0  0  0  0  0  0  0  0  0  0
   -5.6361  -30.7118   26.9706 N   0  0  0  0  0  0  0  0  0  0  0  0
   -4.8035  -30.0747   27.8159 C   0  0  0  0  0  0  0  0  0  0  0  0
   -3.4364  -29.9220   27.6834 C   0  0  0  0  0  0  0  0  0  0  0  0
   -2.8382  -30.4986   26.5454 C   0  0  0  0  0  0  0  0  0  0  0  0
   -1.5198  -30.4331   26.2993 N   0  0  0  0  0  0  0  0  0  0  0  0
   -2.9125  -29.2016   28.7412 N   0  0  0  0  0  0  0  0  0  0  0  0
   -3.9536  -28.9274   29.4821 C   0  0  0  0  0  0  0  0  0  0  0  0
   -5.1266  -29.4321   28.9871 N   0  0  0  0  0  0  0  0  0  0  0  0
  1  2  2  0  0  0  0
  1  6  1  0  0  0  0
  2  3  1  0  0  0  0
  3  4  2  0  0  0  0
  4  5  1  0  0  0  0
  4 10  1  0  0  0  0
  5  6  2  0  0  0  0
  5  8  1  0  0  0  0
  6  7  1  0  0  0  0
  8  9  1  0  0  0  0
  9 10  2  0  0  0  0
M  END
>  <CHROM.1>
-3.87405715,-30.16018421,27.40796820,1.27061316,-0.14267262,-2.10970150

>  <Name>
ligand

>  <RI>
0

>  <Rbt.Current_Directory>
/home/itssahil/PROJECTS/Mol_Feturizer/New_Systems/rnas/4LW0

>  <Rbt.Executable>
rbdock ($Id: //depot/dev/client3/rdock/2013.1/src/exe/rbdock.cxx#4 $)

>  <Rbt.Library>
libRbt.so (2013.1, Build901 2013/11/27)

>  <Rbt.Parameter_File>
/export/apps/rDock/src/rDock_2013.1_src/data/scripts/dock_solv.prm

>  <Rbt.Receptor>
prm/blind_docking_60.prm

>  <SCORE>
-13.7507

>  <SCORE.INTER>
-13.7507

>  <SCORE.INTER.CONST>
1

>  <SCORE.INTER.POLAR>
0

>  <SCORE.INTER.ROT>
0

>  <SCORE.INTER.SOLV>
7.39984

>  <SCORE.INTER.VDW>
-15.2338

>  <SCORE.INTER.norm>
-1.37507

>  <SCORE.INTRA>
0

>  <SCORE.INTRA.DIHEDRAL>
0

>  <SCORE.INTRA.DIHEDRAL.0>
0

>  <SCORE.INTRA.POLAR>
0

>  <SCORE.INTRA.POLAR.0>
0

>  <SCORE.INTRA.REPUL>
0

>  <SCORE.INTRA.REPUL.0>
0

>  <SCORE.INTRA.SOLV>
0

>  <SCORE.INTRA.SOLV.lig_0>
-23.9151

>  <SCORE.INTRA.VDW>
0

>  <SCORE.INTRA.VDW.0>
0

>  <SCORE.INTRA.norm>
0

>  <SCORE.RESTR>
0

>  <SCORE.RESTR.CAVITY>
0

>  <SCORE.RESTR.norm>
0

>  <SCORE.SYSTEM>
0

>  <SCORE.SYSTEM.CONST>
0

>  <SCORE.SYSTEM.DIHEDRAL>
0

>  <SCORE.SYSTEM.SOLV>
0

>  <SCORE.SYSTEM.norm>
0

>  <SCORE.heavy>
10

>  <SCORE.norm>
-1.37507

>  <RMSD>
11.760

$$$$
ligand
 OpenBabel11021811503D
libRbt.so/2013.1/901 2013/11/27
 10 11  0  0  0  0  0  0  0  0999 V2000
   -3.6277  -31.0296   25.7570 N   0  0  0  0  0  0  0  0  0  0  0  0
   -4.9382  -31.1742   25.9639 C   0  0  0  0  0  0  0  0  0  0  0  0
   -5.6840  -30.7375   26.9864 N   0  0  0  0  0  0  0  0  0  0  0  0
   -4.9181  -30.0908   27.8858 C   0  0  0  0  0  0  0  0  0  0  0  0
   -3.5570  -29.8634   27.8125 C   0  0  0  0  0  0  0  0  0  0  0  0
   -2.8872  -30.3656   26.6791 C   0  0  0  0  0  0  0  0  0  0  0  0
   -1.5659  -30.2234   26.4873 N   0  0  0  0  0  0  0  0  0  0  0  0
   -3.1116  -29.1573   28.9149 N   0  0  0  0  0  0  0  0  0  0  0  0
   -4.1925  -28.9648   29.6237 C   0  0  0  0  0  0  0  0  0  0  0  0
   -5.3181  -29.5100   29.0655 N   0  0  0  0  0  0  0  0  0  0  0  0
  1  2  2  0  0  0  0
  1  6  1  0  0  0  0
  2  3  1  0  0  0  0
  3  4  2  0  0  0  0
  4  5  1  0  0  0  0
  4 10  1  0  0  0  0
  5  6  2  0  0  0  0
  5  8  1  0  0  0  0
  6  7  1  0  0  0  0
  8  9  1  0  0  0  0
  9 10  2  0  0  0  0
M  END
>  <CHROM.1>
-3.97093202,-30.11320063,27.51182187,1.21071377,-0.16840289,-2.08241539

>  <Name>
ligand

>  <RI>
0

>  <Rbt.Current_Directory>
/home/itssahil/PROJECTS/Mol_Feturizer/New_Systems/rnas/4LW0

>  <Rbt.Executable>
rbdock ($Id: //depot/dev/client3/rdock/2013.1/src/exe/rbdock.cxx#4 $)

>  <Rbt.Library>
libRbt.so (2013.1, Build901 2013/11/27)

>  <Rbt.Parameter_File>
/export/apps/rDock/src/rDock_2013.1_src/data/scripts/dock_solv.prm

>  <Rbt.Receptor>
prm/blind_docking_80.prm

>  <SCORE>
-13.7186

>  <SCORE.INTER>
-13.7186

>  <SCORE.INTER.CONST>
1

>  <SCORE.INTER.POLAR>
0

>  <SCORE.INTER.ROT>
0

>  <SCORE.INTER.SOLV>
6.64187

>  <SCORE.INTER.VDW>
-14.9597

>  <SCORE.INTER.norm>
-1.37186

>  <SCORE.INTRA>
0

>  <SCORE.INTRA.DIHEDRAL>
0

>  <SCORE.INTRA.DIHEDRAL.0>
0

>  <SCORE.INTRA.POLAR>
0

>  <SCORE.INTRA.POLAR.0>
0

>  <SCORE.INTRA.REPUL>
0

>  <SCORE.INTRA.REPUL.0>
0

>  <SCORE.INTRA.SOLV>
0

>  <SCORE.INTRA.SOLV.lig_0>
-23.9151

>  <SCORE.INTRA.VDW>
0

>  <SCORE.INTRA.VDW.0>
0

>  <SCORE.INTRA.norm>
0

>  <SCORE.RESTR>
0

>  <SCORE.RESTR.CAVITY>
0

>  <SCORE.RESTR.norm>
0

>  <SCORE.SYSTEM>
0

>  <SCORE.SYSTEM.CONST>
0

>  <SCORE.SYSTEM.DIHEDRAL>
0

>  <SCORE.SYSTEM.SOLV>
0

>  <SCORE.SYSTEM.norm>
0

>  <SCORE.heavy>
10

>  <SCORE.norm>
-1.37186

>  <RMSD>
11.784

$$$$
ligand
 OpenBabel11021811503D
libRbt.so/2013.1/901 2013/11/27
 10 11  0  0  0  0  0  0  0  0999 V2000
   -3.6492  -31.1482   25.6702 N   0  0  0  0  0  0  0  0  0  0  0  0
   -4.9563  -31.2281   25.9271 C   0  0  0  0  0  0  0  0  0  0  0  0
   -5.6430  -30.7389   26.9671 N   0  0  0  0  0  0  0  0  0  0  0  0
   -4.8155  -30.1126   27.8254 C   0  0  0  0  0  0  0  0  0  0  0  0
   -3.4491  -29.9502   27.6986 C   0  0  0  0  0  0  0  0  0  0  0  0
   -2.8454  -30.5031   26.5517 C   0  0  0  0  0  0  0  0  0  0  0  0
   -1.5269  -30.4260   26.3096 N   0  0  0  0  0  0  0  0  0  0  0  0
   -2.9312  -29.2459   28.7702 N   0  0  0  0  0  0  0  0  0  0  0  0
   -3.9752  -28.9907   29.5137 C   0  0  0  0  0  0  0  0  0  0  0  0
   -5.1445  -29.4928   29.0073 N   0  0  0  0  0  0  0  0  0  0  0  0
  1  2  2  0  0  0  0
  1  6  1  0  0  0  0
  2  3  1  0  0  0  0
  3  4  2  0  0  0  0
  4  5  1  0  0  0  0
  4 10  1  0  0  0  0
  5  6  2  0  0  0  0
  5  8  1  0  0  0  0
  6  7  1  0  0  0  0
  8  9  1  0  0  0  0
  9 10  2  0  0  0  0
M  END
>  <CHROM.1>
-3.88483708,-30.18569911,27.41801533,1.26604921,-0.14629310,-2.09245771

>  <Name>
ligand

>  <RI>
0

>  <Rbt.Current_Directory>
/home/itssahil/PROJECTS/Mol_Feturizer/New_Systems/rnas/4LW0

>  <Rbt.Executable>
rbdock ($Id: //depot/dev/client3/rdock/2013.1/src/exe/rbdock.cxx#4 $)

>  <Rbt.Library>
libRbt.so (2013.1, Build901 2013/11/27)

>  <Rbt.Parameter_File>
/export/apps/rDock/src/rDock_2013.1_src/data/scripts/dock_solv.prm

>  <Rbt.Receptor>
prm/blind_docking_100.prm

>  <SCORE>
-13.808

>  <SCORE.INTER>
-13.808

>  <SCORE.INTER.CONST>
1

>  <SCORE.INTER.POLAR>
0

>  <SCORE.INTER.ROT>
0

>  <SCORE.INTER.SOLV>
7.34575

>  <SCORE.INTER.VDW>
-15.2539

>  <SCORE.INTER.norm>
-1.3808

>  <SCORE.INTRA>
0

>  <SCORE.INTRA.DIHEDRAL>
0

>  <SCORE.INTRA.DIHEDRAL.0>
0

>  <SCORE.INTRA.POLAR>
0

>  <SCORE.INTRA.POLAR.0>
0

>  <SCORE.INTRA.REPUL>
0

>  <SCORE.INTRA.REPUL.0>
0

>  <SCORE.INTRA.SOLV>
0

>  <SCORE.INTRA.SOLV.lig_0>
-23.9151

>  <SCORE.INTRA.VDW>
0

>  <SCORE.INTRA.VDW.0>
0

>  <SCORE.INTRA.norm>
0

>  <SCORE.RESTR>
0

>  <SCORE.RESTR.CAVITY>
0

>  <SCORE.RESTR.norm>
0

>  <SCORE.SYSTEM>
0

>  <SCORE.SYSTEM.CONST>
0

>  <SCORE.SYSTEM.DIHEDRAL>
0

>  <SCORE.SYSTEM.SOLV>
0

>  <SCORE.SYSTEM.norm>
0

>  <SCORE.heavy>
10

>  <SCORE.norm>
-1.3808

>  <RMSD>
11.787

$$$$
ligand
 OpenBabel11021811503D
libRbt.so/2013.1/901 2013/11/27
 10 11  0  0  0  0  0  0  0  0999 V2000
   -3.6617  -31.1503   25.6658 N   0  0  0  0  0  0  0  0  0  0  0  0
   -4.9665  -31.2270   25.9353 C   0  0  0  0  0  0  0  0  0  0  0  0
   -5.6415  -30.7387   26.9832 N   0  0  0  0  0  0  0  0  0  0  0  0
   -4.8040  -30.1169   27.8350 C   0  0  0  0  0  0  0  0  0  0  0  0
   -3.4383  -29.9580   27.6952 C   0  0  0  0  0  0  0  0  0  0  0  0
   -2.8475  -30.5097   26.5411 C   0  0  0  0  0  0  0  0  0  0  0  0
   -1.5312  -30.4357   26.2863 N   0  0  0  0  0  0  0  0  0  0  0  0
   -2.9081  -29.2581   28.7635 N   0  0  0  0  0  0  0  0  0  0  0  0
   -3.9440  -29.0018   29.5178 C   0  0  0  0  0  0  0  0  0  0  0  0
   -5.1196  -29.4992   29.0215 N   0  0  0  0  0  0  0  0  0  0  0  0
  1  2  2  0  0  0  0
  1  6  1  0  0  0  0
  2  3  1  0  0  0  0
  3  4  2  0  0  0  0
  4  5  1  0  0  0  0
  4 10  1  0  0  0  0
  5  6  2  0  0  0  0
  5  8  1  0  0  0  0
  6  7  1  0  0  0  0
  8  9  1  0  0  0  0
  9 10  2  0  0  0  0
M  END
>  <CHROM.1>
-3.87751875,-30.19159929,27.41828937,1.27605474,-0.14866639,-2.08841710

>  <Name>
ligand

>  <RI>
0

>  <Rbt.Current_Directory>
/home/itssahil/PROJECTS/Mol_Feturizer/New_Systems/rnas/4LW0

>  <Rbt.Executable>
rbdock ($Id: //depot/dev/client3/rdock/2013.1/src/exe/rbdock.cxx#4 $)

>  <Rbt.Library>
libRbt.so (2013.1, Build901 2013/11/27)

>  <Rbt.Parameter_File>
/export/apps/rDock/src/rDock_2013.1_src/data/scripts/dock_solv.prm

>  <Rbt.Receptor>
prm/blind_docking_100.prm

>  <SCORE>
-13.7872

>  <SCORE.INTER>
-13.7872

>  <SCORE.INTER.CONST>
1

>  <SCORE.INTER.POLAR>
0

>  <SCORE.INTER.ROT>
0

>  <SCORE.INTER.SOLV>
7.44606

>  <SCORE.INTER.VDW>
-15.2735

>  <SCORE.INTER.norm>
-1.37872

>  <SCORE.INTRA>
0

>  <SCORE.INTRA.DIHEDRAL>
0

>  <SCORE.INTRA.DIHEDRAL.0>
0

>  <SCORE.INTRA.POLAR>
0

>  <SCORE.INTRA.POLAR.0>
0

>  <SCORE.INTRA.REPUL>
0

>  <SCORE.INTRA.REPUL.0>
0

>  <SCORE.INTRA.SOLV>
0

>  <SCORE.INTRA.SOLV.lig_0>
-23.9151

>  <SCORE.INTRA.VDW>
0

>  <SCORE.INTRA.VDW.0>
0

>  <SCORE.INTRA.norm>
0

>  <SCORE.RESTR>
0

>  <SCORE.RESTR.CAVITY>
0

>  <SCORE.RESTR.norm>
0

>  <SCORE.SYSTEM>
0

>  <SCORE.SYSTEM.CONST>
0

>  <SCORE.SYSTEM.DIHEDRAL>
0

>  <SCORE.SYSTEM.SOLV>
0

>  <SCORE.SYSTEM.norm>
0

>  <SCORE.heavy>
10

>  <SCORE.norm>
-1.37872

>  <RMSD>
11.788

$$$$
ligand
 OpenBabel11021811503D
libRbt.so/2013.1/901 2013/11/27
 10 11  0  0  0  0  0  0  0  0999 V2000
   -3.6663  -31.0054   25.7877 N   0  0  0  0  0  0  0  0  0  0  0  0
   -4.9769  -31.1460   25.9964 C   0  0  0  0  0  0  0  0  0  0  0  0
   -5.7194  -30.7091   27.0212 N   0  0  0  0  0  0  0  0  0  0  0  0
   -4.9498  -30.0671   27.9207 C   0  0  0  0  0  0  0  0  0  0  0  0
   -3.5881  -29.8443   27.8457 C   0  0  0  0  0  0  0  0  0  0  0  0
   -2.9219  -30.3462   26.7100 C   0  0  0  0  0  0  0  0  0  0  0  0
   -1.6004  -30.2082   26.5163 N   0  0  0  0  0  0  0  0  0  0  0  0
   -3.1383  -29.1423   28.9490 N   0  0  0  0  0  0  0  0  0  0  0  0
   -4.2174  -28.9477   29.6601 C   0  0  0  0  0  0  0  0  0  0  0  0
   -5.3458  -29.4876   29.1025 N   0  0  0  0  0  0  0  0  0  0  0  0
  1  2  2  0  0  0  0
  1  6  1  0  0  0  0
  2  3  1  0  0  0  0
  3  4  2  0  0  0  0
  4  5  1  0  0  0  0
  4 10  1  0  0  0  0
  5  6  2  0  0  0  0
  5  8  1  0  0  0  0
  6  7  1  0  0  0  0
  8  9  1  0  0  0  0
  9 10  2  0  0  0  0
M  END
>  <CHROM.1>
-4.00335593,-30.09191855,27.54514553,1.21392548,-0.16618828,-2.07956625

>  <Name>
ligand

>  <RI>
0

>  <Rbt.Current_Directory>
/home/itssahil/PROJECTS/Mol_Feturizer/New_Systems/rnas/4LW0

>  <Rbt.Executable>
rbdock ($Id: //depot/dev/client3/rdock/2013.1/src/exe/rbdock.cxx#4 $)

>  <Rbt.Library>
libRbt.so (2013.1, Build901 2013/11/27)

>  <Rbt.Parameter_File>
/export/apps/rDock/src/rDock_2013.1_src/data/scripts/dock_solv.prm

>  <Rbt.Receptor>
prm/blind_docking_100.prm

>  <SCORE>
-13.7299

>  <SCORE.INTER>
-13.7299

>  <SCORE.INTER.CONST>
1

>  <SCORE.INTER.POLAR>
0

>  <SCORE.INTER.ROT>
0

>  <SCORE.INTER.SOLV>
6.58757

>  <SCORE.INTER.VDW>
-14.9491

>  <SCORE.INTER.norm>
-1.37299

>  <SCORE.INTRA>
0

>  <SCORE.INTRA.DIHEDRAL>
0

>  <SCORE.INTRA.DIHEDRAL.0>
0

>  <SCORE.INTRA.POLAR>
0

>  <SCORE.INTRA.POLAR.0>
0

>  <SCORE.INTRA.REPUL>
0

>  <SCORE.INTRA.REPUL.0>
0

>  <SCORE.INTRA.SOLV>
0

>  <SCORE.INTRA.SOLV.lig_0>
-23.9151

>  <SCORE.INTRA.VDW>
0

>  <SCORE.INTRA.VDW.0>
0

>  <SCORE.INTRA.norm>
0

>  <SCORE.RESTR>
0

>  <SCORE.RESTR.CAVITY>
0

>  <SCORE.RESTR.norm>
0

>  <SCORE.SYSTEM>
0

>  <SCORE.SYSTEM.CONST>
0

>  <SCORE.SYSTEM.DIHEDRAL>
0

>  <SCORE.SYSTEM.SOLV>
0

>  <SCORE.SYSTEM.norm>
0

>  <SCORE.heavy>
10

>  <SCORE.norm>
-1.37299

>  <RMSD>
11.789

$$$$
ligand
 OpenBabel11021811503D
libRbt.so/2013.1/901 2013/11/27
 10 11  0  0  0  0  0  0  0  0999 V2000
   -3.6524  -31.0077   25.7372 N   0  0  0  0  0  0  0  0  0  0  0  0
   -4.9613  -31.1524   25.9534 C   0  0  0  0  0  0  0  0  0  0  0  0
   -5.6967  -30.7317   26.9900 N   0  0  0  0  0  0  0  0  0  0  0  0
   -4.9210  -30.1030   27.8937 C   0  0  0  0  0  0  0  0  0  0  0  0
   -3.5599  -29.8781   27.8121 C   0  0  0  0  0  0  0  0  0  0  0  0
   -2.9018  -30.3621   26.6641 C   0  0  0  0  0  0  0  0  0  0  0  0
   -1.5817  -30.2202   26.4630 N   0  0  0  0  0  0  0  0  0  0  0  0
   -3.1026  -29.1927   28.9228 N   0  0  0  0  0  0  0  0  0  0  0  0
   -4.1766  -29.0098   29.6446 C   0  0  0  0  0  0  0  0  0  0  0  0
   -5.3087  -29.5420   29.0870 N   0  0  0  0  0  0  0  0  0  0  0  0
  1  2  2  0  0  0  0
  1  6  1  0  0  0  0
  2  3  1  0  0  0  0
  3  4  2  0  0  0  0
  4  5  1  0  0  0  0
  4 10  1  0  0  0  0
  5  6  2  0  0  0  0
  5  8  1  0  0  0  0
  6  7  1  0  0  0  0
  8  9  1  0  0  0  0
  9 10  2  0  0  0  0
M  END
>  <CHROM.1>
-3.97721635,-30.12140856,27.51089249,1.22007200,-0.17025026,-2.06324108

>  <Name>
ligand

>  <RI>
0

>  <Rbt.Current_Directory>
/home/itssahil/PROJECTS/Mol_Feturizer/New_Systems/rnas/4LW0

>  <Rbt.Executable>
rbdock ($Id: //depot/dev/client3/rdock/2013.1/src/exe/rbdock.cxx#4 $)

>  <Rbt.Library>
libRbt.so (2013.1, Build901 2013/11/27)

>  <Rbt.Parameter_File>
/export/apps/rDock/src/rDock_2013.1_src/data/scripts/dock_solv.prm

>  <Rbt.Receptor>
prm/blind_docking_60.prm

>  <SCORE>
-13.7332

>  <SCORE.INTER>
-13.7333

>  <SCORE.INTER.CONST>
1

>  <SCORE.INTER.POLAR>
0

>  <SCORE.INTER.ROT>
0

>  <SCORE.INTER.SOLV>
6.69478

>  <SCORE.INTER.VDW>
-14.9871

>  <SCORE.INTER.norm>
-1.37333

>  <SCORE.INTRA>
0

>  <SCORE.INTRA.DIHEDRAL>
0

>  <SCORE.INTRA.DIHEDRAL.0>
0

>  <SCORE.INTRA.POLAR>
0

>  <SCORE.INTRA.POLAR.0>
0

>  <SCORE.INTRA.REPUL>
0

>  <SCORE.INTRA.REPUL.0>
0

>  <SCORE.INTRA.SOLV>
0

>  <SCORE.INTRA.SOLV.lig_0>
-23.9151

>  <SCORE.INTRA.VDW>
0

>  <SCORE.INTRA.VDW.0>
0

>  <SCORE.INTRA.norm>
0

>  <SCORE.RESTR>
7.545e-05

>  <SCORE.RESTR.CAVITY>
7.545e-05

>  <SCORE.RESTR.norm>
7.545e-06

>  <SCORE.SYSTEM>
0

>  <SCORE.SYSTEM.CONST>
0

>  <SCORE.SYSTEM.DIHEDRAL>
0

>  <SCORE.SYSTEM.SOLV>
0

>  <SCORE.SYSTEM.norm>
0

>  <SCORE.heavy>
10

>  <SCORE.norm>
-1.37332

>  <RMSD>
11.793

$$$$
ligand
 OpenBabel11021811503D
libRbt.so/2013.1/901 2013/11/27
 10 11  0  0  0  0  0  0  0  0999 V2000
   -3.7089  -31.1495   25.6990 N   0  0  0  0  0  0  0  0  0  0  0  0
   -5.0173  -31.2133   25.9541 C   0  0  0  0  0  0  0  0  0  0  0  0
   -5.7009  -30.7057   26.9872 N   0  0  0  0  0  0  0  0  0  0  0  0
   -4.8689  -30.0782   27.8402 C   0  0  0  0  0  0  0  0  0  0  0  0
   -3.5006  -29.9310   27.7144 C   0  0  0  0  0  0  0  0  0  0  0  0
   -2.9003  -30.5027   26.5750 C   0  0  0  0  0  0  0  0  0  0  0  0
   -1.5807  -30.4417   26.3347 N   0  0  0  0  0  0  0  0  0  0  0  0
   -2.9777  -29.2202   28.7792 N   0  0  0  0  0  0  0  0  0  0  0  0
   -4.0205  -28.9462   29.5176 C   0  0  0  0  0  0  0  0  0  0  0  0
   -5.1939  -29.4420   29.0144 N   0  0  0  0  0  0  0  0  0  0  0  0
  1  2  2  0  0  0  0
  1  6  1  0  0  0  0
  2  3  1  0  0  0  0
  3  4  2  0  0  0  0
  4  5  1  0  0  0  0
  4 10  1  0  0  0  0
  5  6  2  0  0  0  0
  5  8  1  0  0  0  0
  6  7  1  0  0  0  0
  8  9  1  0  0  0  0
  9 10  2  0  0  0  0
M  END
>  <CHROM.1>
-3.93817838,-30.16525823,27.43554625,1.26943737,-0.13654430,-2.10310698

>  <Name>
ligand

>  <RI>
0

>  <Rbt.Current_Directory>
/home/itssahil/PROJECTS/Mol_Feturizer/New_Systems/rnas/4LW0

>  <Rbt.Executable>
rbdock ($Id: //depot/dev/client3/rdock/2013.1/src/exe/rbdock.cxx#4 $)

>  <Rbt.Library>
libRbt.so (2013.1, Build901 2013/11/27)

>  <Rbt.Parameter_File>
/export/apps/rDock/src/rDock_2013.1_src/data/scripts/dock_solv.prm

>  <Rbt.Receptor>
prm/blind_docking_100.prm

>  <SCORE>
-13.7705

>  <SCORE.INTER>
-13.7705

>  <SCORE.INTER.CONST>
1

>  <SCORE.INTER.POLAR>
0

>  <SCORE.INTER.ROT>
0

>  <SCORE.INTER.SOLV>
7.40762

>  <SCORE.INTER.VDW>
-15.2495

>  <SCORE.INTER.norm>
-1.37705

>  <SCORE.INTRA>
0

>  <SCORE.INTRA.DIHEDRAL>
0

>  <SCORE.INTRA.DIHEDRAL.0>
0

>  <SCORE.INTRA.POLAR>
0

>  <SCORE.INTRA.POLAR.0>
0

>  <SCORE.INTRA.REPUL>
0

>  <SCORE.INTRA.REPUL.0>
0

>  <SCORE.INTRA.SOLV>
0

>  <SCORE.INTRA.SOLV.lig_0>
-23.9151

>  <SCORE.INTRA.VDW>
0

>  <SCORE.INTRA.VDW.0>
0

>  <SCORE.INTRA.norm>
0

>  <SCORE.RESTR>
0

>  <SCORE.RESTR.CAVITY>
0

>  <SCORE.RESTR.norm>
0

>  <SCORE.SYSTEM>
0

>  <SCORE.SYSTEM.CONST>
0

>  <SCORE.SYSTEM.DIHEDRAL>
0

>  <SCORE.SYSTEM.SOLV>
0

>  <SCORE.SYSTEM.norm>
0

>  <SCORE.heavy>
10

>  <SCORE.norm>
-1.37705

>  <RMSD>
11.801

$$$$
ligand
 OpenBabel11021811503D
libRbt.so/2013.1/901 2013/11/27
 10 11  0  0  0  0  0  0  0  0999 V2000
   -2.8265  -30.6678   25.9552 N   0  0  0  0  0  0  0  0  0  0  0  0
   -4.0108  -31.1676   25.5964 C   0  0  0  0  0  0  0  0  0  0  0  0
   -5.1909  -31.0723   26.2214 N   0  0  0  0  0  0  0  0  0  0  0  0
   -5.0630  -30.3740   27.3658 C   0  0  0  0  0  0  0  0  0  0  0  0
   -3.9109  -29.7993   27.8682 C   0  0  0  0  0  0  0  0  0  0  0  0
   -2.7346  -29.9624   27.1099 C   0  0  0  0  0  0  0  0  0  0  0  0
   -1.5461  -29.4641   27.4869 N   0  0  0  0  0  0  0  0  0  0  0  0
   -4.1600  -29.1523   29.0647 N   0  0  0  0  0  0  0  0  0  0  0  0
   -5.4387  -29.3357   29.2620 C   0  0  0  0  0  0  0  0  0  0  0  0
   -6.0446  -30.0727   28.2794 N   0  0  0  0  0  0  0  0  0  0  0  0
  1  2  2  0  0  0  0
  1  6  1  0  0  0  0
  2  3  1  0  0  0  0
  3  4  2  0  0  0  0
  4  5  1  0  0  0  0
  4 10  1  0  0  0  0
  5  6  2  0  0  0  0
  5  8  1  0  0  0  0
  6  7  1  0  0  0  0
  8  9  1  0  0  0  0
  9 10  2  0  0  0  0
M  END
>  <CHROM.1>
-4.08193821,-30.10520001,27.41949166,0.69299760,-0.20274510,-2.10400392

>  <Name>
ligand

>  <RI>
0

>  <Rbt.Current_Directory>
/home/itssahil/PROJECTS/Mol_Feturizer/New_Systems/rnas/4LW0

>  <Rbt.Executable>
rbdock ($Id: //depot/dev/client3/rdock/2013.1/src/exe/rbdock.cxx#4 $)

>  <Rbt.Library>
libRbt.so (2013.1, Build901 2013/11/27)

>  <Rbt.Parameter_File>
/export/apps/rDock/src/rDock_2013.1_src/data/scripts/dock_solv.prm

>  <Rbt.Receptor>
prm/blind_docking_100.prm

>  <SCORE>
-13.1813

>  <SCORE.INTER>
-13.1813

>  <SCORE.INTER.CONST>
1

>  <SCORE.INTER.POLAR>
0

>  <SCORE.INTER.ROT>
0

>  <SCORE.INTER.SOLV>
6.2813

>  <SCORE.INTER.VDW>
-14.4813

>  <SCORE.INTER.norm>
-1.31813

>  <SCORE.INTRA>
0

>  <SCORE.INTRA.DIHEDRAL>
0

>  <SCORE.INTRA.DIHEDRAL.0>
0

>  <SCORE.INTRA.POLAR>
0

>  <SCORE.INTRA.POLAR.0>
0

>  <SCORE.INTRA.REPUL>
0

>  <SCORE.INTRA.REPUL.0>
0

>  <SCORE.INTRA.SOLV>
0

>  <SCORE.INTRA.SOLV.lig_0>
-23.9151

>  <SCORE.INTRA.VDW>
0

>  <SCORE.INTRA.VDW.0>
0

>  <SCORE.INTRA.norm>
0

>  <SCORE.RESTR>
0

>  <SCORE.RESTR.CAVITY>
0

>  <SCORE.RESTR.norm>
0

>  <SCORE.SYSTEM>
0

>  <SCORE.SYSTEM.CONST>
0

>  <SCORE.SYSTEM.DIHEDRAL>
0

>  <SCORE.SYSTEM.SOLV>
0

>  <SCORE.SYSTEM.norm>
0

>  <SCORE.heavy>
10

>  <SCORE.norm>
-1.31813

>  <RMSD>
11.802

$$$$
ligand
 OpenBabel11021811503D
libRbt.so/2013.1/901 2013/11/27
 10 11  0  0  0  0  0  0  0  0999 V2000
   -3.6026  -31.0476   25.7585 N   0  0  0  0  0  0  0  0  0  0  0  0
   -4.9151  -31.1848   25.9573 C   0  0  0  0  0  0  0  0  0  0  0  0
   -5.6627  -30.7549   26.9813 N   0  0  0  0  0  0  0  0  0  0  0  0
   -4.8964  -30.1249   27.8922 C   0  0  0  0  0  0  0  0  0  0  0  0
   -3.5333  -29.9070   27.8283 C   0  0  0  0  0  0  0  0  0  0  0  0
   -2.8617  -30.4005   26.6921 C   0  0  0  0  0  0  0  0  0  0  0  0
   -1.5384  -30.2660   26.5085 N   0  0  0  0  0  0  0  0  0  0  0  0
   -3.0880  -29.2177   28.9414 N   0  0  0  0  0  0  0  0  0  0  0  0
   -4.1710  -29.0256   29.6472 C   0  0  0  0  0  0  0  0  0  0  0  0
   -5.2979  -29.5555   29.0769 N   0  0  0  0  0  0  0  0  0  0  0  0
  1  2  2  0  0  0  0
  1  6  1  0  0  0  0
  2  3  1  0  0  0  0
  3  4  2  0  0  0  0
  4  5  1  0  0  0  0
  4 10  1  0  0  0  0
  5  6  2  0  0  0  0
  5  8  1  0  0  0  0
  6  7  1  0  0  0  0
  8  9  1  0  0  0  0
  9 10  2  0  0  0  0
M  END
>  <CHROM.1>
-3.94761153,-30.14998035,27.52261336,1.21007403,-0.15943664,-2.07037962

>  <Name>
ligand

>  <RI>
0

>  <Rbt.Current_Directory>
/home/itssahil/PROJECTS/Mol_Feturizer/New_Systems/rnas/4LW0

>  <Rbt.Executable>
rbdock ($Id: //depot/dev/client3/rdock/2013.1/src/exe/rbdock.cxx#4 $)

>  <Rbt.Library>
libRbt.so (2013.1, Build901 2013/11/27)

>  <Rbt.Parameter_File>
/export/apps/rDock/src/rDock_2013.1_src/data/scripts/dock_solv.prm

>  <Rbt.Receptor>
prm/blind_docking_80.prm

>  <SCORE>
-13.7999

>  <SCORE.INTER>
-13.7999

>  <SCORE.INTER.CONST>
1

>  <SCORE.INTER.POLAR>
0

>  <SCORE.INTER.ROT>
0

>  <SCORE.INTER.SOLV>
6.67332

>  <SCORE.INTER.VDW>
-15.0244

>  <SCORE.INTER.norm>
-1.37999

>  <SCORE.INTRA>
0

>  <SCORE.INTRA.DIHEDRAL>
0

>  <SCORE.INTRA.DIHEDRAL.0>
0

>  <SCORE.INTRA.POLAR>
0

>  <SCORE.INTRA.POLAR.0>
0

>  <SCORE.INTRA.REPUL>
0

>  <SCORE.INTRA.REPUL.0>
0

>  <SCORE.INTRA.SOLV>
0

>  <SCORE.INTRA.SOLV.lig_0>
-23.9151

>  <SCORE.INTRA.VDW>
0

>  <SCORE.INTRA.VDW.0>
0

>  <SCORE.INTRA.norm>
0

>  <SCORE.RESTR>
0

>  <SCORE.RESTR.CAVITY>
0

>  <SCORE.RESTR.norm>
0

>  <SCORE.SYSTEM>
0

>  <SCORE.SYSTEM.CONST>
0

>  <SCORE.SYSTEM.DIHEDRAL>
0

>  <SCORE.SYSTEM.SOLV>
0

>  <SCORE.SYSTEM.norm>
0

>  <SCORE.heavy>
10

>  <SCORE.norm>
-1.37999

>  <RMSD>
11.803

$$$$
ligand
 OpenBabel11021811503D
libRbt.so/2013.1/901 2013/11/27
 10 11  0  0  0  0  0  0  0  0999 V2000
   -3.7459  -31.1549   25.6230 N   0  0  0  0  0  0  0  0  0  0  0  0
   -5.0482  -31.1973   25.9119 C   0  0  0  0  0  0  0  0  0  0  0  0
   -5.6934  -30.6976   26.9731 N   0  0  0  0  0  0  0  0  0  0  0  0
   -4.8261  -30.1053   27.8160 C   0  0  0  0  0  0  0  0  0  0  0  0
   -3.4588  -29.9834   27.6564 C   0  0  0  0  0  0  0  0  0  0  0  0
   -2.9011  -30.5433   26.4898 C   0  0  0  0  0  0  0  0  0  0  0  0
   -1.5873  -30.5042   26.2154 N   0  0  0  0  0  0  0  0  0  0  0  0
   -2.8931  -29.3059   28.7210 N   0  0  0  0  0  0  0  0  0  0  0  0
   -3.9100  -29.0262   29.4927 C   0  0  0  0  0  0  0  0  0  0  0  0
   -5.1064  -29.4874   29.0113 N   0  0  0  0  0  0  0  0  0  0  0  0
  1  2  2  0  0  0  0
  1  6  1  0  0  0  0
  2  3  1  0  0  0  0
  3  4  2  0  0  0  0
  4  5  1  0  0  0  0
  4 10  1  0  0  0  0
  5  6  2  0  0  0  0
  5  8  1  0  0  0  0
  6  7  1  0  0  0  0
  8  9  1  0  0  0  0
  9 10  2  0  0  0  0
M  END
>  <CHROM.1>
-3.90845678,-30.20280603,27.38474648,1.30321127,-0.13185875,-2.07789228

>  <Name>
ligand

>  <RI>
0

>  <Rbt.Current_Directory>
/home/itssahil/PROJECTS/Mol_Feturizer/New_Systems/rnas/4LW0

>  <Rbt.Executable>
rbdock ($Id: //depot/dev/client3/rdock/2013.1/src/exe/rbdock.cxx#4 $)

>  <Rbt.Library>
libRbt.so (2013.1, Build901 2013/11/27)

>  <Rbt.Parameter_File>
/export/apps/rDock/src/rDock_2013.1_src/data/scripts/dock_solv.prm

>  <Rbt.Receptor>
prm/blind_docking_60.prm

>  <SCORE>
-13.7356

>  <SCORE.INTER>
-13.7365

>  <SCORE.INTER.CONST>
1

>  <SCORE.INTER.POLAR>
0

>  <SCORE.INTER.ROT>
0

>  <SCORE.INTER.SOLV>
7.935

>  <SCORE.INTER.VDW>
-15.4027

>  <SCORE.INTER.norm>
-1.37365

>  <SCORE.INTRA>
0

>  <SCORE.INTRA.DIHEDRAL>
0

>  <SCORE.INTRA.DIHEDRAL.0>
0

>  <SCORE.INTRA.POLAR>
0

>  <SCORE.INTRA.POLAR.0>
0

>  <SCORE.INTRA.REPUL>
0

>  <SCORE.INTRA.REPUL.0>
0

>  <SCORE.INTRA.SOLV>
0

>  <SCORE.INTRA.SOLV.lig_0>
-23.9151

>  <SCORE.INTRA.VDW>
0

>  <SCORE.INTRA.VDW.0>
0

>  <SCORE.INTRA.norm>
0

>  <SCORE.RESTR>
0.00091125

>  <SCORE.RESTR.CAVITY>
0.00091125

>  <SCORE.RESTR.norm>
9.1125e-05

>  <SCORE.SYSTEM>
0

>  <SCORE.SYSTEM.CONST>
0

>  <SCORE.SYSTEM.DIHEDRAL>
0

>  <SCORE.SYSTEM.SOLV>
0

>  <SCORE.SYSTEM.norm>
0

>  <SCORE.heavy>
10

>  <SCORE.norm>
-1.37356

>  <RMSD>
11.809

$$$$
ligand
 OpenBabel11021811503D
libRbt.so/2013.1/901 2013/11/27
 10 11  0  0  0  0  0  0  0  0999 V2000
   -3.7188  -31.1465   25.7074 N   0  0  0  0  0  0  0  0  0  0  0  0
   -5.0287  -31.2076   25.9553 C   0  0  0  0  0  0  0  0  0  0  0  0
   -5.7168  -30.7003   26.9856 N   0  0  0  0  0  0  0  0  0  0  0  0
   -4.8878  -30.0764   27.8443 C   0  0  0  0  0  0  0  0  0  0  0  0
   -3.5186  -29.9322   27.7261 C   0  0  0  0  0  0  0  0  0  0  0  0
   -2.9135  -30.5033   26.5889 C   0  0  0  0  0  0  0  0  0  0  0  0
   -1.5924  -30.4449   26.3559 N   0  0  0  0  0  0  0  0  0  0  0  0
   -2.9998  -29.2247   28.7951 N   0  0  0  0  0  0  0  0  0  0  0  0
   -4.0459  -28.9495   29.5284 C   0  0  0  0  0  0  0  0  0  0  0  0
   -5.2177  -29.4416   29.0179 N   0  0  0  0  0  0  0  0  0  0  0  0
  1  2  2  0  0  0  0
  1  6  1  0  0  0  0
  2  3  1  0  0  0  0
  3  4  2  0  0  0  0
  4  5  1  0  0  0  0
  4 10  1  0  0  0  0
  5  6  2  0  0  0  0
  5  8  1  0  0  0  0
  6  7  1  0  0  0  0
  8  9  1  0  0  0  0
  9 10  2  0  0  0  0
M  END
>  <CHROM.1>
-3.95519004,-30.16490609,27.44448766,1.26594643,-0.13173357,-2.10169354

>  <Name>
ligand

>  <RI>
0

>  <Rbt.Current_Directory>
/home/itssahil/PROJECTS/Mol_Feturizer/New_Systems/rnas/4LW0

>  <Rbt.Executable>
rbdock ($Id: //depot/dev/client3/rdock/2013.1/src/exe/rbdock.cxx#4 $)

>  <Rbt.Library>
libRbt.so (2013.1, Build901 2013/11/27)

>  <Rbt.Parameter_File>
/export/apps/rDock/src/rDock_2013.1_src/data/scripts/dock_solv.prm

>  <Rbt.Receptor>
prm/blind_docking_60.prm

>  <SCORE>
-13.7718

>  <SCORE.INTER>
-13.7718

>  <SCORE.INTER.CONST>
1

>  <SCORE.INTER.POLAR>
0

>  <SCORE.INTER.ROT>
0

>  <SCORE.INTER.SOLV>
7.3905

>  <SCORE.INTER.VDW>
-15.2447

>  <SCORE.INTER.norm>
-1.37718

>  <SCORE.INTRA>
0

>  <SCORE.INTRA.DIHEDRAL>
0

>  <SCORE.INTRA.DIHEDRAL.0>
0

>  <SCORE.INTRA.POLAR>
0

>  <SCORE.INTRA.POLAR.0>
0

>  <SCORE.INTRA.REPUL>
0

>  <SCORE.INTRA.REPUL.0>
0

>  <SCORE.INTRA.SOLV>
0

>  <SCORE.INTRA.SOLV.lig_0>
-23.9151

>  <SCORE.INTRA.VDW>
0

>  <SCORE.INTRA.VDW.0>
0

>  <SCORE.INTRA.norm>
0

>  <SCORE.RESTR>
0

>  <SCORE.RESTR.CAVITY>
0

>  <SCORE.RESTR.norm>
0

>  <SCORE.SYSTEM>
0

>  <SCORE.SYSTEM.CONST>
0

>  <SCORE.SYSTEM.DIHEDRAL>
0

>  <SCORE.SYSTEM.SOLV>
0

>  <SCORE.SYSTEM.norm>
0

>  <SCORE.heavy>
10

>  <SCORE.norm>
-1.37718

>  <RMSD>
11.811

$$$$
ligand
 OpenBabel11021811503D
libRbt.so/2013.1/901 2013/11/27
 10 11  0  0  0  0  0  0  0  0999 V2000
   -3.7516  -31.1706   25.7057 N   0  0  0  0  0  0  0  0  0  0  0  0
   -5.0594  -31.2219   25.9667 C   0  0  0  0  0  0  0  0  0  0  0  0
   -5.7350  -30.6991   26.9975 N   0  0  0  0  0  0  0  0  0  0  0  0
   -4.8947  -30.0698   27.8410 C   0  0  0  0  0  0  0  0  0  0  0  0
   -3.5259  -29.9343   27.7082 C   0  0  0  0  0  0  0  0  0  0  0  0
   -2.9346  -30.5216   26.5721 C   0  0  0  0  0  0  0  0  0  0  0  0
   -1.6155  -30.4730   26.3259 N   0  0  0  0  0  0  0  0  0  0  0  0
   -2.9933  -29.2172   28.7640 N   0  0  0  0  0  0  0  0  0  0  0  0
   -4.0309  -28.9281   29.5039 C   0  0  0  0  0  0  0  0  0  0  0  0
   -5.2101  -29.4198   29.0102 N   0  0  0  0  0  0  0  0  0  0  0  0
  1  2  2  0  0  0  0
  1  6  1  0  0  0  0
  2  3  1  0  0  0  0
  3  4  2  0  0  0  0
  4  5  1  0  0  0  0
  4 10  1  0  0  0  0
  5  6  2  0  0  0  0
  5  8  1  0  0  0  0
  6  7  1  0  0  0  0
  8  9  1  0  0  0  0
  9 10  2  0  0  0  0
M  END
>  <CHROM.1>
-3.96635964,-30.16788023,27.43347296,1.27688358,-0.13205995,-2.11180325

>  <Name>
ligand

>  <RI>
0

>  <Rbt.Current_Directory>
/home/itssahil/PROJECTS/Mol_Feturizer/New_Systems/rnas/4LW0

>  <Rbt.Executable>
rbdock ($Id: //depot/dev/client3/rdock/2013.1/src/exe/rbdock.cxx#4 $)

>  <Rbt.Library>
libRbt.so (2013.1, Build901 2013/11/27)

>  <Rbt.Parameter_File>
/export/apps/rDock/src/rDock_2013.1_src/data/scripts/dock_solv.prm

>  <Rbt.Receptor>
prm/blind_docking_60.prm

>  <SCORE>
-13.7721

>  <SCORE.INTER>
-13.7721

>  <SCORE.INTER.CONST>
1

>  <SCORE.INTER.POLAR>
0

>  <SCORE.INTER.ROT>
0

>  <SCORE.INTER.SOLV>
7.56622

>  <SCORE.INTER.VDW>
-15.3035

>  <SCORE.INTER.norm>
-1.37721

>  <SCORE.INTRA>
0

>  <SCORE.INTRA.DIHEDRAL>
0

>  <SCORE.INTRA.DIHEDRAL.0>
0

>  <SCORE.INTRA.POLAR>
0

>  <SCORE.INTRA.POLAR.0>
0

>  <SCORE.INTRA.REPUL>
0

>  <SCORE.INTRA.REPUL.0>
0

>  <SCORE.INTRA.SOLV>
0

>  <SCORE.INTRA.SOLV.lig_0>
-23.9151

>  <SCORE.INTRA.VDW>
0

>  <SCORE.INTRA.VDW.0>
0

>  <SCORE.INTRA.norm>
0

>  <SCORE.RESTR>
0

>  <SCORE.RESTR.CAVITY>
0

>  <SCORE.RESTR.norm>
0

>  <SCORE.SYSTEM>
0

>  <SCORE.SYSTEM.CONST>
0

>  <SCORE.SYSTEM.DIHEDRAL>
0

>  <SCORE.SYSTEM.SOLV>
0

>  <SCORE.SYSTEM.norm>
0

>  <SCORE.heavy>
10

>  <SCORE.norm>
-1.37721

>  <RMSD>
11.818

$$$$
ligand
 OpenBabel11021811503D
libRbt.so/2013.1/901 2013/11/27
 10 11  0  0  0  0  0  0  0  0999 V2000
   -3.7532  -31.1474   25.7054 N   0  0  0  0  0  0  0  0  0  0  0  0
   -5.0616  -31.2067   25.9614 C   0  0  0  0  0  0  0  0  0  0  0  0
   -5.7427  -30.6975   26.9955 N   0  0  0  0  0  0  0  0  0  0  0  0
   -4.9077  -30.0739   27.8484 C   0  0  0  0  0  0  0  0  0  0  0  0
   -3.5390  -29.9315   27.7217 C   0  0  0  0  0  0  0  0  0  0  0  0
   -2.9417  -30.5044   26.5814 C   0  0  0  0  0  0  0  0  0  0  0  0
   -1.6220  -30.4479   26.3402 N   0  0  0  0  0  0  0  0  0  0  0  0
   -3.0128  -29.2235   28.7868 N   0  0  0  0  0  0  0  0  0  0  0  0
   -4.0541  -28.9464   29.5262 C   0  0  0  0  0  0  0  0  0  0  0  0
   -5.2296  -29.4376   29.0234 N   0  0  0  0  0  0  0  0  0  0  0  0
  1  2  2  0  0  0  0
  1  6  1  0  0  0  0
  2  3  1  0  0  0  0
  3  4  2  0  0  0  0
  4  5  1  0  0  0  0
  4 10  1  0  0  0  0
  5  6  2  0  0  0  0
  5  8  1  0  0  0  0
  6  7  1  0  0  0  0
  8  9  1  0  0  0  0
  9 10  2  0  0  0  0
M  END
>  <CHROM.1>
-3.97767543,-30.16390602,27.44298924,1.27191651,-0.13379919,-2.10187044

>  <Name>
ligand

>  <RI>
0

>  <Rbt.Current_Directory>
/home/itssahil/PROJECTS/Mol_Feturizer/New_Systems/rnas/4LW0

>  <Rbt.Executable>
rbdock ($Id: //depot/dev/client3/rdock/2013.1/src/exe/rbdock.cxx#4 $)

>  <Rbt.Library>
libRbt.so (2013.1, Build901 2013/11/27)

>  <Rbt.Parameter_File>
/export/apps/rDock/src/rDock_2013.1_src/data/scripts/dock_solv.prm

>  <Rbt.Receptor>
prm/blind_docking_60.prm

>  <SCORE>
-13.793

>  <SCORE.INTER>
-13.793

>  <SCORE.INTER.CONST>
1

>  <SCORE.INTER.POLAR>
0

>  <SCORE.INTER.ROT>
0

>  <SCORE.INTER.SOLV>
7.45935

>  <SCORE.INTER.VDW>
-15.2818

>  <SCORE.INTER.norm>
-1.3793

>  <SCORE.INTRA>
0

>  <SCORE.INTRA.DIHEDRAL>
0

>  <SCORE.INTRA.DIHEDRAL.0>
0

>  <SCORE.INTRA.POLAR>
0

>  <SCORE.INTRA.POLAR.0>
0

>  <SCORE.INTRA.REPUL>
0

>  <SCORE.INTRA.REPUL.0>
0

>  <SCORE.INTRA.SOLV>
0

>  <SCORE.INTRA.SOLV.lig_0>
-23.9151

>  <SCORE.INTRA.VDW>
0

>  <SCORE.INTRA.VDW.0>
0

>  <SCORE.INTRA.norm>
0

>  <SCORE.RESTR>
0

>  <SCORE.RESTR.CAVITY>
0

>  <SCORE.RESTR.norm>
0

>  <SCORE.SYSTEM>
0

>  <SCORE.SYSTEM.CONST>
0

>  <SCORE.SYSTEM.DIHEDRAL>
0

>  <SCORE.SYSTEM.SOLV>
0

>  <SCORE.SYSTEM.norm>
0

>  <SCORE.heavy>
10

>  <SCORE.norm>
-1.3793

>  <RMSD>
11.822

$$$$
ligand
 OpenBabel11021811503D
libRbt.so/2013.1/901 2013/11/27
 10 11  0  0  0  0  0  0  0  0999 V2000
   -3.7238  -31.1400   25.6893 N   0  0  0  0  0  0  0  0  0  0  0  0
   -5.0309  -31.2090   25.9497 C   0  0  0  0  0  0  0  0  0  0  0  0
   -5.7093  -30.7225   26.9963 N   0  0  0  0  0  0  0  0  0  0  0  0
   -4.8730  -30.1125   27.8576 C   0  0  0  0  0  0  0  0  0  0  0  0
   -3.5053  -29.9627   27.7279 C   0  0  0  0  0  0  0  0  0  0  0  0
   -2.9109  -30.5111   26.5741 C   0  0  0  0  0  0  0  0  0  0  0  0
   -1.5924  -30.4451   26.3285 N   0  0  0  0  0  0  0  0  0  0  0  0
   -2.9771  -29.2736   28.8043 N   0  0  0  0  0  0  0  0  0  0  0  0
   -4.0161  -29.0147   29.5534 C   0  0  0  0  0  0  0  0  0  0  0  0
   -5.1920  -29.5003   29.0461 N   0  0  0  0  0  0  0  0  0  0  0  0
  1  2  2  0  0  0  0
  1  6  1  0  0  0  0
  2  3  1  0  0  0  0
  3  4  2  0  0  0  0
  4  5  1  0  0  0  0
  4 10  1  0  0  0  0
  5  6  2  0  0  0  0
  5  8  1  0  0  0  0
  6  7  1  0  0  0  0
  8  9  1  0  0  0  0
  9 10  2  0  0  0  0
M  END
>  <CHROM.1>
-3.94432582,-30.19123397,27.44659628,1.27384917,-0.13906608,-2.08218209

>  <Name>
ligand

>  <RI>
0

>  <Rbt.Current_Directory>
/home/itssahil/PROJECTS/Mol_Feturizer/New_Systems/rnas/4LW0

>  <Rbt.Executable>
rbdock ($Id: //depot/dev/client3/rdock/2013.1/src/exe/rbdock.cxx#4 $)

>  <Rbt.Library>
libRbt.so (2013.1, Build901 2013/11/27)

>  <Rbt.Parameter_File>
/export/apps/rDock/src/rDock_2013.1_src/data/scripts/dock_solv.prm

>  <Rbt.Receptor>
prm/blind_docking_80.prm

>  <SCORE>
-13.8429

>  <SCORE.INTER>
-13.8429

>  <SCORE.INTER.CONST>
1

>  <SCORE.INTER.POLAR>
0

>  <SCORE.INTER.ROT>
0

>  <SCORE.INTER.SOLV>
7.42413

>  <SCORE.INTER.VDW>
-15.3033

>  <SCORE.INTER.norm>
-1.38429

>  <SCORE.INTRA>
0

>  <SCORE.INTRA.DIHEDRAL>
0

>  <SCORE.INTRA.DIHEDRAL.0>
0

>  <SCORE.INTRA.POLAR>
0

>  <SCORE.INTRA.POLAR.0>
0

>  <SCORE.INTRA.REPUL>
0

>  <SCORE.INTRA.REPUL.0>
0

>  <SCORE.INTRA.SOLV>
0

>  <SCORE.INTRA.SOLV.lig_0>
-23.9151

>  <SCORE.INTRA.VDW>
0

>  <SCORE.INTRA.VDW.0>
0

>  <SCORE.INTRA.norm>
0

>  <SCORE.RESTR>
0

>  <SCORE.RESTR.CAVITY>
0

>  <SCORE.RESTR.norm>
0

>  <SCORE.SYSTEM>
0

>  <SCORE.SYSTEM.CONST>
0

>  <SCORE.SYSTEM.DIHEDRAL>
0

>  <SCORE.SYSTEM.SOLV>
0

>  <SCORE.SYSTEM.norm>
0

>  <SCORE.heavy>
10

>  <SCORE.norm>
-1.38429

>  <RMSD>
11.827

$$$$
ligand
 OpenBabel11021811503D
libRbt.so/2013.1/901 2013/11/27
 10 11  0  0  0  0  0  0  0  0999 V2000
   -3.7173  -31.1386   25.6997 N   0  0  0  0  0  0  0  0  0  0  0  0
   -5.0249  -31.2157   25.9550 C   0  0  0  0  0  0  0  0  0  0  0  0
   -5.7105  -30.7329   26.9986 N   0  0  0  0  0  0  0  0  0  0  0  0
   -4.8814  -30.1171   27.8629 C   0  0  0  0  0  0  0  0  0  0  0  0
   -3.5142  -29.9588   27.7384 C   0  0  0  0  0  0  0  0  0  0  0  0
   -2.9118  -30.5041   26.5873 C   0  0  0  0  0  0  0  0  0  0  0  0
   -1.5928  -30.4299   26.3468 N   0  0  0  0  0  0  0  0  0  0  0  0
   -2.9946  -29.2657   28.8164 N   0  0  0  0  0  0  0  0  0  0  0  0
   -4.0382  -29.0129   29.5613 C   0  0  0  0  0  0  0  0  0  0  0  0
   -5.2090  -29.5063   29.0497 N   0  0  0  0  0  0  0  0  0  0  0  0
  1  2  2  0  0  0  0
  1  6  1  0  0  0  0
  2  3  1  0  0  0  0
  3  4  2  0  0  0  0
  4  5  1  0  0  0  0
  4 10  1  0  0  0  0
  5  6  2  0  0  0  0
  5  8  1  0  0  0  0
  6  7  1  0  0  0  0
  8  9  1  0  0  0  0
  9 10  2  0  0  0  0
M  END
>  <CHROM.1>
-3.95069503,-30.19024336,27.45553159,1.26725992,-0.14264048,-2.08371270

>  <Name>
ligand

>  <RI>
0

>  <Rbt.Current_Directory>
/home/itssahil/PROJECTS/Mol_Feturizer/New_Systems/rnas/4LW0

>  <Rbt.Executable>
rbdock ($Id: //depot/dev/client3/rdock/2013.1/src/exe/rbdock.cxx#4 $)

>  <Rbt.Library>
libRbt.so (2013.1, Build901 2013/11/27)

>  <Rbt.Parameter_File>
/export/apps/rDock/src/rDock_2013.1_src/data/scripts/dock_solv.prm

>  <Rbt.Receptor>
prm/blind_docking_100.prm

>  <SCORE>
-13.8243

>  <SCORE.INTER>
-13.8243

>  <SCORE.INTER.CONST>
1

>  <SCORE.INTER.POLAR>
0

>  <SCORE.INTER.ROT>
0

>  <SCORE.INTER.SOLV>
7.34156

>  <SCORE.INTER.VDW>
-15.2634

>  <SCORE.INTER.norm>
-1.38243

>  <SCORE.INTRA>
0

>  <SCORE.INTRA.DIHEDRAL>
0

>  <SCORE.INTRA.DIHEDRAL.0>
0

>  <SCORE.INTRA.POLAR>
0

>  <SCORE.INTRA.POLAR.0>
0

>  <SCORE.INTRA.REPUL>
0

>  <SCORE.INTRA.REPUL.0>
0

>  <SCORE.INTRA.SOLV>
0

>  <SCORE.INTRA.SOLV.lig_0>
-23.9151

>  <SCORE.INTRA.VDW>
0

>  <SCORE.INTRA.VDW.0>
0

>  <SCORE.INTRA.norm>
0

>  <SCORE.RESTR>
0

>  <SCORE.RESTR.CAVITY>
0

>  <SCORE.RESTR.norm>
0

>  <SCORE.SYSTEM>
0

>  <SCORE.SYSTEM.CONST>
0

>  <SCORE.SYSTEM.DIHEDRAL>
0

>  <SCORE.SYSTEM.SOLV>
0

>  <SCORE.SYSTEM.norm>
0

>  <SCORE.heavy>
10

>  <SCORE.norm>
-1.38243

>  <RMSD>
11.830

$$$$
ligand
 OpenBabel11021811503D
libRbt.so/2013.1/901 2013/11/27
 10 11  0  0  0  0  0  0  0  0999 V2000
   -3.7225  -31.1402   25.6945 N   0  0  0  0  0  0  0  0  0  0  0  0
   -5.0301  -31.2112   25.9520 C   0  0  0  0  0  0  0  0  0  0  0  0
   -5.7116  -30.7258   26.9971 N   0  0  0  0  0  0  0  0  0  0  0  0
   -4.8780  -30.1145   27.8603 C   0  0  0  0  0  0  0  0  0  0  0  0
   -3.5104  -29.9625   27.7336 C   0  0  0  0  0  0  0  0  0  0  0  0
   -2.9125  -30.5100   26.5811 C   0  0  0  0  0  0  0  0  0  0  0  0
   -1.5936  -30.4419   26.3384 N   0  0  0  0  0  0  0  0  0  0  0  0
   -2.9856  -29.2726   28.8111 N   0  0  0  0  0  0  0  0  0  0  0  0
   -4.0267  -29.0154   29.5580 C   0  0  0  0  0  0  0  0  0  0  0  0
   -5.2007  -29.5028   29.0481 N   0  0  0  0  0  0  0  0  0  0  0  0
  1  2  2  0  0  0  0
  1  6  1  0  0  0  0
  2  3  1  0  0  0  0
  3  4  2  0  0  0  0
  4  5  1  0  0  0  0
  4 10  1  0  0  0  0
  5  6  2  0  0  0  0
  5  8  1  0  0  0  0
  6  7  1  0  0  0  0
  8  9  1  0  0  0  0
  9 10  2  0  0  0  0
M  END
>  <CHROM.1>
-3.94839424,-30.19175978,27.45133633,1.27112270,-0.13935422,-2.08255902

>  <Name>
ligand

>  <RI>
0

>  <Rbt.Current_Directory>
/home/itssahil/PROJECTS/Mol_Feturizer/New_Systems/rnas/4LW0

>  <Rbt.Executable>
rbdock ($Id: //depot/dev/client3/rdock/2013.1/src/exe/rbdock.cxx#4 $)

>  <Rbt.Library>
libRbt.so (2013.1, Build901 2013/11/27)

>  <Rbt.Parameter_File>
/export/apps/rDock/src/rDock_2013.1_src/data/scripts/dock_solv.prm

>  <Rbt.Receptor>
prm/blind_docking_80.prm

>  <SCORE>
-13.8451

>  <SCORE.INTER>
-13.8451

>  <SCORE.INTER.CONST>
1

>  <SCORE.INTER.POLAR>
0

>  <SCORE.INTER.ROT>
0

>  <SCORE.INTER.SOLV>
7.39352

>  <SCORE.INTER.VDW>
-15.2946

>  <SCORE.INTER.norm>
-1.38451

>  <SCORE.INTRA>
0

>  <SCORE.INTRA.DIHEDRAL>
0

>  <SCORE.INTRA.DIHEDRAL.0>
0

>  <SCORE.INTRA.POLAR>
0

>  <SCORE.INTRA.POLAR.0>
0

>  <SCORE.INTRA.REPUL>
0

>  <SCORE.INTRA.REPUL.0>
0

>  <SCORE.INTRA.SOLV>
0

>  <SCORE.INTRA.SOLV.lig_0>
-23.9151

>  <SCORE.INTRA.VDW>
0

>  <SCORE.INTRA.VDW.0>
0

>  <SCORE.INTRA.norm>
0

>  <SCORE.RESTR>
0

>  <SCORE.RESTR.CAVITY>
0

>  <SCORE.RESTR.norm>
0

>  <SCORE.SYSTEM>
0

>  <SCORE.SYSTEM.CONST>
0

>  <SCORE.SYSTEM.DIHEDRAL>
0

>  <SCORE.SYSTEM.SOLV>
0

>  <SCORE.SYSTEM.norm>
0

>  <SCORE.heavy>
10

>  <SCORE.norm>
-1.38451

>  <RMSD>
11.830

$$$$
ligand
 OpenBabel11021811503D
libRbt.so/2013.1/901 2013/11/27
 10 11  0  0  0  0  0  0  0  0999 V2000
   -3.7287  -31.1388   25.6963 N   0  0  0  0  0  0  0  0  0  0  0  0
   -5.0359  -31.2118   25.9546 C   0  0  0  0  0  0  0  0  0  0  0  0
   -5.7176  -30.7270   26.9999 N   0  0  0  0  0  0  0  0  0  0  0  0
   -4.8845  -30.1140   27.8624 C   0  0  0  0  0  0  0  0  0  0  0  0
   -3.5171  -29.9600   27.7348 C   0  0  0  0  0  0  0  0  0  0  0  0
   -2.9191  -30.5070   26.5822 C   0  0  0  0  0  0  0  0  0  0  0  0
   -1.6004  -30.4370   26.3386 N   0  0  0  0  0  0  0  0  0  0  0  0
   -2.9927  -29.2688   28.8117 N   0  0  0  0  0  0  0  0  0  0  0  0
   -4.0338  -29.0128   29.5590 C   0  0  0  0  0  0  0  0  0  0  0  0
   -5.2073  -29.5023   29.0501 N   0  0  0  0  0  0  0  0  0  0  0  0
  1  2  2  0  0  0  0
  1  6  1  0  0  0  0
  2  3  1  0  0  0  0
  3  4  2  0  0  0  0
  4  5  1  0  0  0  0
  4 10  1  0  0  0  0
  5  6  2  0  0  0  0
  5  8  1  0  0  0  0
  6  7  1  0  0  0  0
  8  9  1  0  0  0  0
  9 10  2  0  0  0  0
M  END
>  <CHROM.1>
-3.95493572,-30.19000794,27.45285612,1.27089417,-0.14098642,-2.08301565

>  <Name>
ligand

>  <RI>
0

>  <Rbt.Current_Directory>
/home/itssahil/PROJECTS/Mol_Feturizer/New_Systems/rnas/4LW0

>  <Rbt.Executable>
rbdock ($Id: //depot/dev/client3/rdock/2013.1/src/exe/rbdock.cxx#4 $)

>  <Rbt.Library>
libRbt.so (2013.1, Build901 2013/11/27)

>  <Rbt.Parameter_File>
/export/apps/rDock/src/rDock_2013.1_src/data/scripts/dock_solv.prm

>  <Rbt.Receptor>
prm/blind_docking_60.prm

>  <SCORE>
-13.8131

>  <SCORE.INTER>
-13.8131

>  <SCORE.INTER.CONST>
1

>  <SCORE.INTER.POLAR>
0

>  <SCORE.INTER.ROT>
0

>  <SCORE.INTER.SOLV>
7.38708

>  <SCORE.INTER.VDW>
-15.2711

>  <SCORE.INTER.norm>
-1.38131

>  <SCORE.INTRA>
0

>  <SCORE.INTRA.DIHEDRAL>
0

>  <SCORE.INTRA.DIHEDRAL.0>
0

>  <SCORE.INTRA.POLAR>
0

>  <SCORE.INTRA.POLAR.0>
0

>  <SCORE.INTRA.REPUL>
0

>  <SCORE.INTRA.REPUL.0>
0

>  <SCORE.INTRA.SOLV>
0

>  <SCORE.INTRA.SOLV.lig_0>
-23.9151

>  <SCORE.INTRA.VDW>
0

>  <SCORE.INTRA.VDW.0>
0

>  <SCORE.INTRA.norm>
0

>  <SCORE.RESTR>
0

>  <SCORE.RESTR.CAVITY>
0

>  <SCORE.RESTR.norm>
0

>  <SCORE.SYSTEM>
0

>  <SCORE.SYSTEM.CONST>
0

>  <SCORE.SYSTEM.DIHEDRAL>
0

>  <SCORE.SYSTEM.SOLV>
0

>  <SCORE.SYSTEM.norm>
0

>  <SCORE.heavy>
10

>  <SCORE.norm>
-1.38131

>  <RMSD>
11.832

$$$$
ligand
 OpenBabel11021811503D
libRbt.so/2013.1/901 2013/11/27
 10 11  0  0  0  0  0  0  0  0999 V2000
   -3.7807  -31.1634   25.6964 N   0  0  0  0  0  0  0  0  0  0  0  0
   -5.0874  -31.2120   25.9632 C   0  0  0  0  0  0  0  0  0  0  0  0
   -5.7560  -30.6961   27.0020 N   0  0  0  0  0  0  0  0  0  0  0  0
   -4.9092  -30.0779   27.8472 C   0  0  0  0  0  0  0  0  0  0  0  0
   -3.5405  -29.9465   27.7091 C   0  0  0  0  0  0  0  0  0  0  0  0
   -2.9570  -30.5256   26.5648 C   0  0  0  0  0  0  0  0  0  0  0  0
   -1.6389  -30.4798   26.3127 N   0  0  0  0  0  0  0  0  0  0  0  0
   -3.0001  -29.2413   28.7689 N   0  0  0  0  0  0  0  0  0  0  0  0
   -4.0331  -28.9550   29.5164 C   0  0  0  0  0  0  0  0  0  0  0  0
   -5.2165  -29.4375   29.0239 N   0  0  0  0  0  0  0  0  0  0  0  0
  1  2  2  0  0  0  0
  1  6  1  0  0  0  0
  2  3  1  0  0  0  0
  3  4  2  0  0  0  0
  4  5  1  0  0  0  0
  4 10  1  0  0  0  0
  5  6  2  0  0  0  0
  5  8  1  0  0  0  0
  6  7  1  0  0  0  0
  8  9  1  0  0  0  0
  9 10  2  0  0  0  0
M  END
>  <CHROM.1>
-3.98323996,-30.17582719,27.43436007,1.28305353,-0.13114600,-2.10175888

>  <Name>
ligand

>  <RI>
0

>  <Rbt.Current_Directory>
/home/itssahil/PROJECTS/Mol_Feturizer/New_Systems/rnas/4LW0

>  <Rbt.Executable>
rbdock ($Id: //depot/dev/client3/rdock/2013.1/src/exe/rbdock.cxx#4 $)

>  <Rbt.Library>
libRbt.so (2013.1, Build901 2013/11/27)

>  <Rbt.Parameter_File>
/export/apps/rDock/src/rDock_2013.1_src/data/scripts/dock_solv.prm

>  <Rbt.Receptor>
prm/blind_docking_60.prm

>  <SCORE>
-13.7716

>  <SCORE.INTER>
-13.7716

>  <SCORE.INTER.CONST>
1

>  <SCORE.INTER.POLAR>
0

>  <SCORE.INTER.ROT>
0

>  <SCORE.INTER.SOLV>
7.64561

>  <SCORE.INTER.VDW>
-15.3296

>  <SCORE.INTER.norm>
-1.37716

>  <SCORE.INTRA>
0

>  <SCORE.INTRA.DIHEDRAL>
0

>  <SCORE.INTRA.DIHEDRAL.0>
0

>  <SCORE.INTRA.POLAR>
0

>  <SCORE.INTRA.POLAR.0>
0

>  <SCORE.INTRA.REPUL>
0

>  <SCORE.INTRA.REPUL.0>
0

>  <SCORE.INTRA.SOLV>
0

>  <SCORE.INTRA.SOLV.lig_0>
-23.9151

>  <SCORE.INTRA.VDW>
0

>  <SCORE.INTRA.VDW.0>
0

>  <SCORE.INTRA.norm>
0

>  <SCORE.RESTR>
1.7086e-05

>  <SCORE.RESTR.CAVITY>
1.7086e-05

>  <SCORE.RESTR.norm>
1.7086e-06

>  <SCORE.SYSTEM>
0

>  <SCORE.SYSTEM.CONST>
0

>  <SCORE.SYSTEM.DIHEDRAL>
0

>  <SCORE.SYSTEM.SOLV>
0

>  <SCORE.SYSTEM.norm>
0

>  <SCORE.heavy>
10

>  <SCORE.norm>
-1.37716

>  <RMSD>
11.833

$$$$
ligand
 OpenBabel11021811503D
libRbt.so/2013.1/901 2013/11/27
 10 11  0  0  0  0  0  0  0  0999 V2000
    4.6276  -28.8773   16.4113 N   0  0  0  0  0  0  0  0  0  0  0  0
    3.3868  -29.2657   16.7124 C   0  0  0  0  0  0  0  0  0  0  0  0
    2.2562  -28.5487   16.7167 N   0  0  0  0  0  0  0  0  0  0  0  0
    2.5073  -27.2707   16.3741 C   0  0  0  0  0  0  0  0  0  0  0  0
    3.7305  -26.7217   16.0391 C   0  0  0  0  0  0  0  0  0  0  0  0
    4.8441  -27.5848   16.0623 C   0  0  0  0  0  0  0  0  0  0  0  0
    6.0900  -27.1796   15.7681 N   0  0  0  0  0  0  0  0  0  0  0  0
    3.6052  -25.3785   15.7352 N   0  0  0  0  0  0  0  0  0  0  0  0
    2.3287  -25.1400   15.8813 C   0  0  0  0  0  0  0  0  0  0  0  0
    1.6079  -26.2362   16.2745 N   0  0  0  0  0  0  0  0  0  0  0  0
  1  2  2  0  0  0  0
  1  6  1  0  0  0  0
  2  3  1  0  0  0  0
  3  4  2  0  0  0  0
  4  5  1  0  0  0  0
  4 10  1  0  0  0  0
  5  6  2  0  0  0  0
  5  8  1  0  0  0  0
  6  7  1  0  0  0  0
  8  9  1  0  0  0  0
  9 10  2  0  0  0  0
M  END
>  <CHROM.1>
3.50907389,-27.22213580,16.19625257,0.78603963,-0.15739306,2.90479308

>  <Name>
ligand

>  <RI>
0

>  <Rbt.Current_Directory>
/home/itssahil/PROJECTS/Mol_Feturizer/New_Systems/rnas/4LW0

>  <Rbt.Executable>
rbdock ($Id: //depot/dev/client3/rdock/2013.1/src/exe/rbdock.cxx#4 $)

>  <Rbt.Library>
libRbt.so (2013.1, Build901 2013/11/27)

>  <Rbt.Parameter_File>
/export/apps/rDock/src/rDock_2013.1_src/data/scripts/dock_solv.prm

>  <Rbt.Receptor>
prm/blind_docking_40.prm

>  <SCORE>
-8.70494

>  <SCORE.INTER>
-8.70556

>  <SCORE.INTER.CONST>
1

>  <SCORE.INTER.POLAR>
0

>  <SCORE.INTER.ROT>
0

>  <SCORE.INTER.SOLV>
3.27393

>  <SCORE.INTER.VDW>
-10.495

>  <SCORE.INTER.norm>
-0.870556

>  <SCORE.INTRA>
0

>  <SCORE.INTRA.DIHEDRAL>
0

>  <SCORE.INTRA.DIHEDRAL.0>
0

>  <SCORE.INTRA.POLAR>
0

>  <SCORE.INTRA.POLAR.0>
0

>  <SCORE.INTRA.REPUL>
0

>  <SCORE.INTRA.REPUL.0>
0

>  <SCORE.INTRA.SOLV>
0

>  <SCORE.INTRA.SOLV.lig_0>
-23.9151

>  <SCORE.INTRA.VDW>
0

>  <SCORE.INTRA.VDW.0>
0

>  <SCORE.INTRA.norm>
0

>  <SCORE.RESTR>
0.000622781

>  <SCORE.RESTR.CAVITY>
0.000622781

>  <SCORE.RESTR.norm>
6.22781e-05

>  <SCORE.SYSTEM>
0

>  <SCORE.SYSTEM.CONST>
0

>  <SCORE.SYSTEM.DIHEDRAL>
0

>  <SCORE.SYSTEM.SOLV>
0

>  <SCORE.SYSTEM.norm>
0

>  <SCORE.heavy>
10

>  <SCORE.norm>
-0.870494

>  <RMSD>
11.881

$$$$
ligand
 OpenBabel11021811503D
libRbt.so/2013.1/901 2013/11/27
 10 11  0  0  0  0  0  0  0  0999 V2000
    4.6368  -28.9015   16.5534 N   0  0  0  0  0  0  0  0  0  0  0  0
    3.3818  -29.2698   16.8185 C   0  0  0  0  0  0  0  0  0  0  0  0
    2.2574  -28.5466   16.7463 N   0  0  0  0  0  0  0  0  0  0  0  0
    2.5321  -27.2855   16.3619 C   0  0  0  0  0  0  0  0  0  0  0  0
    3.7721  -26.7581   16.0556 C   0  0  0  0  0  0  0  0  0  0  0  0
    4.8773  -27.6259   16.1606 C   0  0  0  0  0  0  0  0  0  0  0  0
    6.1373  -27.2406   15.9019 N   0  0  0  0  0  0  0  0  0  0  0  0
    3.6696  -25.4279   15.6915 N   0  0  0  0  0  0  0  0  0  0  0  0
    2.3900  -25.1761   15.7745 C   0  0  0  0  0  0  0  0  0  0  0  0
    1.6454  -26.2508   16.1824 N   0  0  0  0  0  0  0  0  0  0  0  0
  1  2  2  0  0  0  0
  1  6  1  0  0  0  0
  2  3  1  0  0  0  0
  3  4  2  0  0  0  0
  4  5  1  0  0  0  0
  4 10  1  0  0  0  0
  5  6  2  0  0  0  0
  5  8  1  0  0  0  0
  6  7  1  0  0  0  0
  8  9  1  0  0  0  0
  9 10  2  0  0  0  0
M  END
>  <CHROM.1>
3.54066767,-27.25021918,16.22393489,0.80316000,-0.11906989,2.86565606

>  <Name>
ligand

>  <RI>
0

>  <Rbt.Current_Directory>
/home/itssahil/PROJECTS/Mol_Feturizer/New_Systems/rnas/4LW0

>  <Rbt.Executable>
rbdock ($Id: //depot/dev/client3/rdock/2013.1/src/exe/rbdock.cxx#4 $)

>  <Rbt.Library>
libRbt.so (2013.1, Build901 2013/11/27)

>  <Rbt.Parameter_File>
/export/apps/rDock/src/rDock_2013.1_src/data/scripts/dock_solv.prm

>  <Rbt.Receptor>
prm/blind_docking_40.prm

>  <SCORE>
-8.76395

>  <SCORE.INTER>
-8.76425

>  <SCORE.INTER.CONST>
1

>  <SCORE.INTER.POLAR>
0

>  <SCORE.INTER.ROT>
0

>  <SCORE.INTER.SOLV>
3.31647

>  <SCORE.INTER.VDW>
-10.5483

>  <SCORE.INTER.norm>
-0.876425

>  <SCORE.INTRA>
0

>  <SCORE.INTRA.DIHEDRAL>
0

>  <SCORE.INTRA.DIHEDRAL.0>
0

>  <SCORE.INTRA.POLAR>
0

>  <SCORE.INTRA.POLAR.0>
0

>  <SCORE.INTRA.REPUL>
0

>  <SCORE.INTRA.REPUL.0>
0

>  <SCORE.INTRA.SOLV>
0

>  <SCORE.INTRA.SOLV.lig_0>
-23.9151

>  <SCORE.INTRA.VDW>
0

>  <SCORE.INTRA.VDW.0>
0

>  <SCORE.INTRA.norm>
0

>  <SCORE.RESTR>
0.00029676

>  <SCORE.RESTR.CAVITY>
0.00029676

>  <SCORE.RESTR.norm>
2.9676e-05

>  <SCORE.SYSTEM>
0

>  <SCORE.SYSTEM.CONST>
0

>  <SCORE.SYSTEM.DIHEDRAL>
0

>  <SCORE.SYSTEM.SOLV>
0

>  <SCORE.SYSTEM.norm>
0

>  <SCORE.heavy>
10

>  <SCORE.norm>
-0.876395

>  <RMSD>
11.885

$$$$
ligand
 OpenBabel11021811503D
libRbt.so/2013.1/901 2013/11/27
 10 11  0  0  0  0  0  0  0  0999 V2000
    4.6959  -28.8706   16.4857 N   0  0  0  0  0  0  0  0  0  0  0  0
    3.4530  -29.2616   16.7743 C   0  0  0  0  0  0  0  0  0  0  0  0
    2.3162  -28.5556   16.7355 N   0  0  0  0  0  0  0  0  0  0  0  0
    2.5626  -27.2860   16.3598 C   0  0  0  0  0  0  0  0  0  0  0  0
    3.7871  -26.7356   16.0323 C   0  0  0  0  0  0  0  0  0  0  0  0
    4.9077  -27.5870   16.1027 C   0  0  0  0  0  0  0  0  0  0  0  0
    6.1554  -27.1789   15.8206 N   0  0  0  0  0  0  0  0  0  0  0  0
    3.6559  -25.4032   15.6861 N   0  0  0  0  0  0  0  0  0  0  0  0
    2.3747  -25.1725   15.8005 C   0  0  0  0  0  0  0  0  0  0  0  0
    1.6561  -26.2634   16.2122 N   0  0  0  0  0  0  0  0  0  0  0  0
  1  2  2  0  0  0  0
  1  6  1  0  0  0  0
  2  3  1  0  0  0  0
  3  4  2  0  0  0  0
  4  5  1  0  0  0  0
  4 10  1  0  0  0  0
  5  6  2  0  0  0  0
  5  8  1  0  0  0  0
  6  7  1  0  0  0  0
  8  9  1  0  0  0  0
  9 10  2  0  0  0  0
M  END
>  <CHROM.1>
3.56715653,-27.23319216,16.19998136,0.78194571,-0.13630446,2.87449017

>  <Name>
ligand

>  <RI>
0

>  <Rbt.Current_Directory>
/home/itssahil/PROJECTS/Mol_Feturizer/New_Systems/rnas/4LW0

>  <Rbt.Executable>
rbdock ($Id: //depot/dev/client3/rdock/2013.1/src/exe/rbdock.cxx#4 $)

>  <Rbt.Library>
libRbt.so (2013.1, Build901 2013/11/27)

>  <Rbt.Parameter_File>
/export/apps/rDock/src/rDock_2013.1_src/data/scripts/dock_solv.prm

>  <Rbt.Receptor>
prm/blind_docking_40.prm

>  <SCORE>
-8.75064

>  <SCORE.INTER>
-8.75064

>  <SCORE.INTER.CONST>
1

>  <SCORE.INTER.POLAR>
0

>  <SCORE.INTER.ROT>
0

>  <SCORE.INTER.SOLV>
3.25984

>  <SCORE.INTER.VDW>
-10.5204

>  <SCORE.INTER.norm>
-0.875064

>  <SCORE.INTRA>
0

>  <SCORE.INTRA.DIHEDRAL>
0

>  <SCORE.INTRA.DIHEDRAL.0>
0

>  <SCORE.INTRA.POLAR>
0

>  <SCORE.INTRA.POLAR.0>
0

>  <SCORE.INTRA.REPUL>
0

>  <SCORE.INTRA.REPUL.0>
0

>  <SCORE.INTRA.SOLV>
0

>  <SCORE.INTRA.SOLV.lig_0>
-23.9151

>  <SCORE.INTRA.VDW>
0

>  <SCORE.INTRA.VDW.0>
0

>  <SCORE.INTRA.norm>
0

>  <SCORE.RESTR>
0

>  <SCORE.RESTR.CAVITY>
0

>  <SCORE.RESTR.norm>
0

>  <SCORE.SYSTEM>
0

>  <SCORE.SYSTEM.CONST>
0

>  <SCORE.SYSTEM.DIHEDRAL>
0

>  <SCORE.SYSTEM.SOLV>
0

>  <SCORE.SYSTEM.norm>
0

>  <SCORE.heavy>
10

>  <SCORE.norm>
-0.875064

>  <RMSD>
11.892

$$$$
ligand
 OpenBabel11021811503D
libRbt.so/2013.1/901 2013/11/27
 10 11  0  0  0  0  0  0  0  0999 V2000
    2.2331  -25.1632   15.4274 N   0  0  0  0  0  0  0  0  0  0  0  0
    3.5620  -25.0962   15.5301 C   0  0  0  0  0  0  0  0  0  0  0  0
    4.4319  -26.0580   15.8624 N   0  0  0  0  0  0  0  0  0  0  0  0
    3.7839  -27.2084   16.1276 C   0  0  0  0  0  0  0  0  0  0  0  0
    2.4214  -27.4316   16.0668 C   0  0  0  0  0  0  0  0  0  0  0  0
    1.6129  -26.3396   15.6937 C   0  0  0  0  0  0  0  0  0  0  0  0
    0.2753  -26.4162   15.6047 N   0  0  0  0  0  0  0  0  0  0  0  0
    2.1173  -28.7393   16.3982 N   0  0  0  0  0  0  0  0  0  0  0  0
    3.2810  -29.2810   16.6436 C   0  0  0  0  0  0  0  0  0  0  0  0
    4.3300  -28.4109   16.5080 N   0  0  0  0  0  0  0  0  0  0  0  0
  1  2  2  0  0  0  0
  1  6  1  0  0  0  0
  2  3  1  0  0  0  0
  3  4  2  0  0  0  0
  4  5  1  0  0  0  0
  4 10  1  0  0  0  0
  5  6  2  0  0  0  0
  5  8  1  0  0  0  0
  6  7  1  0  0  0  0
  8  9  1  0  0  0  0
  9 10  2  0  0  0  0
M  END
>  <CHROM.1>
2.79511043,-27.01008409,15.98423993,-2.04120424,0.08414773,2.87424679

>  <Name>
ligand

>  <RI>
0

>  <Rbt.Current_Directory>
/home/itssahil/PROJECTS/Mol_Feturizer/New_Systems/rnas/4LW0

>  <Rbt.Executable>
rbdock ($Id: //depot/dev/client3/rdock/2013.1/src/exe/rbdock.cxx#4 $)

>  <Rbt.Library>
libRbt.so (2013.1, Build901 2013/11/27)

>  <Rbt.Parameter_File>
/export/apps/rDock/src/rDock_2013.1_src/data/scripts/dock_solv.prm

>  <Rbt.Receptor>
prm/blind_docking_40.prm

>  <SCORE>
-8.06704

>  <SCORE.INTER>
-8.06704

>  <SCORE.INTER.CONST>
1

>  <SCORE.INTER.POLAR>
0

>  <SCORE.INTER.ROT>
0

>  <SCORE.INTER.SOLV>
8.01839

>  <SCORE.INTER.VDW>
-11.6508

>  <SCORE.INTER.norm>
-0.806704

>  <SCORE.INTRA>
0

>  <SCORE.INTRA.DIHEDRAL>
0

>  <SCORE.INTRA.DIHEDRAL.0>
0

>  <SCORE.INTRA.POLAR>
0

>  <SCORE.INTRA.POLAR.0>
0

>  <SCORE.INTRA.REPUL>
0

>  <SCORE.INTRA.REPUL.0>
0

>  <SCORE.INTRA.SOLV>
0

>  <SCORE.INTRA.SOLV.lig_0>
-23.9151

>  <SCORE.INTRA.VDW>
0

>  <SCORE.INTRA.VDW.0>
0

>  <SCORE.INTRA.norm>
0

>  <SCORE.RESTR>
0

>  <SCORE.RESTR.CAVITY>
0

>  <SCORE.RESTR.norm>
0

>  <SCORE.SYSTEM>
0

>  <SCORE.SYSTEM.CONST>
0

>  <SCORE.SYSTEM.DIHEDRAL>
0

>  <SCORE.SYSTEM.SOLV>
0

>  <SCORE.SYSTEM.norm>
0

>  <SCORE.heavy>
10

>  <SCORE.norm>
-0.806704

>  <RMSD>
11.899

$$$$
ligand
 OpenBabel11021811503D
libRbt.so/2013.1/901 2013/11/27
 10 11  0  0  0  0  0  0  0  0999 V2000
    4.7064  -28.8728   16.5101 N   0  0  0  0  0  0  0  0  0  0  0  0
    3.4580  -29.2628   16.7758 C   0  0  0  0  0  0  0  0  0  0  0  0
    2.3212  -28.5594   16.7038 N   0  0  0  0  0  0  0  0  0  0  0  0
    2.5737  -27.2938   16.3190 C   0  0  0  0  0  0  0  0  0  0  0  0
    3.8043  -26.7449   16.0120 C   0  0  0  0  0  0  0  0  0  0  0  0
    4.9244  -27.5933   16.1169 C   0  0  0  0  0  0  0  0  0  0  0  0
    6.1774  -27.1862   15.8576 N   0  0  0  0  0  0  0  0  0  0  0  0
    3.6785  -25.4168   15.6476 N   0  0  0  0  0  0  0  0  0  0  0  0
    2.3947  -25.1873   15.7310 C   0  0  0  0  0  0  0  0  0  0  0  0
    1.6691  -26.2747   16.1395 N   0  0  0  0  0  0  0  0  0  0  0  0
  1  2  2  0  0  0  0
  1  6  1  0  0  0  0
  2  3  1  0  0  0  0
  3  4  2  0  0  0  0
  4  5  1  0  0  0  0
  4 10  1  0  0  0  0
  5  6  2  0  0  0  0
  5  8  1  0  0  0  0
  6  7  1  0  0  0  0
  8  9  1  0  0  0  0
  9 10  2  0  0  0  0
M  END
>  <CHROM.1>
3.58148640,-27.24095664,16.18060359,0.78619875,-0.11464656,2.86340025

>  <Name>
ligand

>  <RI>
0

>  <Rbt.Current_Directory>
/home/itssahil/PROJECTS/Mol_Feturizer/New_Systems/rnas/4LW0

>  <Rbt.Executable>
rbdock ($Id: //depot/dev/client3/rdock/2013.1/src/exe/rbdock.cxx#4 $)

>  <Rbt.Library>
libRbt.so (2013.1, Build901 2013/11/27)

>  <Rbt.Parameter_File>
/export/apps/rDock/src/rDock_2013.1_src/data/scripts/dock_solv.prm

>  <Rbt.Receptor>
prm/blind_docking_40.prm

>  <SCORE>
-8.69963

>  <SCORE.INTER>
-8.69991

>  <SCORE.INTER.CONST>
1

>  <SCORE.INTER.POLAR>
0

>  <SCORE.INTER.ROT>
0

>  <SCORE.INTER.SOLV>
3.21757

>  <SCORE.INTER.VDW>
-10.4725

>  <SCORE.INTER.norm>
-0.869991

>  <SCORE.INTRA>
0

>  <SCORE.INTRA.DIHEDRAL>
0

>  <SCORE.INTRA.DIHEDRAL.0>
0

>  <SCORE.INTRA.POLAR>
0

>  <SCORE.INTRA.POLAR.0>
0

>  <SCORE.INTRA.REPUL>
0

>  <SCORE.INTRA.REPUL.0>
0

>  <SCORE.INTRA.SOLV>
0

>  <SCORE.INTRA.SOLV.lig_0>
-23.9151

>  <SCORE.INTRA.VDW>
0

>  <SCORE.INTRA.VDW.0>
0

>  <SCORE.INTRA.norm>
0

>  <SCORE.RESTR>
0.000274629

>  <SCORE.RESTR.CAVITY>
0.000274629

>  <SCORE.RESTR.norm>
2.74629e-05

>  <SCORE.SYSTEM>
0

>  <SCORE.SYSTEM.CONST>
0

>  <SCORE.SYSTEM.DIHEDRAL>
0

>  <SCORE.SYSTEM.SOLV>
0

>  <SCORE.SYSTEM.norm>
0

>  <SCORE.heavy>
10

>  <SCORE.norm>
-0.869963

>  <RMSD>
11.917

$$$$
ligand
 OpenBabel11021811503D
libRbt.so/2013.1/901 2013/11/27
 10 11  0  0  0  0  0  0  0  0999 V2000
    4.4905  -25.4327   15.7197 N   0  0  0  0  0  0  0  0  0  0  0  0
    3.2213  -25.0228   15.7646 C   0  0  0  0  0  0  0  0  0  0  0  0
    2.1042  -25.7495   15.8926 N   0  0  0  0  0  0  0  0  0  0  0  0
    2.4007  -27.0614   15.9612 C   0  0  0  0  0  0  0  0  0  0  0  0
    3.6572  -27.6356   15.9269 C   0  0  0  0  0  0  0  0  0  0  0  0
    4.7544  -26.7606   15.7996 C   0  0  0  0  0  0  0  0  0  0  0  0
    6.0268  -27.1859   15.7443 N   0  0  0  0  0  0  0  0  0  0  0  0
    3.5769  -29.0123   16.0302 N   0  0  0  0  0  0  0  0  0  0  0  0
    2.2952  -29.2465   16.1310 C   0  0  0  0  0  0  0  0  0  0  0  0
    1.5261  -28.1141   16.0874 N   0  0  0  0  0  0  0  0  0  0  0  0
  1  2  2  0  0  0  0
  1  6  1  0  0  0  0
  2  3  1  0  0  0  0
  3  4  2  0  0  0  0
  4  5  1  0  0  0  0
  4 10  1  0  0  0  0
  5  6  2  0  0  0  0
  5  8  1  0  0  0  0
  6  7  1  0  0  0  0
  8  9  1  0  0  0  0
  9 10  2  0  0  0  0
M  END
>  <CHROM.1>
3.41603077,-27.12035234,15.90492915,0.81961794,0.06178274,-0.07116658

>  <Name>
ligand

>  <RI>
0

>  <Rbt.Current_Directory>
/home/itssahil/PROJECTS/Mol_Feturizer/New_Systems/rnas/4LW0

>  <Rbt.Executable>
rbdock ($Id: //depot/dev/client3/rdock/2013.1/src/exe/rbdock.cxx#4 $)

>  <Rbt.Library>
libRbt.so (2013.1, Build901 2013/11/27)

>  <Rbt.Parameter_File>
/export/apps/rDock/src/rDock_2013.1_src/data/scripts/dock_solv.prm

>  <Rbt.Receptor>
prm/blind_docking_40.prm

>  <SCORE>
-9.53536

>  <SCORE.INTER>
-9.53536

>  <SCORE.INTER.CONST>
1

>  <SCORE.INTER.POLAR>
0

>  <SCORE.INTER.ROT>
0

>  <SCORE.INTER.SOLV>
3.7569

>  <SCORE.INTER.VDW>
-11.2092

>  <SCORE.INTER.norm>
-0.953536

>  <SCORE.INTRA>
0

>  <SCORE.INTRA.DIHEDRAL>
0

>  <SCORE.INTRA.DIHEDRAL.0>
0

>  <SCORE.INTRA.POLAR>
0

>  <SCORE.INTRA.POLAR.0>
0

>  <SCORE.INTRA.REPUL>
0

>  <SCORE.INTRA.REPUL.0>
0

>  <SCORE.INTRA.SOLV>
0

>  <SCORE.INTRA.SOLV.lig_0>
-23.9151

>  <SCORE.INTRA.VDW>
0

>  <SCORE.INTRA.VDW.0>
0

>  <SCORE.INTRA.norm>
0

>  <SCORE.RESTR>
0

>  <SCORE.RESTR.CAVITY>
0

>  <SCORE.RESTR.norm>
0

>  <SCORE.SYSTEM>
0

>  <SCORE.SYSTEM.CONST>
0

>  <SCORE.SYSTEM.DIHEDRAL>
0

>  <SCORE.SYSTEM.SOLV>
0

>  <SCORE.SYSTEM.norm>
0

>  <SCORE.heavy>
10

>  <SCORE.norm>
-0.953536

>  <RMSD>
11.957

$$$$
ligand
 OpenBabel11021811503D
libRbt.so/2013.1/901 2013/11/27
 10 11  0  0  0  0  0  0  0  0999 V2000
    4.5138  -25.4267   15.7091 N   0  0  0  0  0  0  0  0  0  0  0  0
    3.2457  -25.0122   15.7435 C   0  0  0  0  0  0  0  0  0  0  0  0
    2.1253  -25.7345   15.8675 N   0  0  0  0  0  0  0  0  0  0  0  0
    2.4168  -27.0470   15.9445 C   0  0  0  0  0  0  0  0  0  0  0  0
    3.6716  -27.6256   15.9214 C   0  0  0  0  0  0  0  0  0  0  0  0
    4.7725  -26.7551   15.7972 C   0  0  0  0  0  0  0  0  0  0  0  0
    6.0438  -27.1850   15.7525 N   0  0  0  0  0  0  0  0  0  0  0  0
    3.5858  -29.0015   16.0309 N   0  0  0  0  0  0  0  0  0  0  0  0
    2.3026  -29.2309   16.1242 C   0  0  0  0  0  0  0  0  0  0  0  0
    1.5378  -28.0961   16.0699 N   0  0  0  0  0  0  0  0  0  0  0  0
  1  2  2  0  0  0  0
  1  6  1  0  0  0  0
  2  3  1  0  0  0  0
  3  4  2  0  0  0  0
  4  5  1  0  0  0  0
  4 10  1  0  0  0  0
  5  6  2  0  0  0  0
  5  8  1  0  0  0  0
  6  7  1  0  0  0  0
  8  9  1  0  0  0  0
  9 10  2  0  0  0  0
M  END
>  <CHROM.1>
3.43229914,-27.10973158,15.89529390,0.81568644,0.05535021,-0.07581552

>  <Name>
ligand

>  <RI>
0

>  <Rbt.Current_Directory>
/home/itssahil/PROJECTS/Mol_Feturizer/New_Systems/rnas/4LW0

>  <Rbt.Executable>
rbdock ($Id: //depot/dev/client3/rdock/2013.1/src/exe/rbdock.cxx#4 $)

>  <Rbt.Library>
libRbt.so (2013.1, Build901 2013/11/27)

>  <Rbt.Parameter_File>
/export/apps/rDock/src/rDock_2013.1_src/data/scripts/dock_solv.prm

>  <Rbt.Receptor>
prm/blind_docking_40.prm

>  <SCORE>
-9.50658

>  <SCORE.INTER>
-9.50658

>  <SCORE.INTER.CONST>
1

>  <SCORE.INTER.POLAR>
0

>  <SCORE.INTER.ROT>
0

>  <SCORE.INTER.SOLV>
3.756

>  <SCORE.INTER.VDW>
-11.1897

>  <SCORE.INTER.norm>
-0.950658

>  <SCORE.INTRA>
0

>  <SCORE.INTRA.DIHEDRAL>
0

>  <SCORE.INTRA.DIHEDRAL.0>
0

>  <SCORE.INTRA.POLAR>
0

>  <SCORE.INTRA.POLAR.0>
0

>  <SCORE.INTRA.REPUL>
0

>  <SCORE.INTRA.REPUL.0>
0

>  <SCORE.INTRA.SOLV>
0

>  <SCORE.INTRA.SOLV.lig_0>
-23.9151

>  <SCORE.INTRA.VDW>
0

>  <SCORE.INTRA.VDW.0>
0

>  <SCORE.INTRA.norm>
0

>  <SCORE.RESTR>
0

>  <SCORE.RESTR.CAVITY>
0

>  <SCORE.RESTR.norm>
0

>  <SCORE.SYSTEM>
0

>  <SCORE.SYSTEM.CONST>
0

>  <SCORE.SYSTEM.DIHEDRAL>
0

>  <SCORE.SYSTEM.SOLV>
0

>  <SCORE.SYSTEM.norm>
0

>  <SCORE.heavy>
10

>  <SCORE.norm>
-0.950658

>  <RMSD>
11.961

$$$$
ligand
 OpenBabel11021811503D
libRbt.so/2013.1/901 2013/11/27
 10 11  0  0  0  0  0  0  0  0999 V2000
    4.5014  -25.4286   15.7202 N   0  0  0  0  0  0  0  0  0  0  0  0
    3.2328  -25.0158   15.7566 C   0  0  0  0  0  0  0  0  0  0  0  0
    2.1131  -25.7401   15.8751 N   0  0  0  0  0  0  0  0  0  0  0  0
    2.4061  -27.0528   15.9435 C   0  0  0  0  0  0  0  0  0  0  0  0
    3.6615  -27.6298   15.9173 C   0  0  0  0  0  0  0  0  0  0  0  0
    4.7615  -26.7573   15.7997 C   0  0  0  0  0  0  0  0  0  0  0  0
    6.0333  -27.1854   15.7529 N   0  0  0  0  0  0  0  0  0  0  0  0
    3.5772  -29.0065   16.0176 N   0  0  0  0  0  0  0  0  0  0  0  0
    2.2942  -29.2379   16.1085 C   0  0  0  0  0  0  0  0  0  0  0  0
    1.5281  -28.1036   16.0613 N   0  0  0  0  0  0  0  0  0  0  0  0
  1  2  2  0  0  0  0
  1  6  1  0  0  0  0
  2  3  1  0  0  0  0
  3  4  2  0  0  0  0
  4  5  1  0  0  0  0
  4 10  1  0  0  0  0
  5  6  2  0  0  0  0
  5  8  1  0  0  0  0
  6  7  1  0  0  0  0
  8  9  1  0  0  0  0
  9 10  2  0  0  0  0
M  END
>  <CHROM.1>
3.42163699,-27.11401497,15.89451239,0.81676422,0.05464090,-0.06920012

>  <Name>
ligand

>  <RI>
0

>  <Rbt.Current_Directory>
/home/itssahil/PROJECTS/Mol_Feturizer/New_Systems/rnas/4LW0

>  <Rbt.Executable>
rbdock ($Id: //depot/dev/client3/rdock/2013.1/src/exe/rbdock.cxx#4 $)

>  <Rbt.Library>
libRbt.so (2013.1, Build901 2013/11/27)

>  <Rbt.Parameter_File>
/export/apps/rDock/src/rDock_2013.1_src/data/scripts/dock_solv.prm

>  <Rbt.Receptor>
prm/blind_docking_40.prm

>  <SCORE>
-9.50843

>  <SCORE.INTER>
-9.50843

>  <SCORE.INTER.CONST>
1

>  <SCORE.INTER.POLAR>
0

>  <SCORE.INTER.ROT>
0

>  <SCORE.INTER.SOLV>
3.77451

>  <SCORE.INTER.VDW>
-11.1971

>  <SCORE.INTER.norm>
-0.950843

>  <SCORE.INTRA>
0

>  <SCORE.INTRA.DIHEDRAL>
0

>  <SCORE.INTRA.DIHEDRAL.0>
0

>  <SCORE.INTRA.POLAR>
0

>  <SCORE.INTRA.POLAR.0>
0

>  <SCORE.INTRA.REPUL>
0

>  <SCORE.INTRA.REPUL.0>
0

>  <SCORE.INTRA.SOLV>
0

>  <SCORE.INTRA.SOLV.lig_0>
-23.9151

>  <SCORE.INTRA.VDW>
0

>  <SCORE.INTRA.VDW.0>
0

>  <SCORE.INTRA.norm>
0

>  <SCORE.RESTR>
0

>  <SCORE.RESTR.CAVITY>
0

>  <SCORE.RESTR.norm>
0

>  <SCORE.SYSTEM>
0

>  <SCORE.SYSTEM.CONST>
0

>  <SCORE.SYSTEM.DIHEDRAL>
0

>  <SCORE.SYSTEM.SOLV>
0

>  <SCORE.SYSTEM.norm>
0

>  <SCORE.heavy>
10

>  <SCORE.norm>
-0.950843

>  <RMSD>
11.963

$$$$
ligand
 OpenBabel11021811503D
libRbt.so/2013.1/901 2013/11/27
 10 11  0  0  0  0  0  0  0  0999 V2000
    4.4987  -25.4326   15.7153 N   0  0  0  0  0  0  0  0  0  0  0  0
    3.2300  -25.0202   15.7521 C   0  0  0  0  0  0  0  0  0  0  0  0
    2.1108  -25.7447   15.8738 N   0  0  0  0  0  0  0  0  0  0  0  0
    2.4044  -27.0571   15.9451 C   0  0  0  0  0  0  0  0  0  0  0  0
    3.6600  -27.6337   15.9189 C   0  0  0  0  0  0  0  0  0  0  0  0
    4.7595  -26.7610   15.7977 C   0  0  0  0  0  0  0  0  0  0  0  0
    6.0314  -27.1887   15.7504 N   0  0  0  0  0  0  0  0  0  0  0  0
    3.5763  -29.0102   16.0227 N   0  0  0  0  0  0  0  0  0  0  0  0
    2.2936  -29.2419   16.1158 C   0  0  0  0  0  0  0  0  0  0  0  0
    1.5270  -28.1080   16.0667 N   0  0  0  0  0  0  0  0  0  0  0  0
  1  2  2  0  0  0  0
  1  6  1  0  0  0  0
  2  3  1  0  0  0  0
  3  4  2  0  0  0  0
  4  5  1  0  0  0  0
  4 10  1  0  0  0  0
  5  6  2  0  0  0  0
  5  8  1  0  0  0  0
  6  7  1  0  0  0  0
  8  9  1  0  0  0  0
  9 10  2  0  0  0  0
M  END
>  <CHROM.1>
3.41988564,-27.11804027,15.89508635,0.81725666,0.05583634,-0.07173218

>  <Name>
ligand

>  <RI>
0

>  <Rbt.Current_Directory>
/home/itssahil/PROJECTS/Mol_Feturizer/New_Systems/rnas/4LW0

>  <Rbt.Executable>
rbdock ($Id: //depot/dev/client3/rdock/2013.1/src/exe/rbdock.cxx#4 $)

>  <Rbt.Library>
libRbt.so (2013.1, Build901 2013/11/27)

>  <Rbt.Parameter_File>
/export/apps/rDock/src/rDock_2013.1_src/data/scripts/dock_solv.prm

>  <Rbt.Receptor>
prm/blind_docking_40.prm

>  <SCORE>
-9.50916

>  <SCORE.INTER>
-9.50931

>  <SCORE.INTER.CONST>
1

>  <SCORE.INTER.POLAR>
0

>  <SCORE.INTER.ROT>
0

>  <SCORE.INTER.SOLV>
3.75308

>  <SCORE.INTER.VDW>
-11.1906

>  <SCORE.INTER.norm>
-0.950931

>  <SCORE.INTRA>
0

>  <SCORE.INTRA.DIHEDRAL>
0

>  <SCORE.INTRA.DIHEDRAL.0>
0

>  <SCORE.INTRA.POLAR>
0

>  <SCORE.INTRA.POLAR.0>
0

>  <SCORE.INTRA.REPUL>
0

>  <SCORE.INTRA.REPUL.0>
0

>  <SCORE.INTRA.SOLV>
0

>  <SCORE.INTRA.SOLV.lig_0>
-23.9151

>  <SCORE.INTRA.VDW>
0

>  <SCORE.INTRA.VDW.0>
0

>  <SCORE.INTRA.norm>
0

>  <SCORE.RESTR>
0.000150854

>  <SCORE.RESTR.CAVITY>
0.000150854

>  <SCORE.RESTR.norm>
1.50854e-05

>  <SCORE.SYSTEM>
0

>  <SCORE.SYSTEM.CONST>
0

>  <SCORE.SYSTEM.DIHEDRAL>
0

>  <SCORE.SYSTEM.SOLV>
0

>  <SCORE.SYSTEM.norm>
0

>  <SCORE.heavy>
10

>  <SCORE.norm>
-0.950916

>  <RMSD>
11.965

$$$$
ligand
 OpenBabel11021811503D
libRbt.so/2013.1/901 2013/11/27
 10 11  0  0  0  0  0  0  0  0999 V2000
    4.5051  -25.4309   15.7120 N   0  0  0  0  0  0  0  0  0  0  0  0
    3.2369  -25.0166   15.7436 C   0  0  0  0  0  0  0  0  0  0  0  0
    2.1161  -25.7393   15.8608 N   0  0  0  0  0  0  0  0  0  0  0  0
    2.4074  -27.0521   15.9334 C   0  0  0  0  0  0  0  0  0  0  0  0
    3.6622  -27.6307   15.9123 C   0  0  0  0  0  0  0  0  0  0  0  0
    4.7636  -26.7596   15.7956 C   0  0  0  0  0  0  0  0  0  0  0  0
    6.0350  -27.1893   15.7536 N   0  0  0  0  0  0  0  0  0  0  0  0
    3.5761  -29.0070   16.0159 N   0  0  0  0  0  0  0  0  0  0  0  0
    2.2926  -29.2367   16.1038 C   0  0  0  0  0  0  0  0  0  0  0  0
    1.5279  -28.1017   16.0515 N   0  0  0  0  0  0  0  0  0  0  0  0
  1  2  2  0  0  0  0
  1  6  1  0  0  0  0
  2  3  1  0  0  0  0
  3  4  2  0  0  0  0
  4  5  1  0  0  0  0
  4 10  1  0  0  0  0
  5  6  2  0  0  0  0
  5  8  1  0  0  0  0
  6  7  1  0  0  0  0
  8  9  1  0  0  0  0
  9 10  2  0  0  0  0
M  END
>  <CHROM.1>
3.42301694,-27.11463841,15.88750044,0.81545204,0.05185562,-0.07172154

>  <Name>
ligand

>  <RI>
0

>  <Rbt.Current_Directory>
/home/itssahil/PROJECTS/Mol_Feturizer/New_Systems/rnas/4LW0

>  <Rbt.Executable>
rbdock ($Id: //depot/dev/client3/rdock/2013.1/src/exe/rbdock.cxx#4 $)

>  <Rbt.Library>
libRbt.so (2013.1, Build901 2013/11/27)

>  <Rbt.Parameter_File>
/export/apps/rDock/src/rDock_2013.1_src/data/scripts/dock_solv.prm

>  <Rbt.Receptor>
prm/blind_docking_40.prm

>  <SCORE>
-9.51007

>  <SCORE.INTER>
-9.5101

>  <SCORE.INTER.CONST>
1

>  <SCORE.INTER.POLAR>
0

>  <SCORE.INTER.ROT>
0

>  <SCORE.INTER.SOLV>
3.75619

>  <SCORE.INTER.VDW>
-11.1921

>  <SCORE.INTER.norm>
-0.95101

>  <SCORE.INTRA>
0

>  <SCORE.INTRA.DIHEDRAL>
0

>  <SCORE.INTRA.DIHEDRAL.0>
0

>  <SCORE.INTRA.POLAR>
0

>  <SCORE.INTRA.POLAR.0>
0

>  <SCORE.INTRA.REPUL>
0

>  <SCORE.INTRA.REPUL.0>
0

>  <SCORE.INTRA.SOLV>
0

>  <SCORE.INTRA.SOLV.lig_0>
-23.9151

>  <SCORE.INTRA.VDW>
0

>  <SCORE.INTRA.VDW.0>
0

>  <SCORE.INTRA.norm>
0

>  <SCORE.RESTR>
2.77494e-05

>  <SCORE.RESTR.CAVITY>
2.77494e-05

>  <SCORE.RESTR.norm>
2.77494e-06

>  <SCORE.SYSTEM>
0

>  <SCORE.SYSTEM.CONST>
0

>  <SCORE.SYSTEM.DIHEDRAL>
0

>  <SCORE.SYSTEM.SOLV>
0

>  <SCORE.SYSTEM.norm>
0

>  <SCORE.heavy>
10

>  <SCORE.norm>
-0.951007

>  <RMSD>
11.969

$$$$
ligand
 OpenBabel11021811503D
libRbt.so/2013.1/901 2013/11/27
 10 11  0  0  0  0  0  0  0  0999 V2000
   -6.7626  -29.1017   29.9947 N   0  0  0  0  0  0  0  0  0  0  0  0
   -5.4688  -29.2403   30.2911 C   0  0  0  0  0  0  0  0  0  0  0  0
   -4.5708  -28.2997   30.6092 N   0  0  0  0  0  0  0  0  0  0  0  0
   -5.1385  -27.0787   30.5844 C   0  0  0  0  0  0  0  0  0  0  0  0
   -6.4560  -26.7769   30.2964 C   0  0  0  0  0  0  0  0  0  0  0  0
   -7.3044  -27.8585   29.9869 C   0  0  0  0  0  0  0  0  0  0  0  0
   -8.6025  -27.7054   29.6792 N   0  0  0  0  0  0  0  0  0  0  0  0
   -6.6820  -25.4149   30.3755 N   0  0  0  0  0  0  0  0  0  0  0  0
   -5.5195  -24.9215   30.7116 C   0  0  0  0  0  0  0  0  0  0  0  0
   -4.5400  -25.8694   30.8457 N   0  0  0  0  0  0  0  0  0  0  0  0
  1  2  2  0  0  0  0
  1  6  1  0  0  0  0
  2  3  1  0  0  0  0
  3  4  2  0  0  0  0
  4  5  1  0  0  0  0
  4 10  1  0  0  0  0
  5  6  2  0  0  0  0
  5  8  1  0  0  0  0
  6  7  1  0  0  0  0
  8  9  1  0  0  0  0
  9 10  2  0  0  0  0
M  END
>  <CHROM.1>
-6.11426914,-27.23066413,30.33466135,-2.09479950,-0.23751939,0.09801835

>  <Name>
ligand

>  <RI>
0

>  <Rbt.Current_Directory>
/home/itssahil/PROJECTS/Mol_Feturizer/New_Systems/rnas/4LW0

>  <Rbt.Executable>
rbdock ($Id: //depot/dev/client3/rdock/2013.1/src/exe/rbdock.cxx#4 $)

>  <Rbt.Library>
libRbt.so (2013.1, Build901 2013/11/27)

>  <Rbt.Parameter_File>
/export/apps/rDock/src/rDock_2013.1_src/data/scripts/dock_solv.prm

>  <Rbt.Receptor>
prm/blind_docking_100.prm

>  <SCORE>
-10.2871

>  <SCORE.INTER>
-10.2871

>  <SCORE.INTER.CONST>
1

>  <SCORE.INTER.POLAR>
0

>  <SCORE.INTER.ROT>
0

>  <SCORE.INTER.SOLV>
5.15381

>  <SCORE.INTER.VDW>
-12.176

>  <SCORE.INTER.norm>
-1.02871

>  <SCORE.INTRA>
0

>  <SCORE.INTRA.DIHEDRAL>
0

>  <SCORE.INTRA.DIHEDRAL.0>
0

>  <SCORE.INTRA.POLAR>
0

>  <SCORE.INTRA.POLAR.0>
0

>  <SCORE.INTRA.REPUL>
0

>  <SCORE.INTRA.REPUL.0>
0

>  <SCORE.INTRA.SOLV>
0

>  <SCORE.INTRA.SOLV.lig_0>
-23.9151

>  <SCORE.INTRA.VDW>
0

>  <SCORE.INTRA.VDW.0>
0

>  <SCORE.INTRA.norm>
0

>  <SCORE.RESTR>
0

>  <SCORE.RESTR.CAVITY>
0

>  <SCORE.RESTR.norm>
0

>  <SCORE.SYSTEM>
0

>  <SCORE.SYSTEM.CONST>
0

>  <SCORE.SYSTEM.DIHEDRAL>
0

>  <SCORE.SYSTEM.SOLV>
0

>  <SCORE.SYSTEM.norm>
0

>  <SCORE.heavy>
10

>  <SCORE.norm>
-1.02871

>  <RMSD>
11.979

$$$$
ligand
 OpenBabel11021811503D
libRbt.so/2013.1/901 2013/11/27
 10 11  0  0  0  0  0  0  0  0999 V2000
   -5.6894  -30.6105   27.1607 N   0  0  0  0  0  0  0  0  0  0  0  0
   -5.2425  -31.1767   26.0378 C   0  0  0  0  0  0  0  0  0  0  0  0
   -3.9972  -31.2099   25.5476 N   0  0  0  0  0  0  0  0  0  0  0  0
   -3.1541  -30.5408   26.3571 C   0  0  0  0  0  0  0  0  0  0  0  0
   -3.4655  -29.9053   27.5441 C   0  0  0  0  0  0  0  0  0  0  0  0
   -4.8118  -29.9514   27.9574 C   0  0  0  0  0  0  0  0  0  0  0  0
   -5.2517  -29.3681   29.0840 N   0  0  0  0  0  0  0  0  0  0  0  0
   -2.3420  -29.3298   28.1087 N   0  0  0  0  0  0  0  0  0  0  0  0
   -1.3821  -29.6265   27.2729 C   0  0  0  0  0  0  0  0  0  0  0  0
   -1.8037  -30.3487   26.1883 N   0  0  0  0  0  0  0  0  0  0  0  0
  1  2  2  0  0  0  0
  1  6  1  0  0  0  0
  2  3  1  0  0  0  0
  3  4  2  0  0  0  0
  4  5  1  0  0  0  0
  4 10  1  0  0  0  0
  5  6  2  0  0  0  0
  5  8  1  0  0  0  0
  6  7  1  0  0  0  0
  8  9  1  0  0  0  0
  9 10  2  0  0  0  0
M  END
>  <CHROM.1>
-3.72187721,-30.20421545,27.13291677,3.04736164,0.18183424,1.03465492

>  <Name>
ligand

>  <RI>
0

>  <Rbt.Current_Directory>
/home/itssahil/PROJECTS/Mol_Feturizer/New_Systems/rnas/4LW0

>  <Rbt.Executable>
rbdock ($Id: //depot/dev/client3/rdock/2013.1/src/exe/rbdock.cxx#4 $)

>  <Rbt.Library>
libRbt.so (2013.1, Build901 2013/11/27)

>  <Rbt.Parameter_File>
/export/apps/rDock/src/rDock_2013.1_src/data/scripts/dock_solv.prm

>  <Rbt.Receptor>
prm/blind_docking_100.prm

>  <SCORE>
-13.6088

>  <SCORE.INTER>
-13.6088

>  <SCORE.INTER.CONST>
1

>  <SCORE.INTER.POLAR>
0

>  <SCORE.INTER.ROT>
0

>  <SCORE.INTER.SOLV>
7.17226

>  <SCORE.INTER.VDW>
-15.0633

>  <SCORE.INTER.norm>
-1.36088

>  <SCORE.INTRA>
0

>  <SCORE.INTRA.DIHEDRAL>
0

>  <SCORE.INTRA.DIHEDRAL.0>
0

>  <SCORE.INTRA.POLAR>
0

>  <SCORE.INTRA.POLAR.0>
0

>  <SCORE.INTRA.REPUL>
0

>  <SCORE.INTRA.REPUL.0>
0

>  <SCORE.INTRA.SOLV>
0

>  <SCORE.INTRA.SOLV.lig_0>
-23.9151

>  <SCORE.INTRA.VDW>
0

>  <SCORE.INTRA.VDW.0>
0

>  <SCORE.INTRA.norm>
0

>  <SCORE.RESTR>
0

>  <SCORE.RESTR.CAVITY>
0

>  <SCORE.RESTR.norm>
0

>  <SCORE.SYSTEM>
0

>  <SCORE.SYSTEM.CONST>
0

>  <SCORE.SYSTEM.DIHEDRAL>
0

>  <SCORE.SYSTEM.SOLV>
0

>  <SCORE.SYSTEM.norm>
0

>  <SCORE.heavy>
10

>  <SCORE.norm>
-1.36088

>  <RMSD>
11.998

$$$$
ligand
 OpenBabel11021811503D
libRbt.so/2013.1/901 2013/11/27
 10 11  0  0  0  0  0  0  0  0999 V2000
   -5.7359  -30.7039   27.0392 N   0  0  0  0  0  0  0  0  0  0  0  0
   -5.1832  -31.2500   25.9542 C   0  0  0  0  0  0  0  0  0  0  0  0
   -3.9102  -31.2046   25.5423 N   0  0  0  0  0  0  0  0  0  0  0  0
   -3.1655  -30.4725   26.3928 C   0  0  0  0  0  0  0  0  0  0  0  0
   -3.5920  -29.8475   27.5491 C   0  0  0  0  0  0  0  0  0  0  0  0
   -4.9554  -29.9795   27.8792 C   0  0  0  0  0  0  0  0  0  0  0  0
   -5.5026  -29.4157   28.9681 N   0  0  0  0  0  0  0  0  0  0  0  0
   -2.5465  -29.1924   28.1738 N   0  0  0  0  0  0  0  0  0  0  0  0
   -1.5187  -29.4325   27.4032 C   0  0  0  0  0  0  0  0  0  0  0  0
   -1.8229  -30.1921   26.3049 N   0  0  0  0  0  0  0  0  0  0  0  0
  1  2  2  0  0  0  0
  1  6  1  0  0  0  0
  2  3  1  0  0  0  0
  3  4  2  0  0  0  0
  4  5  1  0  0  0  0
  4 10  1  0  0  0  0
  5  6  2  0  0  0  0
  5  8  1  0  0  0  0
  6  7  1  0  0  0  0
  8  9  1  0  0  0  0
  9 10  2  0  0  0  0
M  END
>  <CHROM.1>
-3.80173754,-30.16696613,27.12721229,3.13695730,0.20611382,1.00527675

>  <Name>
ligand

>  <RI>
0

>  <Rbt.Current_Directory>
/home/itssahil/PROJECTS/Mol_Feturizer/New_Systems/rnas/4LW0

>  <Rbt.Executable>
rbdock ($Id: //depot/dev/client3/rdock/2013.1/src/exe/rbdock.cxx#4 $)

>  <Rbt.Library>
libRbt.so (2013.1, Build901 2013/11/27)

>  <Rbt.Parameter_File>
/export/apps/rDock/src/rDock_2013.1_src/data/scripts/dock_solv.prm

>  <Rbt.Receptor>
prm/blind_docking_100.prm

>  <SCORE>
-13.6061

>  <SCORE.INTER>
-13.6061

>  <SCORE.INTER.CONST>
1

>  <SCORE.INTER.POLAR>
0

>  <SCORE.INTER.ROT>
0

>  <SCORE.INTER.SOLV>
7.45094

>  <SCORE.INTER.VDW>
-15.1544

>  <SCORE.INTER.norm>
-1.36061

>  <SCORE.INTRA>
0

>  <SCORE.INTRA.DIHEDRAL>
0

>  <SCORE.INTRA.DIHEDRAL.0>
0

>  <SCORE.INTRA.POLAR>
0

>  <SCORE.INTRA.POLAR.0>
0

>  <SCORE.INTRA.REPUL>
0

>  <SCORE.INTRA.REPUL.0>
0

>  <SCORE.INTRA.SOLV>
0

>  <SCORE.INTRA.SOLV.lig_0>
-23.9151

>  <SCORE.INTRA.VDW>
0

>  <SCORE.INTRA.VDW.0>
0

>  <SCORE.INTRA.norm>
0

>  <SCORE.RESTR>
0

>  <SCORE.RESTR.CAVITY>
0

>  <SCORE.RESTR.norm>
0

>  <SCORE.SYSTEM>
0

>  <SCORE.SYSTEM.CONST>
0

>  <SCORE.SYSTEM.DIHEDRAL>
0

>  <SCORE.SYSTEM.SOLV>
0

>  <SCORE.SYSTEM.norm>
0

>  <SCORE.heavy>
10

>  <SCORE.norm>
-1.36061

>  <RMSD>
11.999

$$$$
ligand
 OpenBabel11021811503D
libRbt.so/2013.1/901 2013/11/27
 10 11  0  0  0  0  0  0  0  0999 V2000
   -5.6999  -30.6051   27.1683 N   0  0  0  0  0  0  0  0  0  0  0  0
   -5.2538  -31.1680   26.0436 C   0  0  0  0  0  0  0  0  0  0  0  0
   -4.0087  -31.1998   25.5525 N   0  0  0  0  0  0  0  0  0  0  0  0
   -3.1652  -30.5331   26.3635 C   0  0  0  0  0  0  0  0  0  0  0  0
   -3.4758  -29.9011   27.5524 C   0  0  0  0  0  0  0  0  0  0  0  0
   -4.8219  -29.9483   27.9664 C   0  0  0  0  0  0  0  0  0  0  0  0
   -5.2610  -29.3682   29.0950 N   0  0  0  0  0  0  0  0  0  0  0  0
   -2.3519  -29.3272   28.1180 N   0  0  0  0  0  0  0  0  0  0  0  0
   -1.3926  -29.6215   27.2808 C   0  0  0  0  0  0  0  0  0  0  0  0
   -1.8149  -30.3406   26.1943 N   0  0  0  0  0  0  0  0  0  0  0  0
  1  2  2  0  0  0  0
  1  6  1  0  0  0  0
  2  3  1  0  0  0  0
  3  4  2  0  0  0  0
  4  5  1  0  0  0  0
  4 10  1  0  0  0  0
  5  6  2  0  0  0  0
  5  8  1  0  0  0  0
  6  7  1  0  0  0  0
  8  9  1  0  0  0  0
  9 10  2  0  0  0  0
M  END
>  <CHROM.1>
-3.73244708,-30.19875158,27.14055965,3.04680367,0.18210203,1.03767598

>  <Name>
ligand

>  <RI>
0

>  <Rbt.Current_Directory>
/home/itssahil/PROJECTS/Mol_Feturizer/New_Systems/rnas/4LW0

>  <Rbt.Executable>
rbdock ($Id: //depot/dev/client3/rdock/2013.1/src/exe/rbdock.cxx#4 $)

>  <Rbt.Library>
libRbt.so (2013.1, Build901 2013/11/27)

>  <Rbt.Parameter_File>
/export/apps/rDock/src/rDock_2013.1_src/data/scripts/dock_solv.prm

>  <Rbt.Receptor>
prm/blind_docking_100.prm

>  <SCORE>
-13.6334

>  <SCORE.INTER>
-13.6334

>  <SCORE.INTER.CONST>
1

>  <SCORE.INTER.POLAR>
0

>  <SCORE.INTER.ROT>
0

>  <SCORE.INTER.SOLV>
7.154

>  <SCORE.INTER.VDW>
-15.0736

>  <SCORE.INTER.norm>
-1.36334

>  <SCORE.INTRA>
0

>  <SCORE.INTRA.DIHEDRAL>
0

>  <SCORE.INTRA.DIHEDRAL.0>
0

>  <SCORE.INTRA.POLAR>
0

>  <SCORE.INTRA.POLAR.0>
0

>  <SCORE.INTRA.REPUL>
0

>  <SCORE.INTRA.REPUL.0>
0

>  <SCORE.INTRA.SOLV>
0

>  <SCORE.INTRA.SOLV.lig_0>
-23.9151

>  <SCORE.INTRA.VDW>
0

>  <SCORE.INTRA.VDW.0>
0

>  <SCORE.INTRA.norm>
0

>  <SCORE.RESTR>
0

>  <SCORE.RESTR.CAVITY>
0

>  <SCORE.RESTR.norm>
0

>  <SCORE.SYSTEM>
0

>  <SCORE.SYSTEM.CONST>
0

>  <SCORE.SYSTEM.DIHEDRAL>
0

>  <SCORE.SYSTEM.SOLV>
0

>  <SCORE.SYSTEM.norm>
0

>  <SCORE.heavy>
10

>  <SCORE.norm>
-1.36334

>  <RMSD>
12.000

$$$$
ligand
 OpenBabel11021811503D
libRbt.so/2013.1/901 2013/11/27
 10 11  0  0  0  0  0  0  0  0999 V2000
   -5.7359  -30.7079   27.0424 N   0  0  0  0  0  0  0  0  0  0  0  0
   -5.1787  -31.2676   25.9666 C   0  0  0  0  0  0  0  0  0  0  0  0
   -3.9040  -31.2273   25.5594 N   0  0  0  0  0  0  0  0  0  0  0  0
   -3.1629  -30.4845   26.4037 C   0  0  0  0  0  0  0  0  0  0  0  0
   -3.5941  -29.8450   27.5503 C   0  0  0  0  0  0  0  0  0  0  0  0
   -4.9589  -29.9729   27.8763 C   0  0  0  0  0  0  0  0  0  0  0  0
   -5.5106  -29.3955   28.9558 N   0  0  0  0  0  0  0  0  0  0  0  0
   -2.5512  -29.1820   28.1710 N   0  0  0  0  0  0  0  0  0  0  0  0
   -1.5203  -29.4317   27.4077 C   0  0  0  0  0  0  0  0  0  0  0  0
   -1.8199  -30.2051   26.3178 N   0  0  0  0  0  0  0  0  0  0  0  0
  1  2  2  0  0  0  0
  1  6  1  0  0  0  0
  2  3  1  0  0  0  0
  3  4  2  0  0  0  0
  4  5  1  0  0  0  0
  4 10  1  0  0  0  0
  5  6  2  0  0  0  0
  5  8  1  0  0  0  0
  6  7  1  0  0  0  0
  8  9  1  0  0  0  0
  9 10  2  0  0  0  0
M  END
>  <CHROM.1>
-3.80212800,-30.16978387,27.13158244,3.14053436,0.20391211,0.99195763

>  <Name>
ligand

>  <RI>
0

>  <Rbt.Current_Directory>
/home/itssahil/PROJECTS/Mol_Feturizer/New_Systems/rnas/4LW0

>  <Rbt.Executable>
rbdock ($Id: //depot/dev/client3/rdock/2013.1/src/exe/rbdock.cxx#4 $)

>  <Rbt.Library>
libRbt.so (2013.1, Build901 2013/11/27)

>  <Rbt.Parameter_File>
/export/apps/rDock/src/rDock_2013.1_src/data/scripts/dock_solv.prm

>  <Rbt.Receptor>
prm/blind_docking_60.prm

>  <SCORE>
-13.5894

>  <SCORE.INTER>
-13.5906

>  <SCORE.INTER.CONST>
1

>  <SCORE.INTER.POLAR>
0

>  <SCORE.INTER.ROT>
0

>  <SCORE.INTER.SOLV>
7.47183

>  <SCORE.INTER.VDW>
-15.151

>  <SCORE.INTER.norm>
-1.35906

>  <SCORE.INTRA>
0

>  <SCORE.INTRA.DIHEDRAL>
0

>  <SCORE.INTRA.DIHEDRAL.0>
0

>  <SCORE.INTRA.POLAR>
0

>  <SCORE.INTRA.POLAR.0>
0

>  <SCORE.INTRA.REPUL>
0

>  <SCORE.INTRA.REPUL.0>
0

>  <SCORE.INTRA.SOLV>
0

>  <SCORE.INTRA.SOLV.lig_0>
-23.9151

>  <SCORE.INTRA.VDW>
0

>  <SCORE.INTRA.VDW.0>
0

>  <SCORE.INTRA.norm>
0

>  <SCORE.RESTR>
0.00118889

>  <SCORE.RESTR.CAVITY>
0.00118889

>  <SCORE.RESTR.norm>
0.000118889

>  <SCORE.SYSTEM>
0

>  <SCORE.SYSTEM.CONST>
0

>  <SCORE.SYSTEM.DIHEDRAL>
0

>  <SCORE.SYSTEM.SOLV>
0

>  <SCORE.SYSTEM.norm>
0

>  <SCORE.heavy>
10

>  <SCORE.norm>
-1.35894

>  <RMSD>
12.002

$$$$
ligand
 OpenBabel11021811503D
libRbt.so/2013.1/901 2013/11/27
 10 11  0  0  0  0  0  0  0  0999 V2000
   -5.6969  -30.6140   27.1582 N   0  0  0  0  0  0  0  0  0  0  0  0
   -5.2472  -31.1734   26.0331 C   0  0  0  0  0  0  0  0  0  0  0  0
   -4.0007  -31.2026   25.5453 N   0  0  0  0  0  0  0  0  0  0  0  0
   -3.1600  -30.5374   26.3604 C   0  0  0  0  0  0  0  0  0  0  0  0
   -3.4745  -29.9090   27.5503 C   0  0  0  0  0  0  0  0  0  0  0  0
   -4.8216  -29.9586   27.9605 C   0  0  0  0  0  0  0  0  0  0  0  0
   -5.2644  -29.3822   29.0895 N   0  0  0  0  0  0  0  0  0  0  0  0
   -2.3526  -29.3357   28.1205 N   0  0  0  0  0  0  0  0  0  0  0  0
   -1.3908  -29.6267   27.2851 C   0  0  0  0  0  0  0  0  0  0  0  0
   -1.8094  -30.3431   26.1955 N   0  0  0  0  0  0  0  0  0  0  0  0
  1  2  2  0  0  0  0
  1  6  1  0  0  0  0
  2  3  1  0  0  0  0
  3  4  2  0  0  0  0
  4  5  1  0  0  0  0
  4 10  1  0  0  0  0
  5  6  2  0  0  0  0
  5  8  1  0  0  0  0
  6  7  1  0  0  0  0
  8  9  1  0  0  0  0
  9 10  2  0  0  0  0
M  END
>  <CHROM.1>
-3.72971018,-30.20573825,27.13689882,3.04966898,0.18155805,1.03996183

>  <Name>
ligand

>  <RI>
0

>  <Rbt.Current_Directory>
/home/itssahil/PROJECTS/Mol_Feturizer/New_Systems/rnas/4LW0

>  <Rbt.Executable>
rbdock ($Id: //depot/dev/client3/rdock/2013.1/src/exe/rbdock.cxx#4 $)

>  <Rbt.Library>
libRbt.so (2013.1, Build901 2013/11/27)

>  <Rbt.Parameter_File>
/export/apps/rDock/src/rDock_2013.1_src/data/scripts/dock_solv.prm

>  <Rbt.Receptor>
prm/blind_docking_80.prm

>  <SCORE>
-13.6288

>  <SCORE.INTER>
-13.6288

>  <SCORE.INTER.CONST>
1

>  <SCORE.INTER.POLAR>
0

>  <SCORE.INTER.ROT>
0

>  <SCORE.INTER.SOLV>
7.18275

>  <SCORE.INTER.VDW>
-15.0801

>  <SCORE.INTER.norm>
-1.36288

>  <SCORE.INTRA>
0

>  <SCORE.INTRA.DIHEDRAL>
0

>  <SCORE.INTRA.DIHEDRAL.0>
0

>  <SCORE.INTRA.POLAR>
0

>  <SCORE.INTRA.POLAR.0>
0

>  <SCORE.INTRA.REPUL>
0

>  <SCORE.INTRA.REPUL.0>
0

>  <SCORE.INTRA.SOLV>
0

>  <SCORE.INTRA.SOLV.lig_0>
-23.9151

>  <SCORE.INTRA.VDW>
0

>  <SCORE.INTRA.VDW.0>
0

>  <SCORE.INTRA.norm>
0

>  <SCORE.RESTR>
0

>  <SCORE.RESTR.CAVITY>
0

>  <SCORE.RESTR.norm>
0

>  <SCORE.SYSTEM>
0

>  <SCORE.SYSTEM.CONST>
0

>  <SCORE.SYSTEM.DIHEDRAL>
0

>  <SCORE.SYSTEM.SOLV>
0

>  <SCORE.SYSTEM.norm>
0

>  <SCORE.heavy>
10

>  <SCORE.norm>
-1.36288

>  <RMSD>
12.003

$$$$
ligand
 OpenBabel11021811503D
libRbt.so/2013.1/901 2013/11/27
 10 11  0  0  0  0  0  0  0  0999 V2000
    4.3795  -29.0500   16.7316 N   0  0  0  0  0  0  0  0  0  0  0  0
    3.0634  -29.0246   16.9508 C   0  0  0  0  0  0  0  0  0  0  0  0
    2.1888  -28.0373   16.7211 N   0  0  0  0  0  0  0  0  0  0  0  0
    2.8177  -26.9588   16.2161 C   0  0  0  0  0  0  0  0  0  0  0  0
    4.1653  -26.8336   15.9369 C   0  0  0  0  0  0  0  0  0  0  0  0
    4.9799  -27.9494   16.2142 C   0  0  0  0  0  0  0  0  0  0  0  0
    6.3053  -27.9591   15.9997 N   0  0  0  0  0  0  0  0  0  0  0  0
    4.4509  -25.5837   15.4186 N   0  0  0  0  0  0  0  0  0  0  0  0
    3.2904  -24.9836   15.3855 C   0  0  0  0  0  0  0  0  0  0  0  0
    2.2619  -25.7530   15.8609 N   0  0  0  0  0  0  0  0  0  0  0  0
  1  2  2  0  0  0  0
  1  6  1  0  0  0  0
  2  3  1  0  0  0  0
  3  4  2  0  0  0  0
  4  5  1  0  0  0  0
  4 10  1  0  0  0  0
  5  6  2  0  0  0  0
  5  8  1  0  0  0  0
  6  7  1  0  0  0  0
  8  9  1  0  0  0  0
  9 10  2  0  0  0  0
M  END
>  <CHROM.1>
3.80005194,-27.21816433,16.14375897,1.08850395,-0.15787397,2.78220782

>  <Name>
ligand

>  <RI>
0

>  <Rbt.Current_Directory>
/home/itssahil/PROJECTS/Mol_Feturizer/New_Systems/rnas/4LW0

>  <Rbt.Executable>
rbdock ($Id: //depot/dev/client3/rdock/2013.1/src/exe/rbdock.cxx#4 $)

>  <Rbt.Library>
libRbt.so (2013.1, Build901 2013/11/27)

>  <Rbt.Parameter_File>
/export/apps/rDock/src/rDock_2013.1_src/data/scripts/dock_solv.prm

>  <Rbt.Receptor>
prm/blind_docking_80.prm

>  <SCORE>
-8.7755

>  <SCORE.INTER>
-8.7755

>  <SCORE.INTER.CONST>
1

>  <SCORE.INTER.POLAR>
0

>  <SCORE.INTER.ROT>
0

>  <SCORE.INTER.SOLV>
2.75591

>  <SCORE.INTER.VDW>
-10.369

>  <SCORE.INTER.norm>
-0.87755

>  <SCORE.INTRA>
0

>  <SCORE.INTRA.DIHEDRAL>
0

>  <SCORE.INTRA.DIHEDRAL.0>
0

>  <SCORE.INTRA.POLAR>
0

>  <SCORE.INTRA.POLAR.0>
0

>  <SCORE.INTRA.REPUL>
0

>  <SCORE.INTRA.REPUL.0>
0

>  <SCORE.INTRA.SOLV>
0

>  <SCORE.INTRA.SOLV.lig_0>
-23.9151

>  <SCORE.INTRA.VDW>
0

>  <SCORE.INTRA.VDW.0>
0

>  <SCORE.INTRA.norm>
0

>  <SCORE.RESTR>
0

>  <SCORE.RESTR.CAVITY>
0

>  <SCORE.RESTR.norm>
0

>  <SCORE.SYSTEM>
0

>  <SCORE.SYSTEM.CONST>
0

>  <SCORE.SYSTEM.DIHEDRAL>
0

>  <SCORE.SYSTEM.SOLV>
0

>  <SCORE.SYSTEM.norm>
0

>  <SCORE.heavy>
10

>  <SCORE.norm>
-0.87755

>  <RMSD>
12.005

$$$$
ligand
 OpenBabel11021811503D
libRbt.so/2013.1/901 2013/11/27
 10 11  0  0  0  0  0  0  0  0999 V2000
    3.9170  -25.3482   15.6136 N   0  0  0  0  0  0  0  0  0  0  0  0
    2.7166  -25.0183   16.0947 C   0  0  0  0  0  0  0  0  0  0  0  0
    1.6736  -25.8095   16.3747 N   0  0  0  0  0  0  0  0  0  0  0  0
    1.9634  -27.0920   16.0833 C   0  0  0  0  0  0  0  0  0  0  0  0
    3.1527  -27.5853   15.5815 C   0  0  0  0  0  0  0  0  0  0  0  0
    4.1784  -26.6502   15.3386 C   0  0  0  0  0  0  0  0  0  0  0  0
    5.3787  -26.9928   14.8436 N   0  0  0  0  0  0  0  0  0  0  0  0
    3.0902  -28.9566   15.4142 N   0  0  0  0  0  0  0  0  0  0  0  0
    1.8868  -29.2687   15.8170 C   0  0  0  0  0  0  0  0  0  0  0  0
    1.1489  -28.1898   16.2261 N   0  0  0  0  0  0  0  0  0  0  0  0
  1  2  2  0  0  0  0
  1  6  1  0  0  0  0
  2  3  1  0  0  0  0
  3  4  2  0  0  0  0
  4  5  1  0  0  0  0
  4 10  1  0  0  0  0
  5  6  2  0  0  0  0
  5  8  1  0  0  0  0
  6  7  1  0  0  0  0
  8  9  1  0  0  0  0
  9 10  2  0  0  0  0
M  END
>  <CHROM.1>
2.92067173,-27.08872696,15.73532941,0.82965404,0.34840454,0.13802609

>  <Name>
ligand

>  <RI>
0

>  <Rbt.Current_Directory>
/home/itssahil/PROJECTS/Mol_Feturizer/New_Systems/rnas/4LW0

>  <Rbt.Executable>
rbdock ($Id: //depot/dev/client3/rdock/2013.1/src/exe/rbdock.cxx#4 $)

>  <Rbt.Library>
libRbt.so (2013.1, Build901 2013/11/27)

>  <Rbt.Parameter_File>
/export/apps/rDock/src/rDock_2013.1_src/data/scripts/dock_solv.prm

>  <Rbt.Receptor>
prm/blind_docking_40.prm

>  <SCORE>
-9.69676

>  <SCORE.INTER>
-9.69676

>  <SCORE.INTER.CONST>
1

>  <SCORE.INTER.POLAR>
0

>  <SCORE.INTER.ROT>
0

>  <SCORE.INTER.SOLV>
3.57775

>  <SCORE.INTER.VDW>
-11.2571

>  <SCORE.INTER.norm>
-0.969676

>  <SCORE.INTRA>
0

>  <SCORE.INTRA.DIHEDRAL>
0

>  <SCORE.INTRA.DIHEDRAL.0>
0

>  <SCORE.INTRA.POLAR>
0

>  <SCORE.INTRA.POLAR.0>
0

>  <SCORE.INTRA.REPUL>
0

>  <SCORE.INTRA.REPUL.0>
0

>  <SCORE.INTRA.SOLV>
0

>  <SCORE.INTRA.SOLV.lig_0>
-23.9151

>  <SCORE.INTRA.VDW>
0

>  <SCORE.INTRA.VDW.0>
0

>  <SCORE.INTRA.norm>
0

>  <SCORE.RESTR>
0

>  <SCORE.RESTR.CAVITY>
0

>  <SCORE.RESTR.norm>
0

>  <SCORE.SYSTEM>
0

>  <SCORE.SYSTEM.CONST>
0

>  <SCORE.SYSTEM.DIHEDRAL>
0

>  <SCORE.SYSTEM.SOLV>
0

>  <SCORE.SYSTEM.norm>
0

>  <SCORE.heavy>
10

>  <SCORE.norm>
-0.969676

>  <RMSD>
12.006

$$$$
ligand
 OpenBabel11021811503D
libRbt.so/2013.1/901 2013/11/27
 10 11  0  0  0  0  0  0  0  0999 V2000
   -5.6958  -30.6133   27.1673 N   0  0  0  0  0  0  0  0  0  0  0  0
   -5.2494  -31.1815   26.0453 C   0  0  0  0  0  0  0  0  0  0  0  0
   -4.0038  -31.2176   25.5558 N   0  0  0  0  0  0  0  0  0  0  0  0
   -3.1599  -30.5494   26.3651 C   0  0  0  0  0  0  0  0  0  0  0  0
   -3.4708  -29.9121   27.5512 C   0  0  0  0  0  0  0  0  0  0  0  0
   -4.8174  -29.9551   27.9638 C   0  0  0  0  0  0  0  0  0  0  0  0
   -5.2568  -29.3698   29.0896 N   0  0  0  0  0  0  0  0  0  0  0  0
   -2.3464  -29.3382   28.1159 N   0  0  0  0  0  0  0  0  0  0  0  0
   -1.3866  -29.6376   27.2810 C   0  0  0  0  0  0  0  0  0  0  0  0
   -1.8091  -30.3601   26.1968 N   0  0  0  0  0  0  0  0  0  0  0  0
  1  2  2  0  0  0  0
  1  6  1  0  0  0  0
  2  3  1  0  0  0  0
  3  4  2  0  0  0  0
  4  5  1  0  0  0  0
  4 10  1  0  0  0  0
  5  6  2  0  0  0  0
  5  8  1  0  0  0  0
  6  7  1  0  0  0  0
  8  9  1  0  0  0  0
  9 10  2  0  0  0  0
M  END
>  <CHROM.1>
-3.72747786,-30.21089526,27.14023643,3.04684379,0.17985691,1.03375770

>  <Name>
ligand

>  <RI>
0

>  <Rbt.Current_Directory>
/home/itssahil/PROJECTS/Mol_Feturizer/New_Systems/rnas/4LW0

>  <Rbt.Executable>
rbdock ($Id: //depot/dev/client3/rdock/2013.1/src/exe/rbdock.cxx#4 $)

>  <Rbt.Library>
libRbt.so (2013.1, Build901 2013/11/27)

>  <Rbt.Parameter_File>
/export/apps/rDock/src/rDock_2013.1_src/data/scripts/dock_solv.prm

>  <Rbt.Receptor>
prm/blind_docking_100.prm

>  <SCORE>
-13.6177

>  <SCORE.INTER>
-13.6226

>  <SCORE.INTER.CONST>
1

>  <SCORE.INTER.POLAR>
0

>  <SCORE.INTER.ROT>
0

>  <SCORE.INTER.SOLV>
7.17001

>  <SCORE.INTER.VDW>
-15.0717

>  <SCORE.INTER.norm>
-1.36226

>  <SCORE.INTRA>
0

>  <SCORE.INTRA.DIHEDRAL>
0

>  <SCORE.INTRA.DIHEDRAL.0>
0

>  <SCORE.INTRA.POLAR>
0

>  <SCORE.INTRA.POLAR.0>
0

>  <SCORE.INTRA.REPUL>
0

>  <SCORE.INTRA.REPUL.0>
0

>  <SCORE.INTRA.SOLV>
0

>  <SCORE.INTRA.SOLV.lig_0>
-23.9151

>  <SCORE.INTRA.VDW>
0

>  <SCORE.INTRA.VDW.0>
0

>  <SCORE.INTRA.norm>
0

>  <SCORE.RESTR>
0.00491645

>  <SCORE.RESTR.CAVITY>
0.00491645

>  <SCORE.RESTR.norm>
0.000491645

>  <SCORE.SYSTEM>
0

>  <SCORE.SYSTEM.CONST>
0

>  <SCORE.SYSTEM.DIHEDRAL>
0

>  <SCORE.SYSTEM.SOLV>
0

>  <SCORE.SYSTEM.norm>
0

>  <SCORE.heavy>
10

>  <SCORE.norm>
-1.36177

>  <RMSD>
12.007

$$$$
ligand
 OpenBabel11021811503D
libRbt.so/2013.1/901 2013/11/27
 10 11  0  0  0  0  0  0  0  0999 V2000
   -5.6921  -30.6862   27.0853 N   0  0  0  0  0  0  0  0  0  0  0  0
   -5.1987  -31.2453   25.9785 C   0  0  0  0  0  0  0  0  0  0  0  0
   -3.9408  -31.2414   25.5202 N   0  0  0  0  0  0  0  0  0  0  0  0
   -3.1407  -30.5397   26.3456 C   0  0  0  0  0  0  0  0  0  0  0  0
   -3.5027  -29.9064   27.5193 C   0  0  0  0  0  0  0  0  0  0  0  0
   -4.8569  -29.9933   27.8988 C   0  0  0  0  0  0  0  0  0  0  0  0
   -5.3440  -29.4168   29.0093 N   0  0  0  0  0  0  0  0  0  0  0  0
   -2.4131  -29.2907   28.1076 N   0  0  0  0  0  0  0  0  0  0  0  0
   -1.4231  -29.5619   27.2987 C   0  0  0  0  0  0  0  0  0  0  0  0
   -1.7934  -30.3050   26.2094 N   0  0  0  0  0  0  0  0  0  0  0  0
  1  2  2  0  0  0  0
  1  6  1  0  0  0  0
  2  3  1  0  0  0  0
  3  4  2  0  0  0  0
  4  5  1  0  0  0  0
  4 10  1  0  0  0  0
  5  6  2  0  0  0  0
  5  8  1  0  0  0  0
  6  7  1  0  0  0  0
  8  9  1  0  0  0  0
  9 10  2  0  0  0  0
M  END
>  <CHROM.1>
-3.73868137,-30.21631229,27.10409637,3.08656210,0.19643972,1.01990210

>  <Name>
ligand

>  <RI>
0

>  <Rbt.Current_Directory>
/home/itssahil/PROJECTS/Mol_Feturizer/New_Systems/rnas/4LW0

>  <Rbt.Executable>
rbdock ($Id: //depot/dev/client3/rdock/2013.1/src/exe/rbdock.cxx#4 $)

>  <Rbt.Library>
libRbt.so (2013.1, Build901 2013/11/27)

>  <Rbt.Parameter_File>
/export/apps/rDock/src/rDock_2013.1_src/data/scripts/dock_solv.prm

>  <Rbt.Receptor>
prm/blind_docking_100.prm

>  <SCORE>
-13.6163

>  <SCORE.INTER>
-13.6182

>  <SCORE.INTER.CONST>
1

>  <SCORE.INTER.POLAR>
0

>  <SCORE.INTER.ROT>
0

>  <SCORE.INTER.SOLV>
7.38127

>  <SCORE.INTER.VDW>
-15.1392

>  <SCORE.INTER.norm>
-1.36182

>  <SCORE.INTRA>
0

>  <SCORE.INTRA.DIHEDRAL>
0

>  <SCORE.INTRA.DIHEDRAL.0>
0

>  <SCORE.INTRA.POLAR>
0

>  <SCORE.INTRA.POLAR.0>
0

>  <SCORE.INTRA.REPUL>
0

>  <SCORE.INTRA.REPUL.0>
0

>  <SCORE.INTRA.SOLV>
0

>  <SCORE.INTRA.SOLV.lig_0>
-23.9151

>  <SCORE.INTRA.VDW>
0

>  <SCORE.INTRA.VDW.0>
0

>  <SCORE.INTRA.norm>
0

>  <SCORE.RESTR>
0.00182396

>  <SCORE.RESTR.CAVITY>
0.00182396

>  <SCORE.RESTR.norm>
0.000182396

>  <SCORE.SYSTEM>
0

>  <SCORE.SYSTEM.CONST>
0

>  <SCORE.SYSTEM.DIHEDRAL>
0

>  <SCORE.SYSTEM.SOLV>
0

>  <SCORE.SYSTEM.norm>
0

>  <SCORE.heavy>
10

>  <SCORE.norm>
-1.36163

>  <RMSD>
12.009

$$$$
ligand
 OpenBabel11021811503D
libRbt.so/2013.1/901 2013/11/27
 10 11  0  0  0  0  0  0  0  0999 V2000
   -5.7310  -30.7063   27.0487 N   0  0  0  0  0  0  0  0  0  0  0  0
   -5.1847  -31.2489   25.9587 C   0  0  0  0  0  0  0  0  0  0  0  0
   -3.9124  -31.2091   25.5438 N   0  0  0  0  0  0  0  0  0  0  0  0
   -3.1608  -30.4877   26.3973 C   0  0  0  0  0  0  0  0  0  0  0  0
   -3.5802  -29.8675   27.5588 C   0  0  0  0  0  0  0  0  0  0  0  0
   -4.9437  -29.9927   27.8914 C   0  0  0  0  0  0  0  0  0  0  0  0
   -5.4844  -29.4326   28.9855 N   0  0  0  0  0  0  0  0  0  0  0  0
   -2.5289  -29.2236   28.1852 N   0  0  0  0  0  0  0  0  0  0  0  0
   -1.5046  -29.4653   27.4104 C   0  0  0  0  0  0  0  0  0  0  0  0
   -1.8166  -30.2155   26.3079 N   0  0  0  0  0  0  0  0  0  0  0  0
  1  2  2  0  0  0  0
  1  6  1  0  0  0  0
  2  3  1  0  0  0  0
  3  4  2  0  0  0  0
  4  5  1  0  0  0  0
  4 10  1  0  0  0  0
  5  6  2  0  0  0  0
  5  8  1  0  0  0  0
  6  7  1  0  0  0  0
  8  9  1  0  0  0  0
  9 10  2  0  0  0  0
M  END
>  <CHROM.1>
-3.79315721,-30.18281304,27.13532766,3.13118356,0.20184263,1.01312291

>  <Name>
ligand

>  <RI>
0

>  <Rbt.Current_Directory>
/home/itssahil/PROJECTS/Mol_Feturizer/New_Systems/rnas/4LW0

>  <Rbt.Executable>
rbdock ($Id: //depot/dev/client3/rdock/2013.1/src/exe/rbdock.cxx#4 $)

>  <Rbt.Library>
libRbt.so (2013.1, Build901 2013/11/27)

>  <Rbt.Parameter_File>
/export/apps/rDock/src/rDock_2013.1_src/data/scripts/dock_solv.prm

>  <Rbt.Receptor>
prm/blind_docking_80.prm

>  <SCORE>
-13.5872

>  <SCORE.INTER>
-13.5872

>  <SCORE.INTER.CONST>
1

>  <SCORE.INTER.POLAR>
0

>  <SCORE.INTER.ROT>
0

>  <SCORE.INTER.SOLV>
7.44041

>  <SCORE.INTER.VDW>
-15.1383

>  <SCORE.INTER.norm>
-1.35872

>  <SCORE.INTRA>
0

>  <SCORE.INTRA.DIHEDRAL>
0

>  <SCORE.INTRA.DIHEDRAL.0>
0

>  <SCORE.INTRA.POLAR>
0

>  <SCORE.INTRA.POLAR.0>
0

>  <SCORE.INTRA.REPUL>
0

>  <SCORE.INTRA.REPUL.0>
0

>  <SCORE.INTRA.SOLV>
0

>  <SCORE.INTRA.SOLV.lig_0>
-23.9151

>  <SCORE.INTRA.VDW>
0

>  <SCORE.INTRA.VDW.0>
0

>  <SCORE.INTRA.norm>
0

>  <SCORE.RESTR>
0

>  <SCORE.RESTR.CAVITY>
0

>  <SCORE.RESTR.norm>
0

>  <SCORE.SYSTEM>
0

>  <SCORE.SYSTEM.CONST>
0

>  <SCORE.SYSTEM.DIHEDRAL>
0

>  <SCORE.SYSTEM.SOLV>
0

>  <SCORE.SYSTEM.norm>
0

>  <SCORE.heavy>
10

>  <SCORE.norm>
-1.35872

>  <RMSD>
12.009

$$$$
ligand
 OpenBabel11021811503D
libRbt.so/2013.1/901 2013/11/27
 10 11  0  0  0  0  0  0  0  0999 V2000
   -5.7353  -30.6362   27.1403 N   0  0  0  0  0  0  0  0  0  0  0  0
   -5.2289  -31.1946   26.0391 C   0  0  0  0  0  0  0  0  0  0  0  0
   -3.9634  -31.2012   25.6021 N   0  0  0  0  0  0  0  0  0  0  0  0
   -3.1704  -30.5121   26.4447 C   0  0  0  0  0  0  0  0  0  0  0  0
   -3.5457  -29.8813   27.6155 C   0  0  0  0  0  0  0  0  0  0  0  0
   -4.9070  -29.9563   27.9716 C   0  0  0  0  0  0  0  0  0  0  0  0
   -5.4070  -29.3806   29.0769 N   0  0  0  0  0  0  0  0  0  0  0  0
   -2.4600  -29.2800   28.2255 N   0  0  0  0  0  0  0  0  0  0  0  0
   -1.4593  -29.5570   27.4320 C   0  0  0  0  0  0  0  0  0  0  0  0
   -1.8186  -30.2905   26.3326 N   0  0  0  0  0  0  0  0  0  0  0  0
  1  2  2  0  0  0  0
  1  6  1  0  0  0  0
  2  3  1  0  0  0  0
  3  4  2  0  0  0  0
  4  5  1  0  0  0  0
  4 10  1  0  0  0  0
  5  6  2  0  0  0  0
  5  8  1  0  0  0  0
  6  7  1  0  0  0  0
  8  9  1  0  0  0  0
  9 10  2  0  0  0  0
M  END
>  <CHROM.1>
-3.77779088,-30.18658792,27.19472689,3.09583067,0.17886675,1.02353975

>  <Name>
ligand

>  <RI>
0

>  <Rbt.Current_Directory>
/home/itssahil/PROJECTS/Mol_Feturizer/New_Systems/rnas/4LW0

>  <Rbt.Executable>
rbdock ($Id: //depot/dev/client3/rdock/2013.1/src/exe/rbdock.cxx#4 $)

>  <Rbt.Library>
libRbt.so (2013.1, Build901 2013/11/27)

>  <Rbt.Parameter_File>
/export/apps/rDock/src/rDock_2013.1_src/data/scripts/dock_solv.prm

>  <Rbt.Receptor>
prm/blind_docking_100.prm

>  <SCORE>
-13.6171

>  <SCORE.INTER>
-13.6171

>  <SCORE.INTER.CONST>
1

>  <SCORE.INTER.POLAR>
0

>  <SCORE.INTER.ROT>
0

>  <SCORE.INTER.SOLV>
7.26635

>  <SCORE.INTER.VDW>
-15.1002

>  <SCORE.INTER.norm>
-1.36171

>  <SCORE.INTRA>
0

>  <SCORE.INTRA.DIHEDRAL>
0

>  <SCORE.INTRA.DIHEDRAL.0>
0

>  <SCORE.INTRA.POLAR>
0

>  <SCORE.INTRA.POLAR.0>
0

>  <SCORE.INTRA.REPUL>
0

>  <SCORE.INTRA.REPUL.0>
0

>  <SCORE.INTRA.SOLV>
0

>  <SCORE.INTRA.SOLV.lig_0>
-23.9151

>  <SCORE.INTRA.VDW>
0

>  <SCORE.INTRA.VDW.0>
0

>  <SCORE.INTRA.norm>
0

>  <SCORE.RESTR>
0

>  <SCORE.RESTR.CAVITY>
0

>  <SCORE.RESTR.norm>
0

>  <SCORE.SYSTEM>
0

>  <SCORE.SYSTEM.CONST>
0

>  <SCORE.SYSTEM.DIHEDRAL>
0

>  <SCORE.SYSTEM.SOLV>
0

>  <SCORE.SYSTEM.norm>
0

>  <SCORE.heavy>
10

>  <SCORE.norm>
-1.36171

>  <RMSD>
12.015

$$$$
ligand
 OpenBabel11021811503D
libRbt.so/2013.1/901 2013/11/27
 10 11  0  0  0  0  0  0  0  0999 V2000
   -5.6749  -30.7057   27.0351 N   0  0  0  0  0  0  0  0  0  0  0  0
   -5.1289  -31.2510   25.9464 C   0  0  0  0  0  0  0  0  0  0  0  0
   -3.8512  -31.2379   25.5467 N   0  0  0  0  0  0  0  0  0  0  0  0
   -3.0927  -30.5427   26.4156 C   0  0  0  0  0  0  0  0  0  0  0  0
   -3.5109  -29.9235   27.5781 C   0  0  0  0  0  0  0  0  0  0  0  0
   -4.8808  -30.0190   27.8937 C   0  0  0  0  0  0  0  0  0  0  0  0
   -5.4208  -29.4563   28.9868 N   0  0  0  0  0  0  0  0  0  0  0  0
   -2.4519  -29.3108   28.2228 N   0  0  0  0  0  0  0  0  0  0  0  0
   -1.4246  -29.5698   27.4576 C   0  0  0  0  0  0  0  0  0  0  0  0
   -1.7414  -30.3021   26.3444 N   0  0  0  0  0  0  0  0  0  0  0  0
  1  2  2  0  0  0  0
  1  6  1  0  0  0  0
  2  3  1  0  0  0  0
  3  4  2  0  0  0  0
  4  5  1  0  0  0  0
  4 10  1  0  0  0  0
  5  6  2  0  0  0  0
  5  8  1  0  0  0  0
  6  7  1  0  0  0  0
  8  9  1  0  0  0  0
  9 10  2  0  0  0  0
M  END
>  <CHROM.1>
-3.72625676,-30.22962931,27.14919215,3.12850916,0.17534562,1.02304292

>  <Name>
ligand

>  <RI>
0

>  <Rbt.Current_Directory>
/home/itssahil/PROJECTS/Mol_Feturizer/New_Systems/rnas/4LW0

>  <Rbt.Executable>
rbdock ($Id: //depot/dev/client3/rdock/2013.1/src/exe/rbdock.cxx#4 $)

>  <Rbt.Library>
libRbt.so (2013.1, Build901 2013/11/27)

>  <Rbt.Parameter_File>
/export/apps/rDock/src/rDock_2013.1_src/data/scripts/dock_solv.prm

>  <Rbt.Receptor>
prm/blind_docking_100.prm

>  <SCORE>
-13.5965

>  <SCORE.INTER>
-13.5965

>  <SCORE.INTER.CONST>
1

>  <SCORE.INTER.POLAR>
0

>  <SCORE.INTER.ROT>
0

>  <SCORE.INTER.SOLV>
7.50324

>  <SCORE.INTER.VDW>
-15.1654

>  <SCORE.INTER.norm>
-1.35965

>  <SCORE.INTRA>
0

>  <SCORE.INTRA.DIHEDRAL>
0

>  <SCORE.INTRA.DIHEDRAL.0>
0

>  <SCORE.INTRA.POLAR>
0

>  <SCORE.INTRA.POLAR.0>
0

>  <SCORE.INTRA.REPUL>
0

>  <SCORE.INTRA.REPUL.0>
0

>  <SCORE.INTRA.SOLV>
0

>  <SCORE.INTRA.SOLV.lig_0>
-23.9151

>  <SCORE.INTRA.VDW>
0

>  <SCORE.INTRA.VDW.0>
0

>  <SCORE.INTRA.norm>
0

>  <SCORE.RESTR>
0

>  <SCORE.RESTR.CAVITY>
0

>  <SCORE.RESTR.norm>
0

>  <SCORE.SYSTEM>
0

>  <SCORE.SYSTEM.CONST>
0

>  <SCORE.SYSTEM.DIHEDRAL>
0

>  <SCORE.SYSTEM.SOLV>
0

>  <SCORE.SYSTEM.norm>
0

>  <SCORE.heavy>
10

>  <SCORE.norm>
-1.35965

>  <RMSD>
12.015

$$$$
ligand
 OpenBabel11021811503D
libRbt.so/2013.1/901 2013/11/27
 10 11  0  0  0  0  0  0  0  0999 V2000
   -5.7278  -30.6355   27.1315 N   0  0  0  0  0  0  0  0  0  0  0  0
   -5.2251  -31.1960   26.0296 C   0  0  0  0  0  0  0  0  0  0  0  0
   -3.9601  -31.2081   25.5913 N   0  0  0  0  0  0  0  0  0  0  0  0
   -3.1631  -30.5227   26.4330 C   0  0  0  0  0  0  0  0  0  0  0  0
   -3.5344  -29.8903   27.6043 C   0  0  0  0  0  0  0  0  0  0  0  0
   -4.8956  -29.9593   27.9619 C   0  0  0  0  0  0  0  0  0  0  0  0
   -5.3918  -29.3816   29.0678 N   0  0  0  0  0  0  0  0  0  0  0  0
   -2.4454  -29.2939   28.2132 N   0  0  0  0  0  0  0  0  0  0  0  0
   -1.4468  -29.5753   27.4186 C   0  0  0  0  0  0  0  0  0  0  0  0
   -1.8105  -30.3071   26.3195 N   0  0  0  0  0  0  0  0  0  0  0  0
  1  2  2  0  0  0  0
  1  6  1  0  0  0  0
  2  3  1  0  0  0  0
  3  4  2  0  0  0  0
  4  5  1  0  0  0  0
  4 10  1  0  0  0  0
  5  6  2  0  0  0  0
  5  8  1  0  0  0  0
  6  7  1  0  0  0  0
  8  9  1  0  0  0  0
  9 10  2  0  0  0  0
M  END
>  <CHROM.1>
-3.76824957,-30.19454859,27.18379610,3.09253988,0.17566088,1.02422241

>  <Name>
ligand

>  <RI>
0

>  <Rbt.Current_Directory>
/home/itssahil/PROJECTS/Mol_Feturizer/New_Systems/rnas/4LW0

>  <Rbt.Executable>
rbdock ($Id: //depot/dev/client3/rdock/2013.1/src/exe/rbdock.cxx#4 $)

>  <Rbt.Library>
libRbt.so (2013.1, Build901 2013/11/27)

>  <Rbt.Parameter_File>
/export/apps/rDock/src/rDock_2013.1_src/data/scripts/dock_solv.prm

>  <Rbt.Receptor>
prm/blind_docking_100.prm

>  <SCORE>
-13.6178

>  <SCORE.INTER>
-13.6178

>  <SCORE.INTER.CONST>
1

>  <SCORE.INTER.POLAR>
0

>  <SCORE.INTER.ROT>
0

>  <SCORE.INTER.SOLV>
7.28285

>  <SCORE.INTER.VDW>
-15.1061

>  <SCORE.INTER.norm>
-1.36178

>  <SCORE.INTRA>
0

>  <SCORE.INTRA.DIHEDRAL>
0

>  <SCORE.INTRA.DIHEDRAL.0>
0

>  <SCORE.INTRA.POLAR>
0

>  <SCORE.INTRA.POLAR.0>
0

>  <SCORE.INTRA.REPUL>
0

>  <SCORE.INTRA.REPUL.0>
0

>  <SCORE.INTRA.SOLV>
0

>  <SCORE.INTRA.SOLV.lig_0>
-23.9151

>  <SCORE.INTRA.VDW>
0

>  <SCORE.INTRA.VDW.0>
0

>  <SCORE.INTRA.norm>
0

>  <SCORE.RESTR>
0

>  <SCORE.RESTR.CAVITY>
0

>  <SCORE.RESTR.norm>
0

>  <SCORE.SYSTEM>
0

>  <SCORE.SYSTEM.CONST>
0

>  <SCORE.SYSTEM.DIHEDRAL>
0

>  <SCORE.SYSTEM.SOLV>
0

>  <SCORE.SYSTEM.norm>
0

>  <SCORE.heavy>
10

>  <SCORE.norm>
-1.36178

>  <RMSD>
12.015

$$$$
ligand
 OpenBabel11021811503D
libRbt.so/2013.1/901 2013/11/27
 10 11  0  0  0  0  0  0  0  0999 V2000
   -5.6785  -30.7143   27.0455 N   0  0  0  0  0  0  0  0  0  0  0  0
   -5.1334  -31.2613   25.9570 C   0  0  0  0  0  0  0  0  0  0  0  0
   -3.8573  -31.2428   25.5526 N   0  0  0  0  0  0  0  0  0  0  0  0
   -3.0996  -30.5397   26.4158 C   0  0  0  0  0  0  0  0  0  0  0  0
   -3.5169  -29.9178   27.5772 C   0  0  0  0  0  0  0  0  0  0  0  0
   -4.8851  -30.0196   27.8982 C   0  0  0  0  0  0  0  0  0  0  0  0
   -5.4242  -29.4552   28.9908 N   0  0  0  0  0  0  0  0  0  0  0  0
   -2.4590  -29.2965   28.2153 N   0  0  0  0  0  0  0  0  0  0  0  0
   -1.4331  -29.5530   27.4475 C   0  0  0  0  0  0  0  0  0  0  0  0
   -1.7499  -30.2918   26.3386 N   0  0  0  0  0  0  0  0  0  0  0  0
  1  2  2  0  0  0  0
  1  6  1  0  0  0  0
  2  3  1  0  0  0  0
  3  4  2  0  0  0  0
  4  5  1  0  0  0  0
  4 10  1  0  0  0  0
  5  6  2  0  0  0  0
  5  8  1  0  0  0  0
  6  7  1  0  0  0  0
  8  9  1  0  0  0  0
  9 10  2  0  0  0  0
M  END
>  <CHROM.1>
-3.73215277,-30.22695982,27.15036617,3.12829930,0.18199024,1.01881648

>  <Name>
ligand

>  <RI>
0

>  <Rbt.Current_Directory>
/home/itssahil/PROJECTS/Mol_Feturizer/New_Systems/rnas/4LW0

>  <Rbt.Executable>
rbdock ($Id: //depot/dev/client3/rdock/2013.1/src/exe/rbdock.cxx#4 $)

>  <Rbt.Library>
libRbt.so (2013.1, Build901 2013/11/27)

>  <Rbt.Parameter_File>
/export/apps/rDock/src/rDock_2013.1_src/data/scripts/dock_solv.prm

>  <Rbt.Receptor>
prm/blind_docking_100.prm

>  <SCORE>
-13.5987

>  <SCORE.INTER>
-13.5987

>  <SCORE.INTER.CONST>
1

>  <SCORE.INTER.POLAR>
0

>  <SCORE.INTER.ROT>
0

>  <SCORE.INTER.SOLV>
7.49014

>  <SCORE.INTER.VDW>
-15.1625

>  <SCORE.INTER.norm>
-1.35987

>  <SCORE.INTRA>
0

>  <SCORE.INTRA.DIHEDRAL>
0

>  <SCORE.INTRA.DIHEDRAL.0>
0

>  <SCORE.INTRA.POLAR>
0

>  <SCORE.INTRA.POLAR.0>
0

>  <SCORE.INTRA.REPUL>
0

>  <SCORE.INTRA.REPUL.0>
0

>  <SCORE.INTRA.SOLV>
0

>  <SCORE.INTRA.SOLV.lig_0>
-23.9151

>  <SCORE.INTRA.VDW>
0

>  <SCORE.INTRA.VDW.0>
0

>  <SCORE.INTRA.norm>
0

>  <SCORE.RESTR>
0

>  <SCORE.RESTR.CAVITY>
0

>  <SCORE.RESTR.norm>
0

>  <SCORE.SYSTEM>
0

>  <SCORE.SYSTEM.CONST>
0

>  <SCORE.SYSTEM.DIHEDRAL>
0

>  <SCORE.SYSTEM.SOLV>
0

>  <SCORE.SYSTEM.norm>
0

>  <SCORE.heavy>
10

>  <SCORE.norm>
-1.35987

>  <RMSD>
12.016

$$$$
ligand
 OpenBabel11021811503D
libRbt.so/2013.1/901 2013/11/27
 10 11  0  0  0  0  0  0  0  0999 V2000
   -5.7330  -30.6298   27.1347 N   0  0  0  0  0  0  0  0  0  0  0  0
   -5.2276  -31.1891   26.0334 C   0  0  0  0  0  0  0  0  0  0  0  0
   -3.9613  -31.2019   25.5989 N   0  0  0  0  0  0  0  0  0  0  0  0
   -3.1661  -30.5187   26.4442 C   0  0  0  0  0  0  0  0  0  0  0  0
   -3.5402  -29.8879   27.6154 C   0  0  0  0  0  0  0  0  0  0  0  0
   -4.9026  -29.9559   27.9687 C   0  0  0  0  0  0  0  0  0  0  0  0
   -5.4015  -29.3795   29.0740 N   0  0  0  0  0  0  0  0  0  0  0  0
   -2.4524  -29.2936   28.2285 N   0  0  0  0  0  0  0  0  0  0  0  0
   -1.4517  -29.5749   27.4365 C   0  0  0  0  0  0  0  0  0  0  0  0
   -1.8129  -30.3044   26.3351 N   0  0  0  0  0  0  0  0  0  0  0  0
  1  2  2  0  0  0  0
  1  6  1  0  0  0  0
  2  3  1  0  0  0  0
  3  4  2  0  0  0  0
  4  5  1  0  0  0  0
  4 10  1  0  0  0  0
  5  6  2  0  0  0  0
  5  8  1  0  0  0  0
  6  7  1  0  0  0  0
  8  9  1  0  0  0  0
  9 10  2  0  0  0  0
M  END
>  <CHROM.1>
-3.77314897,-30.19114976,27.19362330,3.09458610,0.17314039,1.02549277

>  <Name>
ligand

>  <RI>
0

>  <Rbt.Current_Directory>
/home/itssahil/PROJECTS/Mol_Feturizer/New_Systems/rnas/4LW0

>  <Rbt.Executable>
rbdock ($Id: //depot/dev/client3/rdock/2013.1/src/exe/rbdock.cxx#4 $)

>  <Rbt.Library>
libRbt.so (2013.1, Build901 2013/11/27)

>  <Rbt.Parameter_File>
/export/apps/rDock/src/rDock_2013.1_src/data/scripts/dock_solv.prm

>  <Rbt.Receptor>
prm/blind_docking_60.prm

>  <SCORE>
-13.6529

>  <SCORE.INTER>
-13.6529

>  <SCORE.INTER.CONST>
1

>  <SCORE.INTER.POLAR>
0

>  <SCORE.INTER.ROT>
0

>  <SCORE.INTER.SOLV>
7.27384

>  <SCORE.INTER.VDW>
-15.1265

>  <SCORE.INTER.norm>
-1.36529

>  <SCORE.INTRA>
0

>  <SCORE.INTRA.DIHEDRAL>
0

>  <SCORE.INTRA.DIHEDRAL.0>
0

>  <SCORE.INTRA.POLAR>
0

>  <SCORE.INTRA.POLAR.0>
0

>  <SCORE.INTRA.REPUL>
0

>  <SCORE.INTRA.REPUL.0>
0

>  <SCORE.INTRA.SOLV>
0

>  <SCORE.INTRA.SOLV.lig_0>
-23.9151

>  <SCORE.INTRA.VDW>
0

>  <SCORE.INTRA.VDW.0>
0

>  <SCORE.INTRA.norm>
0

>  <SCORE.RESTR>
0

>  <SCORE.RESTR.CAVITY>
0

>  <SCORE.RESTR.norm>
0

>  <SCORE.SYSTEM>
0

>  <SCORE.SYSTEM.CONST>
0

>  <SCORE.SYSTEM.DIHEDRAL>
0

>  <SCORE.SYSTEM.SOLV>
0

>  <SCORE.SYSTEM.norm>
0

>  <SCORE.heavy>
10

>  <SCORE.norm>
-1.36529

>  <RMSD>
12.016

$$$$
ligand
 OpenBabel11021811503D
libRbt.so/2013.1/901 2013/11/27
 10 11  0  0  0  0  0  0  0  0999 V2000
   -5.7182  -30.7179   27.0684 N   0  0  0  0  0  0  0  0  0  0  0  0
   -5.1808  -31.2401   25.9641 C   0  0  0  0  0  0  0  0  0  0  0  0
   -3.9115  -31.1943   25.5408 N   0  0  0  0  0  0  0  0  0  0  0  0
   -3.1525  -30.4907   26.4025 C   0  0  0  0  0  0  0  0  0  0  0  0
   -3.5623  -29.8926   27.5789 C   0  0  0  0  0  0  0  0  0  0  0  0
   -4.9236  -30.0220   27.9190 C   0  0  0  0  0  0  0  0  0  0  0  0
   -5.4553  -29.4824   29.0277 N   0  0  0  0  0  0  0  0  0  0  0  0
   -2.5053  -29.2625   28.2100 N   0  0  0  0  0  0  0  0  0  0  0  0
   -1.4872  -29.4908   27.4231 C   0  0  0  0  0  0  0  0  0  0  0  0
   -1.8085  -30.2190   26.3085 N   0  0  0  0  0  0  0  0  0  0  0  0
  1  2  2  0  0  0  0
  1  6  1  0  0  0  0
  2  3  1  0  0  0  0
  3  4  2  0  0  0  0
  4  5  1  0  0  0  0
  4 10  1  0  0  0  0
  5  6  2  0  0  0  0
  5  8  1  0  0  0  0
  6  7  1  0  0  0  0
  8  9  1  0  0  0  0
  9 10  2  0  0  0  0
M  END
>  <CHROM.1>
-3.77890517,-30.19924075,27.15096983,3.12393308,0.20425484,1.03396543

>  <Name>
ligand

>  <RI>
0

>  <Rbt.Current_Directory>
/home/itssahil/PROJECTS/Mol_Feturizer/New_Systems/rnas/4LW0

>  <Rbt.Executable>
rbdock ($Id: //depot/dev/client3/rdock/2013.1/src/exe/rbdock.cxx#4 $)

>  <Rbt.Library>
libRbt.so (2013.1, Build901 2013/11/27)

>  <Rbt.Parameter_File>
/export/apps/rDock/src/rDock_2013.1_src/data/scripts/dock_solv.prm

>  <Rbt.Receptor>
prm/blind_docking_100.prm

>  <SCORE>
-13.5806

>  <SCORE.INTER>
-13.5806

>  <SCORE.INTER.CONST>
1

>  <SCORE.INTER.POLAR>
0

>  <SCORE.INTER.ROT>
0

>  <SCORE.INTER.SOLV>
7.41822

>  <SCORE.INTER.VDW>
-15.1265

>  <SCORE.INTER.norm>
-1.35806

>  <SCORE.INTRA>
0

>  <SCORE.INTRA.DIHEDRAL>
0

>  <SCORE.INTRA.DIHEDRAL.0>
0

>  <SCORE.INTRA.POLAR>
0

>  <SCORE.INTRA.POLAR.0>
0

>  <SCORE.INTRA.REPUL>
0

>  <SCORE.INTRA.REPUL.0>
0

>  <SCORE.INTRA.SOLV>
0

>  <SCORE.INTRA.SOLV.lig_0>
-23.9151

>  <SCORE.INTRA.VDW>
0

>  <SCORE.INTRA.VDW.0>
0

>  <SCORE.INTRA.norm>
0

>  <SCORE.RESTR>
0

>  <SCORE.RESTR.CAVITY>
0

>  <SCORE.RESTR.norm>
0

>  <SCORE.SYSTEM>
0

>  <SCORE.SYSTEM.CONST>
0

>  <SCORE.SYSTEM.DIHEDRAL>
0

>  <SCORE.SYSTEM.SOLV>
0

>  <SCORE.SYSTEM.norm>
0

>  <SCORE.heavy>
10

>  <SCORE.norm>
-1.35806

>  <RMSD>
12.018

$$$$
ligand
 OpenBabel11021811503D
libRbt.so/2013.1/901 2013/11/27
 10 11  0  0  0  0  0  0  0  0999 V2000
   -5.7110  -30.6789   27.0665 N   0  0  0  0  0  0  0  0  0  0  0  0
   -5.1681  -31.2383   25.9832 C   0  0  0  0  0  0  0  0  0  0  0  0
   -3.8908  -31.2346   25.5822 N   0  0  0  0  0  0  0  0  0  0  0  0
   -3.1288  -30.5330   26.4429 C   0  0  0  0  0  0  0  0  0  0  0  0
   -3.5433  -29.8996   27.5990 C   0  0  0  0  0  0  0  0  0  0  0  0
   -4.9133  -29.9862   27.9168 C   0  0  0  0  0  0  0  0  0  0  0  0
   -5.4500  -29.4095   29.0042 N   0  0  0  0  0  0  0  0  0  0  0  0
   -2.4813  -29.2841   28.2360 N   0  0  0  0  0  0  0  0  0  0  0  0
   -1.4558  -29.5555   27.4727 C   0  0  0  0  0  0  0  0  0  0  0  0
   -1.7766  -30.2986   26.3678 N   0  0  0  0  0  0  0  0  0  0  0  0
  1  2  2  0  0  0  0
  1  6  1  0  0  0  0
  2  3  1  0  0  0  0
  3  4  2  0  0  0  0
  4  5  1  0  0  0  0
  4 10  1  0  0  0  0
  5  6  2  0  0  0  0
  5  8  1  0  0  0  0
  6  7  1  0  0  0  0
  8  9  1  0  0  0  0
  9 10  2  0  0  0  0
M  END
>  <CHROM.1>
-3.76036225,-30.20948298,27.17358160,3.12559056,0.17244461,1.01270922

>  <Name>
ligand

>  <RI>
0

>  <Rbt.Current_Directory>
/home/itssahil/PROJECTS/Mol_Feturizer/New_Systems/rnas/4LW0

>  <Rbt.Executable>
rbdock ($Id: //depot/dev/client3/rdock/2013.1/src/exe/rbdock.cxx#4 $)

>  <Rbt.Library>
libRbt.so (2013.1, Build901 2013/11/27)

>  <Rbt.Parameter_File>
/export/apps/rDock/src/rDock_2013.1_src/data/scripts/dock_solv.prm

>  <Rbt.Receptor>
prm/blind_docking_100.prm

>  <SCORE>
-13.5798

>  <SCORE.INTER>
-13.5798

>  <SCORE.INTER.CONST>
1

>  <SCORE.INTER.POLAR>
0

>  <SCORE.INTER.ROT>
0

>  <SCORE.INTER.SOLV>
7.44815

>  <SCORE.INTER.VDW>
-15.1359

>  <SCORE.INTER.norm>
-1.35798

>  <SCORE.INTRA>
0

>  <SCORE.INTRA.DIHEDRAL>
0

>  <SCORE.INTRA.DIHEDRAL.0>
0

>  <SCORE.INTRA.POLAR>
0

>  <SCORE.INTRA.POLAR.0>
0

>  <SCORE.INTRA.REPUL>
0

>  <SCORE.INTRA.REPUL.0>
0

>  <SCORE.INTRA.SOLV>
0

>  <SCORE.INTRA.SOLV.lig_0>
-23.9151

>  <SCORE.INTRA.VDW>
0

>  <SCORE.INTRA.VDW.0>
0

>  <SCORE.INTRA.norm>
0

>  <SCORE.RESTR>
0

>  <SCORE.RESTR.CAVITY>
0

>  <SCORE.RESTR.norm>
0

>  <SCORE.SYSTEM>
0

>  <SCORE.SYSTEM.CONST>
0

>  <SCORE.SYSTEM.DIHEDRAL>
0

>  <SCORE.SYSTEM.SOLV>
0

>  <SCORE.SYSTEM.norm>
0

>  <SCORE.heavy>
10

>  <SCORE.norm>
-1.35798

>  <RMSD>
12.019

$$$$
ligand
 OpenBabel11021811503D
libRbt.so/2013.1/901 2013/11/27
 10 11  0  0  0  0  0  0  0  0999 V2000
   -5.7176  -30.7195   27.0735 N   0  0  0  0  0  0  0  0  0  0  0  0
   -5.1801  -31.2394   25.9681 C   0  0  0  0  0  0  0  0  0  0  0  0
   -3.9109  -31.1922   25.5448 N   0  0  0  0  0  0  0  0  0  0  0  0
   -3.1521  -30.4900   26.4078 C   0  0  0  0  0  0  0  0  0  0  0  0
   -3.5620  -29.8943   27.5854 C   0  0  0  0  0  0  0  0  0  0  0  0
   -4.9231  -30.0250   27.9254 C   0  0  0  0  0  0  0  0  0  0  0  0
   -5.4549  -29.4877   29.0351 N   0  0  0  0  0  0  0  0  0  0  0  0
   -2.5052  -29.2650   28.2175 N   0  0  0  0  0  0  0  0  0  0  0  0
   -1.4870  -29.4913   27.4301 C   0  0  0  0  0  0  0  0  0  0  0  0
   -1.8082  -30.2175   26.3142 N   0  0  0  0  0  0  0  0  0  0  0  0
  1  2  2  0  0  0  0
  1  6  1  0  0  0  0
  2  3  1  0  0  0  0
  3  4  2  0  0  0  0
  4  5  1  0  0  0  0
  4 10  1  0  0  0  0
  5  6  2  0  0  0  0
  5  8  1  0  0  0  0
  6  7  1  0  0  0  0
  8  9  1  0  0  0  0
  9 10  2  0  0  0  0
M  END
>  <CHROM.1>
-3.77848772,-30.20021806,27.15684778,3.12405065,0.20467960,1.03586222

>  <Name>
ligand

>  <RI>
0

>  <Rbt.Current_Directory>
/home/itssahil/PROJECTS/Mol_Feturizer/New_Systems/rnas/4LW0

>  <Rbt.Executable>
rbdock ($Id: //depot/dev/client3/rdock/2013.1/src/exe/rbdock.cxx#4 $)

>  <Rbt.Library>
libRbt.so (2013.1, Build901 2013/11/27)

>  <Rbt.Parameter_File>
/export/apps/rDock/src/rDock_2013.1_src/data/scripts/dock_solv.prm

>  <Rbt.Receptor>
prm/blind_docking_60.prm

>  <SCORE>
-13.5749

>  <SCORE.INTER>
-13.5749

>  <SCORE.INTER.CONST>
1

>  <SCORE.INTER.POLAR>
0

>  <SCORE.INTER.ROT>
0

>  <SCORE.INTER.SOLV>
7.41606

>  <SCORE.INTER.VDW>
-15.1219

>  <SCORE.INTER.norm>
-1.35749

>  <SCORE.INTRA>
0

>  <SCORE.INTRA.DIHEDRAL>
0

>  <SCORE.INTRA.DIHEDRAL.0>
0

>  <SCORE.INTRA.POLAR>
0

>  <SCORE.INTRA.POLAR.0>
0

>  <SCORE.INTRA.REPUL>
0

>  <SCORE.INTRA.REPUL.0>
0

>  <SCORE.INTRA.SOLV>
0

>  <SCORE.INTRA.SOLV.lig_0>
-23.9151

>  <SCORE.INTRA.VDW>
0

>  <SCORE.INTRA.VDW.0>
0

>  <SCORE.INTRA.norm>
0

>  <SCORE.RESTR>
0

>  <SCORE.RESTR.CAVITY>
0

>  <SCORE.RESTR.norm>
0

>  <SCORE.SYSTEM>
0

>  <SCORE.SYSTEM.CONST>
0

>  <SCORE.SYSTEM.DIHEDRAL>
0

>  <SCORE.SYSTEM.SOLV>
0

>  <SCORE.SYSTEM.norm>
0

>  <SCORE.heavy>
10

>  <SCORE.norm>
-1.35749

>  <RMSD>
12.019

$$$$
ligand
 OpenBabel11021811503D
libRbt.so/2013.1/901 2013/11/27
 10 11  0  0  0  0  0  0  0  0999 V2000
   -5.7082  -30.6748   27.0891 N   0  0  0  0  0  0  0  0  0  0  0  0
   -5.1868  -31.2162   25.9863 C   0  0  0  0  0  0  0  0  0  0  0  0
   -3.9171  -31.2084   25.5621 N   0  0  0  0  0  0  0  0  0  0  0  0
   -3.1375  -30.5239   26.4208 C   0  0  0  0  0  0  0  0  0  0  0  0
   -3.5291  -29.9100   27.5953 C   0  0  0  0  0  0  0  0  0  0  0  0
   -4.8933  -29.9991   27.9367 C   0  0  0  0  0  0  0  0  0  0  0  0
   -5.4084  -29.4405   29.0438 N   0  0  0  0  0  0  0  0  0  0  0  0
   -2.4540  -29.3084   28.2234 N   0  0  0  0  0  0  0  0  0  0  0  0
   -1.4434  -29.5686   27.4368 C   0  0  0  0  0  0  0  0  0  0  0  0
   -1.7863  -30.2913   26.3250 N   0  0  0  0  0  0  0  0  0  0  0  0
  1  2  2  0  0  0  0
  1  6  1  0  0  0  0
  2  3  1  0  0  0  0
  3  4  2  0  0  0  0
  4  5  1  0  0  0  0
  4 10  1  0  0  0  0
  5  6  2  0  0  0  0
  5  8  1  0  0  0  0
  6  7  1  0  0  0  0
  8  9  1  0  0  0  0
  9 10  2  0  0  0  0
M  END
>  <CHROM.1>
-3.75473058,-30.21186875,27.16857632,3.10835135,0.17988501,1.03336993

>  <Name>
ligand

>  <RI>
0

>  <Rbt.Current_Directory>
/home/itssahil/PROJECTS/Mol_Feturizer/New_Systems/rnas/4LW0

>  <Rbt.Executable>
rbdock ($Id: //depot/dev/client3/rdock/2013.1/src/exe/rbdock.cxx#4 $)

>  <Rbt.Library>
libRbt.so (2013.1, Build901 2013/11/27)

>  <Rbt.Parameter_File>
/export/apps/rDock/src/rDock_2013.1_src/data/scripts/dock_solv.prm

>  <Rbt.Receptor>
prm/blind_docking_60.prm

>  <SCORE>
-13.6255

>  <SCORE.INTER>
-13.6255

>  <SCORE.INTER.CONST>
1

>  <SCORE.INTER.POLAR>
0

>  <SCORE.INTER.ROT>
0

>  <SCORE.INTER.SOLV>
7.38061

>  <SCORE.INTER.VDW>
-15.1439

>  <SCORE.INTER.norm>
-1.36255

>  <SCORE.INTRA>
0

>  <SCORE.INTRA.DIHEDRAL>
0

>  <SCORE.INTRA.DIHEDRAL.0>
0

>  <SCORE.INTRA.POLAR>
0

>  <SCORE.INTRA.POLAR.0>
0

>  <SCORE.INTRA.REPUL>
0

>  <SCORE.INTRA.REPUL.0>
0

>  <SCORE.INTRA.SOLV>
0

>  <SCORE.INTRA.SOLV.lig_0>
-23.9151

>  <SCORE.INTRA.VDW>
0

>  <SCORE.INTRA.VDW.0>
0

>  <SCORE.INTRA.norm>
0

>  <SCORE.RESTR>
0

>  <SCORE.RESTR.CAVITY>
0

>  <SCORE.RESTR.norm>
0

>  <SCORE.SYSTEM>
0

>  <SCORE.SYSTEM.CONST>
0

>  <SCORE.SYSTEM.DIHEDRAL>
0

>  <SCORE.SYSTEM.SOLV>
0

>  <SCORE.SYSTEM.norm>
0

>  <SCORE.heavy>
10

>  <SCORE.norm>
-1.36255

>  <RMSD>
12.019

$$$$
ligand
 OpenBabel11021811503D
libRbt.so/2013.1/901 2013/11/27
 10 11  0  0  0  0  0  0  0  0999 V2000
   -5.7461  -30.6951   27.0477 N   0  0  0  0  0  0  0  0  0  0  0  0
   -5.2021  -31.2575   25.9666 C   0  0  0  0  0  0  0  0  0  0  0  0
   -3.9282  -31.2363   25.5554 N   0  0  0  0  0  0  0  0  0  0  0  0
   -3.1718  -30.5117   26.4018 C   0  0  0  0  0  0  0  0  0  0  0  0
   -3.5883  -29.8722   27.5539 C   0  0  0  0  0  0  0  0  0  0  0  0
   -4.9540  -29.9789   27.8837 C   0  0  0  0  0  0  0  0  0  0  0  0
   -5.4921  -29.3990   28.9686 N   0  0  0  0  0  0  0  0  0  0  0  0
   -2.5322  -29.2311   28.1752 N   0  0  0  0  0  0  0  0  0  0  0  0
   -1.5081  -29.4935   27.4069 C   0  0  0  0  0  0  0  0  0  0  0  0
   -1.8245  -30.2548   26.3132 N   0  0  0  0  0  0  0  0  0  0  0  0
  1  2  2  0  0  0  0
  1  6  1  0  0  0  0
  2  3  1  0  0  0  0
  3  4  2  0  0  0  0
  4  5  1  0  0  0  0
  4 10  1  0  0  0  0
  5  6  2  0  0  0  0
  5  8  1  0  0  0  0
  6  7  1  0  0  0  0
  8  9  1  0  0  0  0
  9 10  2  0  0  0  0
M  END
>  <CHROM.1>
-3.80317430,-30.19073724,27.13378842,3.12821763,0.19134793,1.00071513

>  <Name>
ligand

>  <RI>
0

>  <Rbt.Current_Directory>
/home/itssahil/PROJECTS/Mol_Feturizer/New_Systems/rnas/4LW0

>  <Rbt.Executable>
rbdock ($Id: //depot/dev/client3/rdock/2013.1/src/exe/rbdock.cxx#4 $)

>  <Rbt.Library>
libRbt.so (2013.1, Build901 2013/11/27)

>  <Rbt.Parameter_File>
/export/apps/rDock/src/rDock_2013.1_src/data/scripts/dock_solv.prm

>  <Rbt.Receptor>
prm/blind_docking_80.prm

>  <SCORE>
-13.636

>  <SCORE.INTER>
-13.6466

>  <SCORE.INTER.CONST>
1

>  <SCORE.INTER.POLAR>
0

>  <SCORE.INTER.ROT>
0

>  <SCORE.INTER.SOLV>
7.46746

>  <SCORE.INTER.VDW>
-15.1869

>  <SCORE.INTER.norm>
-1.36466

>  <SCORE.INTRA>
0

>  <SCORE.INTRA.DIHEDRAL>
0

>  <SCORE.INTRA.DIHEDRAL.0>
0

>  <SCORE.INTRA.POLAR>
0

>  <SCORE.INTRA.POLAR.0>
0

>  <SCORE.INTRA.REPUL>
0

>  <SCORE.INTRA.REPUL.0>
0

>  <SCORE.INTRA.SOLV>
0

>  <SCORE.INTRA.SOLV.lig_0>
-23.9151

>  <SCORE.INTRA.VDW>
0

>  <SCORE.INTRA.VDW.0>
0

>  <SCORE.INTRA.norm>
0

>  <SCORE.RESTR>
0.0106253

>  <SCORE.RESTR.CAVITY>
0.0106253

>  <SCORE.RESTR.norm>
0.00106253

>  <SCORE.SYSTEM>
0

>  <SCORE.SYSTEM.CONST>
0

>  <SCORE.SYSTEM.DIHEDRAL>
0

>  <SCORE.SYSTEM.SOLV>
0

>  <SCORE.SYSTEM.norm>
0

>  <SCORE.heavy>
10

>  <SCORE.norm>
-1.3636

>  <RMSD>
12.020

$$$$
ligand
 OpenBabel11021811503D
libRbt.so/2013.1/901 2013/11/27
 10 11  0  0  0  0  0  0  0  0999 V2000
   -5.7406  -30.6982   27.0048 N   0  0  0  0  0  0  0  0  0  0  0  0
   -5.1739  -31.2646   25.9376 C   0  0  0  0  0  0  0  0  0  0  0  0
   -3.8911  -31.2472   25.5547 N   0  0  0  0  0  0  0  0  0  0  0  0
   -3.1522  -30.5218   26.4159 C   0  0  0  0  0  0  0  0  0  0  0  0
   -3.5928  -29.8783   27.5567 C   0  0  0  0  0  0  0  0  0  0  0  0
   -4.9658  -29.9813   27.8563 C   0  0  0  0  0  0  0  0  0  0  0  0
   -5.5267  -29.3975   28.9275 N   0  0  0  0  0  0  0  0  0  0  0  0
   -2.5495  -29.2377   28.1997 N   0  0  0  0  0  0  0  0  0  0  0  0
   -1.5091  -29.5043   27.4550 C   0  0  0  0  0  0  0  0  0  0  0  0
   -1.8027  -30.2678   26.3565 N   0  0  0  0  0  0  0  0  0  0  0  0
  1  2  2  0  0  0  0
  1  6  1  0  0  0  0
  2  3  1  0  0  0  0
  3  4  2  0  0  0  0
  4  5  1  0  0  0  0
  4 10  1  0  0  0  0
  5  6  2  0  0  0  0
  5  8  1  0  0  0  0
  6  7  1  0  0  0  0
  8  9  1  0  0  0  0
  9 10  2  0  0  0  0
M  END
>  <CHROM.1>
-3.79899345,-30.19755736,27.13277772,-3.13709354,0.17757050,0.99475369

>  <Name>
ligand

>  <RI>
0

>  <Rbt.Current_Directory>
/home/itssahil/PROJECTS/Mol_Feturizer/New_Systems/rnas/4LW0

>  <Rbt.Executable>
rbdock ($Id: //depot/dev/client3/rdock/2013.1/src/exe/rbdock.cxx#4 $)

>  <Rbt.Library>
libRbt.so (2013.1, Build901 2013/11/27)

>  <Rbt.Parameter_File>
/export/apps/rDock/src/rDock_2013.1_src/data/scripts/dock_solv.prm

>  <Rbt.Receptor>
prm/blind_docking_80.prm

>  <SCORE>
-13.6482

>  <SCORE.INTER>
-13.6504

>  <SCORE.INTER.CONST>
1

>  <SCORE.INTER.POLAR>
0

>  <SCORE.INTER.ROT>
0

>  <SCORE.INTER.SOLV>
7.55913

>  <SCORE.INTER.VDW>
-15.22

>  <SCORE.INTER.norm>
-1.36504

>  <SCORE.INTRA>
0

>  <SCORE.INTRA.DIHEDRAL>
0

>  <SCORE.INTRA.DIHEDRAL.0>
0

>  <SCORE.INTRA.POLAR>
0

>  <SCORE.INTRA.POLAR.0>
0

>  <SCORE.INTRA.REPUL>
0

>  <SCORE.INTRA.REPUL.0>
0

>  <SCORE.INTRA.SOLV>
0

>  <SCORE.INTRA.SOLV.lig_0>
-23.9151

>  <SCORE.INTRA.VDW>
0

>  <SCORE.INTRA.VDW.0>
0

>  <SCORE.INTRA.norm>
0

>  <SCORE.RESTR>
0.00222145

>  <SCORE.RESTR.CAVITY>
0.00222145

>  <SCORE.RESTR.norm>
0.000222145

>  <SCORE.SYSTEM>
0

>  <SCORE.SYSTEM.CONST>
0

>  <SCORE.SYSTEM.DIHEDRAL>
0

>  <SCORE.SYSTEM.SOLV>
0

>  <SCORE.SYSTEM.norm>
0

>  <SCORE.heavy>
10

>  <SCORE.norm>
-1.36482

>  <RMSD>
12.022

$$$$
ligand
 OpenBabel11021811503D
libRbt.so/2013.1/901 2013/11/27
 10 11  0  0  0  0  0  0  0  0999 V2000
   -5.6912  -30.6189   27.1434 N   0  0  0  0  0  0  0  0  0  0  0  0
   -5.2466  -31.1891   26.0217 C   0  0  0  0  0  0  0  0  0  0  0  0
   -3.9994  -31.2381   25.5374 N   0  0  0  0  0  0  0  0  0  0  0  0
   -3.1514  -30.5818   26.3521 C   0  0  0  0  0  0  0  0  0  0  0  0
   -3.4601  -29.9441   27.5387 C   0  0  0  0  0  0  0  0  0  0  0  0
   -4.8088  -29.9728   27.9454 C   0  0  0  0  0  0  0  0  0  0  0  0
   -5.2463  -29.3856   29.0709 N   0  0  0  0  0  0  0  0  0  0  0  0
   -2.3316  -29.3846   28.1097 N   0  0  0  0  0  0  0  0  0  0  0  0
   -1.3718  -29.6927   27.2780 C   0  0  0  0  0  0  0  0  0  0  0  0
   -1.7978  -30.4075   26.1901 N   0  0  0  0  0  0  0  0  0  0  0  0
  1  2  2  0  0  0  0
  1  6  1  0  0  0  0
  2  3  1  0  0  0  0
  3  4  2  0  0  0  0
  4  5  1  0  0  0  0
  4 10  1  0  0  0  0
  5  6  2  0  0  0  0
  5  8  1  0  0  0  0
  6  7  1  0  0  0  0
  8  9  1  0  0  0  0
  9 10  2  0  0  0  0
M  END
>  <CHROM.1>
-3.71838094,-30.23886469,27.12575262,3.04464623,0.16785970,1.03681570

>  <Name>
ligand

>  <RI>
0

>  <Rbt.Current_Directory>
/home/itssahil/PROJECTS/Mol_Feturizer/New_Systems/rnas/4LW0

>  <Rbt.Executable>
rbdock ($Id: //depot/dev/client3/rdock/2013.1/src/exe/rbdock.cxx#4 $)

>  <Rbt.Library>
libRbt.so (2013.1, Build901 2013/11/27)

>  <Rbt.Parameter_File>
/export/apps/rDock/src/rDock_2013.1_src/data/scripts/dock_solv.prm

>  <Rbt.Receptor>
prm/blind_docking_60.prm

>  <SCORE>
-13.5977

>  <SCORE.INTER>
-13.5977

>  <SCORE.INTER.CONST>
1

>  <SCORE.INTER.POLAR>
0

>  <SCORE.INTER.ROT>
0

>  <SCORE.INTER.SOLV>
7.23474

>  <SCORE.INTER.VDW>
-15.0767

>  <SCORE.INTER.norm>
-1.35977

>  <SCORE.INTRA>
0

>  <SCORE.INTRA.DIHEDRAL>
0

>  <SCORE.INTRA.DIHEDRAL.0>
0

>  <SCORE.INTRA.POLAR>
0

>  <SCORE.INTRA.POLAR.0>
0

>  <SCORE.INTRA.REPUL>
0

>  <SCORE.INTRA.REPUL.0>
0

>  <SCORE.INTRA.SOLV>
0

>  <SCORE.INTRA.SOLV.lig_0>
-23.9151

>  <SCORE.INTRA.VDW>
0

>  <SCORE.INTRA.VDW.0>
0

>  <SCORE.INTRA.norm>
0

>  <SCORE.RESTR>
0

>  <SCORE.RESTR.CAVITY>
0

>  <SCORE.RESTR.norm>
0

>  <SCORE.SYSTEM>
0

>  <SCORE.SYSTEM.CONST>
0

>  <SCORE.SYSTEM.DIHEDRAL>
0

>  <SCORE.SYSTEM.SOLV>
0

>  <SCORE.SYSTEM.norm>
0

>  <SCORE.heavy>
10

>  <SCORE.norm>
-1.35977

>  <RMSD>
12.023

$$$$
ligand
 OpenBabel11021811503D
libRbt.so/2013.1/901 2013/11/27
 10 11  0  0  0  0  0  0  0  0999 V2000
   -5.7251  -30.6921   27.0191 N   0  0  0  0  0  0  0  0  0  0  0  0
   -5.1744  -31.2575   25.9430 C   0  0  0  0  0  0  0  0  0  0  0  0
   -3.8953  -31.2505   25.5477 N   0  0  0  0  0  0  0  0  0  0  0  0
   -3.1409  -30.5378   26.4059 C   0  0  0  0  0  0  0  0  0  0  0  0
   -3.5639  -29.8969   27.5548 C   0  0  0  0  0  0  0  0  0  0  0  0
   -4.9349  -29.9881   27.8673 C   0  0  0  0  0  0  0  0  0  0  0  0
   -5.4795  -29.4052   28.9474 N   0  0  0  0  0  0  0  0  0  0  0  0
   -2.5080  -29.2706   28.1914 N   0  0  0  0  0  0  0  0  0  0  0  0
   -1.4777  -29.5429   27.4350 C   0  0  0  0  0  0  0  0  0  0  0  0
   -1.7896  -30.2968   26.3349 N   0  0  0  0  0  0  0  0  0  0  0  0
  1  2  2  0  0  0  0
  1  6  1  0  0  0  0
  2  3  1  0  0  0  0
  3  4  2  0  0  0  0
  4  5  1  0  0  0  0
  4 10  1  0  0  0  0
  5  6  2  0  0  0  0
  5  8  1  0  0  0  0
  6  7  1  0  0  0  0
  8  9  1  0  0  0  0
  9 10  2  0  0  0  0
M  END
>  <CHROM.1>
-3.77740461,-30.21147607,27.13106516,3.13228755,0.17448135,1.00322281

>  <Name>
ligand

>  <RI>
0

>  <Rbt.Current_Directory>
/home/itssahil/PROJECTS/Mol_Feturizer/New_Systems/rnas/4LW0

>  <Rbt.Executable>
rbdock ($Id: //depot/dev/client3/rdock/2013.1/src/exe/rbdock.cxx#4 $)

>  <Rbt.Library>
libRbt.so (2013.1, Build901 2013/11/27)

>  <Rbt.Parameter_File>
/export/apps/rDock/src/rDock_2013.1_src/data/scripts/dock_solv.prm

>  <Rbt.Receptor>
prm/blind_docking_60.prm

>  <SCORE>
-13.65

>  <SCORE.INTER>
-13.65

>  <SCORE.INTER.CONST>
1

>  <SCORE.INTER.POLAR>
0

>  <SCORE.INTER.ROT>
0

>  <SCORE.INTER.SOLV>
7.5367

>  <SCORE.INTER.VDW>
-15.2122

>  <SCORE.INTER.norm>
-1.365

>  <SCORE.INTRA>
0

>  <SCORE.INTRA.DIHEDRAL>
0

>  <SCORE.INTRA.DIHEDRAL.0>
0

>  <SCORE.INTRA.POLAR>
0

>  <SCORE.INTRA.POLAR.0>
0

>  <SCORE.INTRA.REPUL>
0

>  <SCORE.INTRA.REPUL.0>
0

>  <SCORE.INTRA.SOLV>
0

>  <SCORE.INTRA.SOLV.lig_0>
-23.9151

>  <SCORE.INTRA.VDW>
0

>  <SCORE.INTRA.VDW.0>
0

>  <SCORE.INTRA.norm>
0

>  <SCORE.RESTR>
0

>  <SCORE.RESTR.CAVITY>
0

>  <SCORE.RESTR.norm>
0

>  <SCORE.SYSTEM>
0

>  <SCORE.SYSTEM.CONST>
0

>  <SCORE.SYSTEM.DIHEDRAL>
0

>  <SCORE.SYSTEM.SOLV>
0

>  <SCORE.SYSTEM.norm>
0

>  <SCORE.heavy>
10

>  <SCORE.norm>
-1.365

>  <RMSD>
12.023

$$$$
ligand
 OpenBabel11021811503D
libRbt.so/2013.1/901 2013/11/27
 10 11  0  0  0  0  0  0  0  0999 V2000
   -5.7356  -30.7020   27.0360 N   0  0  0  0  0  0  0  0  0  0  0  0
   -5.1790  -31.2575   25.9577 C   0  0  0  0  0  0  0  0  0  0  0  0
   -3.9001  -31.2352   25.5624 N   0  0  0  0  0  0  0  0  0  0  0  0
   -3.1533  -30.5175   26.4231 C   0  0  0  0  0  0  0  0  0  0  0  0
   -3.5832  -29.8855   27.5744 C   0  0  0  0  0  0  0  0  0  0  0  0
   -4.9530  -29.9927   27.8866 C   0  0  0  0  0  0  0  0  0  0  0  0
   -5.5038  -29.4197   28.9689 N   0  0  0  0  0  0  0  0  0  0  0  0
   -2.5341  -29.2502   28.2132 N   0  0  0  0  0  0  0  0  0  0  0  0
   -1.5009  -29.5085   27.4558 C   0  0  0  0  0  0  0  0  0  0  0  0
   -1.8047  -30.2617   26.3529 N   0  0  0  0  0  0  0  0  0  0  0  0
  1  2  2  0  0  0  0
  1  6  1  0  0  0  0
  2  3  1  0  0  0  0
  3  4  2  0  0  0  0
  4  5  1  0  0  0  0
  4 10  1  0  0  0  0
  5  6  2  0  0  0  0
  5  8  1  0  0  0  0
  6  7  1  0  0  0  0
  8  9  1  0  0  0  0
  9 10  2  0  0  0  0
M  END
>  <CHROM.1>
-3.79329940,-30.20082264,27.14951842,3.13810979,0.18365845,1.00585896

>  <Name>
ligand

>  <RI>
0

>  <Rbt.Current_Directory>
/home/itssahil/PROJECTS/Mol_Feturizer/New_Systems/rnas/4LW0

>  <Rbt.Executable>
rbdock ($Id: //depot/dev/client3/rdock/2013.1/src/exe/rbdock.cxx#4 $)

>  <Rbt.Library>
libRbt.so (2013.1, Build901 2013/11/27)

>  <Rbt.Parameter_File>
/export/apps/rDock/src/rDock_2013.1_src/data/scripts/dock_solv.prm

>  <Rbt.Receptor>
prm/blind_docking_60.prm

>  <SCORE>
-13.5962

>  <SCORE.INTER>
-13.5962

>  <SCORE.INTER.CONST>
1

>  <SCORE.INTER.POLAR>
0

>  <SCORE.INTER.ROT>
0

>  <SCORE.INTER.SOLV>
7.49581

>  <SCORE.INTER.VDW>
-15.1627

>  <SCORE.INTER.norm>
-1.35962

>  <SCORE.INTRA>
0

>  <SCORE.INTRA.DIHEDRAL>
0

>  <SCORE.INTRA.DIHEDRAL.0>
0

>  <SCORE.INTRA.POLAR>
0

>  <SCORE.INTRA.POLAR.0>
0

>  <SCORE.INTRA.REPUL>
0

>  <SCORE.INTRA.REPUL.0>
0

>  <SCORE.INTRA.SOLV>
0

>  <SCORE.INTRA.SOLV.lig_0>
-23.9151

>  <SCORE.INTRA.VDW>
0

>  <SCORE.INTRA.VDW.0>
0

>  <SCORE.INTRA.norm>
0

>  <SCORE.RESTR>
0

>  <SCORE.RESTR.CAVITY>
0

>  <SCORE.RESTR.norm>
0

>  <SCORE.SYSTEM>
0

>  <SCORE.SYSTEM.CONST>
0

>  <SCORE.SYSTEM.DIHEDRAL>
0

>  <SCORE.SYSTEM.SOLV>
0

>  <SCORE.SYSTEM.norm>
0

>  <SCORE.heavy>
10

>  <SCORE.norm>
-1.35962

>  <RMSD>
12.024

$$$$
ligand
 OpenBabel11021811503D
libRbt.so/2013.1/901 2013/11/27
 10 11  0  0  0  0  0  0  0  0999 V2000
   -5.7278  -30.7073   27.0388 N   0  0  0  0  0  0  0  0  0  0  0  0
   -5.1795  -31.2540   25.9518 C   0  0  0  0  0  0  0  0  0  0  0  0
   -3.9038  -31.2281   25.5465 N   0  0  0  0  0  0  0  0  0  0  0  0
   -3.1504  -30.5170   26.4071 C   0  0  0  0  0  0  0  0  0  0  0  0
   -3.5714  -29.8944   27.5667 C   0  0  0  0  0  0  0  0  0  0  0  0
   -4.9387  -30.0045   27.8888 C   0  0  0  0  0  0  0  0  0  0  0  0
   -5.4810  -29.4403   28.9800 N   0  0  0  0  0  0  0  0  0  0  0  0
   -2.5174  -29.2638   28.2023 N   0  0  0  0  0  0  0  0  0  0  0  0
   -1.4902  -29.5158   27.4347 C   0  0  0  0  0  0  0  0  0  0  0  0
   -1.8025  -30.2603   26.3283 N   0  0  0  0  0  0  0  0  0  0  0  0
  1  2  2  0  0  0  0
  1  6  1  0  0  0  0
  2  3  1  0  0  0  0
  3  4  2  0  0  0  0
  4  5  1  0  0  0  0
  4 10  1  0  0  0  0
  5  6  2  0  0  0  0
  5  8  1  0  0  0  0
  6  7  1  0  0  0  0
  8  9  1  0  0  0  0
  9 10  2  0  0  0  0
M  END
>  <CHROM.1>
-3.78472632,-30.20634398,27.14098068,3.13146438,0.18809538,1.01506330

>  <Name>
ligand

>  <RI>
0

>  <Rbt.Current_Directory>
/home/itssahil/PROJECTS/Mol_Feturizer/New_Systems/rnas/4LW0

>  <Rbt.Executable>
rbdock ($Id: //depot/dev/client3/rdock/2013.1/src/exe/rbdock.cxx#4 $)

>  <Rbt.Library>
libRbt.so (2013.1, Build901 2013/11/27)

>  <Rbt.Parameter_File>
/export/apps/rDock/src/rDock_2013.1_src/data/scripts/dock_solv.prm

>  <Rbt.Receptor>
prm/blind_docking_80.prm

>  <SCORE>
-13.6153

>  <SCORE.INTER>
-13.6153

>  <SCORE.INTER.CONST>
1

>  <SCORE.INTER.POLAR>
0

>  <SCORE.INTER.ROT>
0

>  <SCORE.INTER.SOLV>
7.47981

>  <SCORE.INTER.VDW>
-15.1701

>  <SCORE.INTER.norm>
-1.36153

>  <SCORE.INTRA>
0

>  <SCORE.INTRA.DIHEDRAL>
0

>  <SCORE.INTRA.DIHEDRAL.0>
0

>  <SCORE.INTRA.POLAR>
0

>  <SCORE.INTRA.POLAR.0>
0

>  <SCORE.INTRA.REPUL>
0

>  <SCORE.INTRA.REPUL.0>
0

>  <SCORE.INTRA.SOLV>
0

>  <SCORE.INTRA.SOLV.lig_0>
-23.9151

>  <SCORE.INTRA.VDW>
0

>  <SCORE.INTRA.VDW.0>
0

>  <SCORE.INTRA.norm>
0

>  <SCORE.RESTR>
0

>  <SCORE.RESTR.CAVITY>
0

>  <SCORE.RESTR.norm>
0

>  <SCORE.SYSTEM>
0

>  <SCORE.SYSTEM.CONST>
0

>  <SCORE.SYSTEM.DIHEDRAL>
0

>  <SCORE.SYSTEM.SOLV>
0

>  <SCORE.SYSTEM.norm>
0

>  <SCORE.heavy>
10

>  <SCORE.norm>
-1.36153

>  <RMSD>
12.024

$$$$
ligand
 OpenBabel11021811503D
libRbt.so/2013.1/901 2013/11/27
 10 11  0  0  0  0  0  0  0  0999 V2000
   -5.7410  -30.6946   27.0267 N   0  0  0  0  0  0  0  0  0  0  0  0
   -5.1799  -31.2549   25.9533 C   0  0  0  0  0  0  0  0  0  0  0  0
   -3.8988  -31.2371   25.5649 N   0  0  0  0  0  0  0  0  0  0  0  0
   -3.1549  -30.5185   26.4275 C   0  0  0  0  0  0  0  0  0  0  0  0
   -3.5895  -29.8818   27.5744 C   0  0  0  0  0  0  0  0  0  0  0  0
   -4.9613  -29.9846   27.8794 C   0  0  0  0  0  0  0  0  0  0  0  0
   -5.5165  -29.4068   28.9568 N   0  0  0  0  0  0  0  0  0  0  0  0
   -2.5423  -29.2471   28.2170 N   0  0  0  0  0  0  0  0  0  0  0  0
   -1.5056  -29.5105   27.4661 C   0  0  0  0  0  0  0  0  0  0  0  0
   -1.8053  -30.2664   26.3639 N   0  0  0  0  0  0  0  0  0  0  0  0
  1  2  2  0  0  0  0
  1  6  1  0  0  0  0
  2  3  1  0  0  0  0
  3  4  2  0  0  0  0
  4  5  1  0  0  0  0
  4 10  1  0  0  0  0
  5  6  2  0  0  0  0
  5  8  1  0  0  0  0
  6  7  1  0  0  0  0
  8  9  1  0  0  0  0
  9 10  2  0  0  0  0
M  END
>  <CHROM.1>
-3.79802965,-30.19794008,27.14937545,3.14145086,0.17857633,1.00210548

>  <Name>
ligand

>  <RI>
0

>  <Rbt.Current_Directory>
/home/itssahil/PROJECTS/Mol_Feturizer/New_Systems/rnas/4LW0

>  <Rbt.Executable>
rbdock ($Id: //depot/dev/client3/rdock/2013.1/src/exe/rbdock.cxx#4 $)

>  <Rbt.Library>
libRbt.so (2013.1, Build901 2013/11/27)

>  <Rbt.Parameter_File>
/export/apps/rDock/src/rDock_2013.1_src/data/scripts/dock_solv.prm

>  <Rbt.Receptor>
prm/blind_docking_80.prm

>  <SCORE>
-13.6263

>  <SCORE.INTER>
-13.6263

>  <SCORE.INTER.CONST>
1

>  <SCORE.INTER.POLAR>
0

>  <SCORE.INTER.ROT>
0

>  <SCORE.INTER.SOLV>
7.51396

>  <SCORE.INTER.VDW>
-15.1889

>  <SCORE.INTER.norm>
-1.36263

>  <SCORE.INTRA>
0

>  <SCORE.INTRA.DIHEDRAL>
0

>  <SCORE.INTRA.DIHEDRAL.0>
0

>  <SCORE.INTRA.POLAR>
0

>  <SCORE.INTRA.POLAR.0>
0

>  <SCORE.INTRA.REPUL>
0

>  <SCORE.INTRA.REPUL.0>
0

>  <SCORE.INTRA.SOLV>
0

>  <SCORE.INTRA.SOLV.lig_0>
-23.9151

>  <SCORE.INTRA.VDW>
0

>  <SCORE.INTRA.VDW.0>
0

>  <SCORE.INTRA.norm>
0

>  <SCORE.RESTR>
0

>  <SCORE.RESTR.CAVITY>
0

>  <SCORE.RESTR.norm>
0

>  <SCORE.SYSTEM>
0

>  <SCORE.SYSTEM.CONST>
0

>  <SCORE.SYSTEM.DIHEDRAL>
0

>  <SCORE.SYSTEM.SOLV>
0

>  <SCORE.SYSTEM.norm>
0

>  <SCORE.heavy>
10

>  <SCORE.norm>
-1.36263

>  <RMSD>
12.024

$$$$
ligand
 OpenBabel11021811503D
libRbt.so/2013.1/901 2013/11/27
 10 11  0  0  0  0  0  0  0  0999 V2000
   -5.7357  -30.6940   27.0344 N   0  0  0  0  0  0  0  0  0  0  0  0
   -5.1813  -31.2522   25.9563 C   0  0  0  0  0  0  0  0  0  0  0  0
   -3.9020  -31.2363   25.5619 N   0  0  0  0  0  0  0  0  0  0  0  0
   -3.1521  -30.5227   26.4232 C   0  0  0  0  0  0  0  0  0  0  0  0
   -3.5794  -29.8887   27.5744 C   0  0  0  0  0  0  0  0  0  0  0  0
   -4.9500  -29.9889   27.8857 C   0  0  0  0  0  0  0  0  0  0  0  0
   -5.4985  -29.4133   28.9677 N   0  0  0  0  0  0  0  0  0  0  0  0
   -2.5275  -29.2589   28.2140 N   0  0  0  0  0  0  0  0  0  0  0  0
   -1.4952  -29.5224   27.4572 C   0  0  0  0  0  0  0  0  0  0  0  0
   -1.8022  -30.2738   26.3540 N   0  0  0  0  0  0  0  0  0  0  0  0
  1  2  2  0  0  0  0
  1  6  1  0  0  0  0
  2  3  1  0  0  0  0
  3  4  2  0  0  0  0
  4  5  1  0  0  0  0
  4 10  1  0  0  0  0
  5  6  2  0  0  0  0
  5  8  1  0  0  0  0
  6  7  1  0  0  0  0
  8  9  1  0  0  0  0
  9 10  2  0  0  0  0
M  END
>  <CHROM.1>
-3.79088586,-30.20283418,27.14928044,3.13586908,0.17896731,1.00648291

>  <Name>
ligand

>  <RI>
0

>  <Rbt.Current_Directory>
/home/itssahil/PROJECTS/Mol_Feturizer/New_Systems/rnas/4LW0

>  <Rbt.Executable>
rbdock ($Id: //depot/dev/client3/rdock/2013.1/src/exe/rbdock.cxx#4 $)

>  <Rbt.Library>
libRbt.so (2013.1, Build901 2013/11/27)

>  <Rbt.Parameter_File>
/export/apps/rDock/src/rDock_2013.1_src/data/scripts/dock_solv.prm

>  <Rbt.Receptor>
prm/blind_docking_100.prm

>  <SCORE>
-13.6265

>  <SCORE.INTER>
-13.6265

>  <SCORE.INTER.CONST>
1

>  <SCORE.INTER.POLAR>
0

>  <SCORE.INTER.ROT>
0

>  <SCORE.INTER.SOLV>
7.49955

>  <SCORE.INTER.VDW>
-15.1842

>  <SCORE.INTER.norm>
-1.36265

>  <SCORE.INTRA>
0

>  <SCORE.INTRA.DIHEDRAL>
0

>  <SCORE.INTRA.DIHEDRAL.0>
0

>  <SCORE.INTRA.POLAR>
0

>  <SCORE.INTRA.POLAR.0>
0

>  <SCORE.INTRA.REPUL>
0

>  <SCORE.INTRA.REPUL.0>
0

>  <SCORE.INTRA.SOLV>
0

>  <SCORE.INTRA.SOLV.lig_0>
-23.9151

>  <SCORE.INTRA.VDW>
0

>  <SCORE.INTRA.VDW.0>
0

>  <SCORE.INTRA.norm>
0

>  <SCORE.RESTR>
0

>  <SCORE.RESTR.CAVITY>
0

>  <SCORE.RESTR.norm>
0

>  <SCORE.SYSTEM>
0

>  <SCORE.SYSTEM.CONST>
0

>  <SCORE.SYSTEM.DIHEDRAL>
0

>  <SCORE.SYSTEM.SOLV>
0

>  <SCORE.SYSTEM.norm>
0

>  <SCORE.heavy>
10

>  <SCORE.norm>
-1.36265

>  <RMSD>
12.025

$$$$
ligand
 OpenBabel11021811503D
libRbt.so/2013.1/901 2013/11/27
 10 11  0  0  0  0  0  0  0  0999 V2000
   -5.7354  -30.6832   27.0475 N   0  0  0  0  0  0  0  0  0  0  0  0
   -5.1897  -31.2458   25.9674 C   0  0  0  0  0  0  0  0  0  0  0  0
   -3.9122  -31.2385   25.5668 N   0  0  0  0  0  0  0  0  0  0  0  0
   -3.1536  -30.5291   26.4241 C   0  0  0  0  0  0  0  0  0  0  0  0
   -3.5714  -29.8915   27.5767 C   0  0  0  0  0  0  0  0  0  0  0  0
   -4.9411  -29.9826   27.8946 C   0  0  0  0  0  0  0  0  0  0  0  0
   -5.4808  -29.4026   28.9788 N   0  0  0  0  0  0  0  0  0  0  0  0
   -2.5124  -29.2680   28.2109 N   0  0  0  0  0  0  0  0  0  0  0  0
   -1.4854  -29.5388   27.4494 C   0  0  0  0  0  0  0  0  0  0  0  0
   -1.8024  -30.2890   26.3482 N   0  0  0  0  0  0  0  0  0  0  0  0
  1  2  2  0  0  0  0
  1  6  1  0  0  0  0
  2  3  1  0  0  0  0
  3  4  2  0  0  0  0
  4  5  1  0  0  0  0
  4 10  1  0  0  0  0
  5  6  2  0  0  0  0
  5  8  1  0  0  0  0
  6  7  1  0  0  0  0
  8  9  1  0  0  0  0
  9 10  2  0  0  0  0
M  END
>  <CHROM.1>
-3.78688597,-30.20456391,27.15288183,3.12829154,0.17602190,1.00704638

>  <Name>
ligand

>  <RI>
0

>  <Rbt.Current_Directory>
/home/itssahil/PROJECTS/Mol_Feturizer/New_Systems/rnas/4LW0

>  <Rbt.Executable>
rbdock ($Id: //depot/dev/client3/rdock/2013.1/src/exe/rbdock.cxx#4 $)

>  <Rbt.Library>
libRbt.so (2013.1, Build901 2013/11/27)

>  <Rbt.Parameter_File>
/export/apps/rDock/src/rDock_2013.1_src/data/scripts/dock_solv.prm

>  <Rbt.Receptor>
prm/blind_docking_100.prm

>  <SCORE>
-13.6003

>  <SCORE.INTER>
-13.6003

>  <SCORE.INTER.CONST>
1

>  <SCORE.INTER.POLAR>
0

>  <SCORE.INTER.ROT>
0

>  <SCORE.INTER.SOLV>
7.4778

>  <SCORE.INTER.VDW>
-15.1595

>  <SCORE.INTER.norm>
-1.36003

>  <SCORE.INTRA>
0

>  <SCORE.INTRA.DIHEDRAL>
0

>  <SCORE.INTRA.DIHEDRAL.0>
0

>  <SCORE.INTRA.POLAR>
0

>  <SCORE.INTRA.POLAR.0>
0

>  <SCORE.INTRA.REPUL>
0

>  <SCORE.INTRA.REPUL.0>
0

>  <SCORE.INTRA.SOLV>
0

>  <SCORE.INTRA.SOLV.lig_0>
-23.9151

>  <SCORE.INTRA.VDW>
0

>  <SCORE.INTRA.VDW.0>
0

>  <SCORE.INTRA.norm>
0

>  <SCORE.RESTR>
0

>  <SCORE.RESTR.CAVITY>
0

>  <SCORE.RESTR.norm>
0

>  <SCORE.SYSTEM>
0

>  <SCORE.SYSTEM.CONST>
0

>  <SCORE.SYSTEM.DIHEDRAL>
0

>  <SCORE.SYSTEM.SOLV>
0

>  <SCORE.SYSTEM.norm>
0

>  <SCORE.heavy>
10

>  <SCORE.norm>
-1.36003

>  <RMSD>
12.025

$$$$
ligand
 OpenBabel11021811503D
libRbt.so/2013.1/901 2013/11/27
 10 11  0  0  0  0  0  0  0  0999 V2000
   -5.7375  -30.6961   27.0422 N   0  0  0  0  0  0  0  0  0  0  0  0
   -5.1858  -31.2526   25.9620 C   0  0  0  0  0  0  0  0  0  0  0  0
   -3.9079  -31.2341   25.5630 N   0  0  0  0  0  0  0  0  0  0  0  0
   -3.1563  -30.5195   26.4222 C   0  0  0  0  0  0  0  0  0  0  0  0
   -3.5809  -29.8870   27.5751 C   0  0  0  0  0  0  0  0  0  0  0  0
   -4.9501  -29.9900   27.8912 C   0  0  0  0  0  0  0  0  0  0  0  0
   -5.4960  -29.4160   28.9755 N   0  0  0  0  0  0  0  0  0  0  0  0
   -2.5279  -29.2555   28.2114 N   0  0  0  0  0  0  0  0  0  0  0  0
   -1.4978  -29.5167   27.4508 C   0  0  0  0  0  0  0  0  0  0  0  0
   -1.8071  -30.2680   26.3483 N   0  0  0  0  0  0  0  0  0  0  0  0
  1  2  2  0  0  0  0
  1  6  1  0  0  0  0
  2  3  1  0  0  0  0
  3  4  2  0  0  0  0
  4  5  1  0  0  0  0
  4 10  1  0  0  0  0
  5  6  2  0  0  0  0
  5  8  1  0  0  0  0
  6  7  1  0  0  0  0
  8  9  1  0  0  0  0
  9 10  2  0  0  0  0
M  END
>  <CHROM.1>
-3.79320983,-30.20128744,27.15060914,3.13389526,0.18245313,1.00737011

>  <Name>
ligand

>  <RI>
0

>  <Rbt.Current_Directory>
/home/itssahil/PROJECTS/Mol_Feturizer/New_Systems/rnas/4LW0

>  <Rbt.Executable>
rbdock ($Id: //depot/dev/client3/rdock/2013.1/src/exe/rbdock.cxx#4 $)

>  <Rbt.Library>
libRbt.so (2013.1, Build901 2013/11/27)

>  <Rbt.Parameter_File>
/export/apps/rDock/src/rDock_2013.1_src/data/scripts/dock_solv.prm

>  <Rbt.Receptor>
prm/blind_docking_60.prm

>  <SCORE>
-13.6266

>  <SCORE.INTER>
-13.6274

>  <SCORE.INTER.CONST>
1

>  <SCORE.INTER.POLAR>
0

>  <SCORE.INTER.ROT>
0

>  <SCORE.INTER.SOLV>
7.48269

>  <SCORE.INTER.VDW>
-15.1792

>  <SCORE.INTER.norm>
-1.36274

>  <SCORE.INTRA>
0

>  <SCORE.INTRA.DIHEDRAL>
0

>  <SCORE.INTRA.DIHEDRAL.0>
0

>  <SCORE.INTRA.POLAR>
0

>  <SCORE.INTRA.POLAR.0>
0

>  <SCORE.INTRA.REPUL>
0

>  <SCORE.INTRA.REPUL.0>
0

>  <SCORE.INTRA.SOLV>
0

>  <SCORE.INTRA.SOLV.lig_0>
-23.9151

>  <SCORE.INTRA.VDW>
0

>  <SCORE.INTRA.VDW.0>
0

>  <SCORE.INTRA.norm>
0

>  <SCORE.RESTR>
0.000840328

>  <SCORE.RESTR.CAVITY>
0.000840328

>  <SCORE.RESTR.norm>
8.40328e-05

>  <SCORE.SYSTEM>
0

>  <SCORE.SYSTEM.CONST>
0

>  <SCORE.SYSTEM.DIHEDRAL>
0

>  <SCORE.SYSTEM.SOLV>
0

>  <SCORE.SYSTEM.norm>
0

>  <SCORE.heavy>
10

>  <SCORE.norm>
-1.36266

>  <RMSD>
12.025

$$$$
ligand
 OpenBabel11021811503D
libRbt.so/2013.1/901 2013/11/27
 10 11  0  0  0  0  0  0  0  0999 V2000
   -5.7370  -30.7029   27.0339 N   0  0  0  0  0  0  0  0  0  0  0  0
   -5.1769  -31.2625   25.9595 C   0  0  0  0  0  0  0  0  0  0  0  0
   -3.8969  -31.2411   25.5678 N   0  0  0  0  0  0  0  0  0  0  0  0
   -3.1530  -30.5196   26.4278 C   0  0  0  0  0  0  0  0  0  0  0  0
   -3.5865  -29.8832   27.5753 C   0  0  0  0  0  0  0  0  0  0  0  0
   -4.9572  -29.9898   27.8840 C   0  0  0  0  0  0  0  0  0  0  0  0
   -5.5114  -29.4128   28.9623 N   0  0  0  0  0  0  0  0  0  0  0  0
   -2.5395  -29.2448   28.2147 N   0  0  0  0  0  0  0  0  0  0  0  0
   -1.5041  -29.5057   27.4613 C   0  0  0  0  0  0  0  0  0  0  0  0
   -1.8043  -30.2634   26.3606 N   0  0  0  0  0  0  0  0  0  0  0  0
  1  2  2  0  0  0  0
  1  6  1  0  0  0  0
  2  3  1  0  0  0  0
  3  4  2  0  0  0  0
  4  5  1  0  0  0  0
  4 10  1  0  0  0  0
  5  6  2  0  0  0  0
  5  8  1  0  0  0  0
  6  7  1  0  0  0  0
  8  9  1  0  0  0  0
  9 10  2  0  0  0  0
M  END
>  <CHROM.1>
-3.79519814,-30.20031922,27.15109020,3.14087914,0.18249097,1.00136052

>  <Name>
ligand

>  <RI>
0

>  <Rbt.Current_Directory>
/home/itssahil/PROJECTS/Mol_Feturizer/New_Systems/rnas/4LW0

>  <Rbt.Executable>
rbdock ($Id: //depot/dev/client3/rdock/2013.1/src/exe/rbdock.cxx#4 $)

>  <Rbt.Library>
libRbt.so (2013.1, Build901 2013/11/27)

>  <Rbt.Parameter_File>
/export/apps/rDock/src/rDock_2013.1_src/data/scripts/dock_solv.prm

>  <Rbt.Receptor>
prm/blind_docking_80.prm

>  <SCORE>
-13.5967

>  <SCORE.INTER>
-13.5967

>  <SCORE.INTER.CONST>
1

>  <SCORE.INTER.POLAR>
0

>  <SCORE.INTER.ROT>
0

>  <SCORE.INTER.SOLV>
7.50672

>  <SCORE.INTER.VDW>
-15.1667

>  <SCORE.INTER.norm>
-1.35967

>  <SCORE.INTRA>
0

>  <SCORE.INTRA.DIHEDRAL>
0

>  <SCORE.INTRA.DIHEDRAL.0>
0

>  <SCORE.INTRA.POLAR>
0

>  <SCORE.INTRA.POLAR.0>
0

>  <SCORE.INTRA.REPUL>
0

>  <SCORE.INTRA.REPUL.0>
0

>  <SCORE.INTRA.SOLV>
0

>  <SCORE.INTRA.SOLV.lig_0>
-23.9151

>  <SCORE.INTRA.VDW>
0

>  <SCORE.INTRA.VDW.0>
0

>  <SCORE.INTRA.norm>
0

>  <SCORE.RESTR>
0

>  <SCORE.RESTR.CAVITY>
0

>  <SCORE.RESTR.norm>
0

>  <SCORE.SYSTEM>
0

>  <SCORE.SYSTEM.CONST>
0

>  <SCORE.SYSTEM.DIHEDRAL>
0

>  <SCORE.SYSTEM.SOLV>
0

>  <SCORE.SYSTEM.norm>
0

>  <SCORE.heavy>
10

>  <SCORE.norm>
-1.35967

>  <RMSD>
12.025

$$$$
ligand
 OpenBabel11021811503D
libRbt.so/2013.1/901 2013/11/27
 10 11  0  0  0  0  0  0  0  0999 V2000
   -5.7341  -30.7004   27.0353 N   0  0  0  0  0  0  0  0  0  0  0  0
   -5.1807  -31.2536   25.9542 C   0  0  0  0  0  0  0  0  0  0  0  0
   -3.9025  -31.2326   25.5566 N   0  0  0  0  0  0  0  0  0  0  0  0
   -3.1526  -30.5192   26.4182 C   0  0  0  0  0  0  0  0  0  0  0  0
   -3.5790  -29.8900   27.5723 C   0  0  0  0  0  0  0  0  0  0  0  0
   -4.9485  -29.9953   27.8867 C   0  0  0  0  0  0  0  0  0  0  0  0
   -5.4961  -29.4247   28.9719 N   0  0  0  0  0  0  0  0  0  0  0  0
   -2.5274  -29.2588   28.2112 N   0  0  0  0  0  0  0  0  0  0  0  0
   -1.4962  -29.5169   27.4510 C   0  0  0  0  0  0  0  0  0  0  0  0
   -1.8036  -30.2659   26.3463 N   0  0  0  0  0  0  0  0  0  0  0  0
  1  2  2  0  0  0  0
  1  6  1  0  0  0  0
  2  3  1  0  0  0  0
  3  4  2  0  0  0  0
  4  5  1  0  0  0  0
  4 10  1  0  0  0  0
  5  6  2  0  0  0  0
  5  8  1  0  0  0  0
  6  7  1  0  0  0  0
  8  9  1  0  0  0  0
  9 10  2  0  0  0  0
M  END
>  <CHROM.1>
-3.79056559,-30.20349535,27.14679745,3.13538994,0.18292886,1.00953525

>  <Name>
ligand

>  <RI>
0

>  <Rbt.Current_Directory>
/home/itssahil/PROJECTS/Mol_Feturizer/New_Systems/rnas/4LW0

>  <Rbt.Executable>
rbdock ($Id: //depot/dev/client3/rdock/2013.1/src/exe/rbdock.cxx#4 $)

>  <Rbt.Library>
libRbt.so (2013.1, Build901 2013/11/27)

>  <Rbt.Parameter_File>
/export/apps/rDock/src/rDock_2013.1_src/data/scripts/dock_solv.prm

>  <Rbt.Receptor>
prm/blind_docking_80.prm

>  <SCORE>
-13.6256

>  <SCORE.INTER>
-13.6256

>  <SCORE.INTER.CONST>
1

>  <SCORE.INTER.POLAR>
0

>  <SCORE.INTER.ROT>
0

>  <SCORE.INTER.SOLV>
7.49295

>  <SCORE.INTER.VDW>
-15.1814

>  <SCORE.INTER.norm>
-1.36256

>  <SCORE.INTRA>
0

>  <SCORE.INTRA.DIHEDRAL>
0

>  <SCORE.INTRA.DIHEDRAL.0>
0

>  <SCORE.INTRA.POLAR>
0

>  <SCORE.INTRA.POLAR.0>
0

>  <SCORE.INTRA.REPUL>
0

>  <SCORE.INTRA.REPUL.0>
0

>  <SCORE.INTRA.SOLV>
0

>  <SCORE.INTRA.SOLV.lig_0>
-23.9151

>  <SCORE.INTRA.VDW>
0

>  <SCORE.INTRA.VDW.0>
0

>  <SCORE.INTRA.norm>
0

>  <SCORE.RESTR>
0

>  <SCORE.RESTR.CAVITY>
0

>  <SCORE.RESTR.norm>
0

>  <SCORE.SYSTEM>
0

>  <SCORE.SYSTEM.CONST>
0

>  <SCORE.SYSTEM.DIHEDRAL>
0

>  <SCORE.SYSTEM.SOLV>
0

>  <SCORE.SYSTEM.norm>
0

>  <SCORE.heavy>
10

>  <SCORE.norm>
-1.36256

>  <RMSD>
12.025

$$$$
ligand
 OpenBabel11021811503D
libRbt.so/2013.1/901 2013/11/27
 10 11  0  0  0  0  0  0  0  0999 V2000
   -5.7382  -30.6941   27.0249 N   0  0  0  0  0  0  0  0  0  0  0  0
   -5.1797  -31.2532   25.9495 C   0  0  0  0  0  0  0  0  0  0  0  0
   -3.8991  -31.2370   25.5594 N   0  0  0  0  0  0  0  0  0  0  0  0
   -3.1526  -30.5218   26.4225 C   0  0  0  0  0  0  0  0  0  0  0  0
   -3.5843  -29.8867   27.5714 C   0  0  0  0  0  0  0  0  0  0  0  0
   -4.9559  -29.9874   27.8780 C   0  0  0  0  0  0  0  0  0  0  0  0
   -5.5085  -29.4109   28.9575 N   0  0  0  0  0  0  0  0  0  0  0  0
   -2.5349  -29.2555   28.2138 N   0  0  0  0  0  0  0  0  0  0  0  0
   -1.4999  -29.5193   27.4609 C   0  0  0  0  0  0  0  0  0  0  0  0
   -1.8026  -30.2722   26.3575 N   0  0  0  0  0  0  0  0  0  0  0  0
  1  2  2  0  0  0  0
  1  6  1  0  0  0  0
  2  3  1  0  0  0  0
  3  4  2  0  0  0  0
  4  5  1  0  0  0  0
  4 10  1  0  0  0  0
  5  6  2  0  0  0  0
  5  8  1  0  0  0  0
  6  7  1  0  0  0  0
  8  9  1  0  0  0  0
  9 10  2  0  0  0  0
M  END
>  <CHROM.1>
-3.79408068,-30.20150734,27.14590332,3.13917470,0.17765371,1.00466670

>  <Name>
ligand

>  <RI>
0

>  <Rbt.Current_Directory>
/home/itssahil/PROJECTS/Mol_Feturizer/New_Systems/rnas/4LW0

>  <Rbt.Executable>
rbdock ($Id: //depot/dev/client3/rdock/2013.1/src/exe/rbdock.cxx#4 $)

>  <Rbt.Library>
libRbt.so (2013.1, Build901 2013/11/27)

>  <Rbt.Parameter_File>
/export/apps/rDock/src/rDock_2013.1_src/data/scripts/dock_solv.prm

>  <Rbt.Receptor>
prm/blind_docking_80.prm

>  <SCORE>
-13.6254

>  <SCORE.INTER>
-13.6254

>  <SCORE.INTER.CONST>
1

>  <SCORE.INTER.POLAR>
0

>  <SCORE.INTER.ROT>
0

>  <SCORE.INTER.SOLV>
7.51617

>  <SCORE.INTER.VDW>
-15.189

>  <SCORE.INTER.norm>
-1.36254

>  <SCORE.INTRA>
0

>  <SCORE.INTRA.DIHEDRAL>
0

>  <SCORE.INTRA.DIHEDRAL.0>
0

>  <SCORE.INTRA.POLAR>
0

>  <SCORE.INTRA.POLAR.0>
0

>  <SCORE.INTRA.REPUL>
0

>  <SCORE.INTRA.REPUL.0>
0

>  <SCORE.INTRA.SOLV>
0

>  <SCORE.INTRA.SOLV.lig_0>
-23.9151

>  <SCORE.INTRA.VDW>
0

>  <SCORE.INTRA.VDW.0>
0

>  <SCORE.INTRA.norm>
0

>  <SCORE.RESTR>
0

>  <SCORE.RESTR.CAVITY>
0

>  <SCORE.RESTR.norm>
0

>  <SCORE.SYSTEM>
0

>  <SCORE.SYSTEM.CONST>
0

>  <SCORE.SYSTEM.DIHEDRAL>
0

>  <SCORE.SYSTEM.SOLV>
0

>  <SCORE.SYSTEM.norm>
0

>  <SCORE.heavy>
10

>  <SCORE.norm>
-1.36254

>  <RMSD>
12.025

$$$$
ligand
 OpenBabel11021811503D
libRbt.so/2013.1/901 2013/11/27
 10 11  0  0  0  0  0  0  0  0999 V2000
   -5.7337  -30.6849   27.0387 N   0  0  0  0  0  0  0  0  0  0  0  0
   -5.1869  -31.2456   25.9581 C   0  0  0  0  0  0  0  0  0  0  0  0
   -3.9090  -31.2378   25.5589 N   0  0  0  0  0  0  0  0  0  0  0  0
   -3.1512  -30.5300   26.4183 C   0  0  0  0  0  0  0  0  0  0  0  0
   -3.5701  -29.8945   27.5717 C   0  0  0  0  0  0  0  0  0  0  0  0
   -4.9402  -29.9859   27.8879 C   0  0  0  0  0  0  0  0  0  0  0  0
   -5.4809  -29.4079   28.9726 N   0  0  0  0  0  0  0  0  0  0  0  0
   -2.5117  -29.2723   28.2080 N   0  0  0  0  0  0  0  0  0  0  0  0
   -1.4839  -29.5419   27.4471 C   0  0  0  0  0  0  0  0  0  0  0  0
   -1.7999  -30.2900   26.3443 N   0  0  0  0  0  0  0  0  0  0  0  0
  1  2  2  0  0  0  0
  1  6  1  0  0  0  0
  2  3  1  0  0  0  0
  3  4  2  0  0  0  0
  4  5  1  0  0  0  0
  4 10  1  0  0  0  0
  5  6  2  0  0  0  0
  5  8  1  0  0  0  0
  6  7  1  0  0  0  0
  8  9  1  0  0  0  0
  9 10  2  0  0  0  0
M  END
>  <CHROM.1>
-3.78521578,-30.20673522,27.14699734,3.12910994,0.17533762,1.00872838

>  <Name>
ligand

>  <RI>
0

>  <Rbt.Current_Directory>
/home/itssahil/PROJECTS/Mol_Feturizer/New_Systems/rnas/4LW0

>  <Rbt.Executable>
rbdock ($Id: //depot/dev/client3/rdock/2013.1/src/exe/rbdock.cxx#4 $)

>  <Rbt.Library>
libRbt.so (2013.1, Build901 2013/11/27)

>  <Rbt.Parameter_File>
/export/apps/rDock/src/rDock_2013.1_src/data/scripts/dock_solv.prm

>  <Rbt.Receptor>
prm/blind_docking_100.prm

>  <SCORE>
-13.6231

>  <SCORE.INTER>
-13.6231

>  <SCORE.INTER.CONST>
1

>  <SCORE.INTER.POLAR>
0

>  <SCORE.INTER.ROT>
0

>  <SCORE.INTER.SOLV>
7.4913

>  <SCORE.INTER.VDW>
-15.1792

>  <SCORE.INTER.norm>
-1.36231

>  <SCORE.INTRA>
0

>  <SCORE.INTRA.DIHEDRAL>
0

>  <SCORE.INTRA.DIHEDRAL.0>
0

>  <SCORE.INTRA.POLAR>
0

>  <SCORE.INTRA.POLAR.0>
0

>  <SCORE.INTRA.REPUL>
0

>  <SCORE.INTRA.REPUL.0>
0

>  <SCORE.INTRA.SOLV>
0

>  <SCORE.INTRA.SOLV.lig_0>
-23.9151

>  <SCORE.INTRA.VDW>
0

>  <SCORE.INTRA.VDW.0>
0

>  <SCORE.INTRA.norm>
0

>  <SCORE.RESTR>
0

>  <SCORE.RESTR.CAVITY>
0

>  <SCORE.RESTR.norm>
0

>  <SCORE.SYSTEM>
0

>  <SCORE.SYSTEM.CONST>
0

>  <SCORE.SYSTEM.DIHEDRAL>
0

>  <SCORE.SYSTEM.SOLV>
0

>  <SCORE.SYSTEM.norm>
0

>  <SCORE.heavy>
10

>  <SCORE.norm>
-1.36231

>  <RMSD>
12.026

$$$$
ligand
 OpenBabel11021811503D
libRbt.so/2013.1/901 2013/11/27
 10 11  0  0  0  0  0  0  0  0999 V2000
   -5.7368  -30.6926   27.0348 N   0  0  0  0  0  0  0  0  0  0  0  0
   -5.1829  -31.2530   25.9577 C   0  0  0  0  0  0  0  0  0  0  0  0
   -3.9037  -31.2392   25.5631 N   0  0  0  0  0  0  0  0  0  0  0  0
   -3.1530  -30.5250   26.4234 C   0  0  0  0  0  0  0  0  0  0  0  0
   -3.5796  -29.8888   27.5735 C   0  0  0  0  0  0  0  0  0  0  0  0
   -4.9502  -29.9870   27.8850 C   0  0  0  0  0  0  0  0  0  0  0  0
   -5.4981  -29.4091   28.9662 N   0  0  0  0  0  0  0  0  0  0  0  0
   -2.5269  -29.2592   28.2122 N   0  0  0  0  0  0  0  0  0  0  0  0
   -1.4949  -29.5250   27.4557 C   0  0  0  0  0  0  0  0  0  0  0  0
   -1.8027  -30.2777   26.3537 N   0  0  0  0  0  0  0  0  0  0  0  0
  1  2  2  0  0  0  0
  1  6  1  0  0  0  0
  2  3  1  0  0  0  0
  3  4  2  0  0  0  0
  4  5  1  0  0  0  0
  4 10  1  0  0  0  0
  5  6  2  0  0  0  0
  5  8  1  0  0  0  0
  6  7  1  0  0  0  0
  8  9  1  0  0  0  0
  9 10  2  0  0  0  0
M  END
>  <CHROM.1>
-3.79138162,-30.20334326,27.14891903,3.13524493,0.17804677,1.00503885

>  <Name>
ligand

>  <RI>
0

>  <Rbt.Current_Directory>
/home/itssahil/PROJECTS/Mol_Feturizer/New_Systems/rnas/4LW0

>  <Rbt.Executable>
rbdock ($Id: //depot/dev/client3/rdock/2013.1/src/exe/rbdock.cxx#4 $)

>  <Rbt.Library>
libRbt.so (2013.1, Build901 2013/11/27)

>  <Rbt.Parameter_File>
/export/apps/rDock/src/rDock_2013.1_src/data/scripts/dock_solv.prm

>  <Rbt.Receptor>
prm/blind_docking_100.prm

>  <SCORE>
-13.627

>  <SCORE.INTER>
-13.6273

>  <SCORE.INTER.CONST>
1

>  <SCORE.INTER.POLAR>
0

>  <SCORE.INTER.ROT>
0

>  <SCORE.INTER.SOLV>
7.50141

>  <SCORE.INTER.VDW>
-15.1853

>  <SCORE.INTER.norm>
-1.36273

>  <SCORE.INTRA>
0

>  <SCORE.INTRA.DIHEDRAL>
0

>  <SCORE.INTRA.DIHEDRAL.0>
0

>  <SCORE.INTRA.POLAR>
0

>  <SCORE.INTRA.POLAR.0>
0

>  <SCORE.INTRA.REPUL>
0

>  <SCORE.INTRA.REPUL.0>
0

>  <SCORE.INTRA.SOLV>
0

>  <SCORE.INTRA.SOLV.lig_0>
-23.9151

>  <SCORE.INTRA.VDW>
0

>  <SCORE.INTRA.VDW.0>
0

>  <SCORE.INTRA.norm>
0

>  <SCORE.RESTR>
0.000220169

>  <SCORE.RESTR.CAVITY>
0.000220169

>  <SCORE.RESTR.norm>
2.20169e-05

>  <SCORE.SYSTEM>
0

>  <SCORE.SYSTEM.CONST>
0

>  <SCORE.SYSTEM.DIHEDRAL>
0

>  <SCORE.SYSTEM.SOLV>
0

>  <SCORE.SYSTEM.norm>
0

>  <SCORE.heavy>
10

>  <SCORE.norm>
-1.3627

>  <RMSD>
12.026

$$$$
ligand
 OpenBabel11021811503D
libRbt.so/2013.1/901 2013/11/27
 10 11  0  0  0  0  0  0  0  0999 V2000
   -5.7337  -30.6890   27.0410 N   0  0  0  0  0  0  0  0  0  0  0  0
   -5.1851  -31.2502   25.9616 C   0  0  0  0  0  0  0  0  0  0  0  0
   -3.9070  -31.2403   25.5633 N   0  0  0  0  0  0  0  0  0  0  0  0
   -3.1512  -30.5297   26.4221 C   0  0  0  0  0  0  0  0  0  0  0  0
   -3.5722  -29.8933   27.5742 C   0  0  0  0  0  0  0  0  0  0  0  0
   -4.9423  -29.9871   27.8896 C   0  0  0  0  0  0  0  0  0  0  0  0
   -5.4850  -29.4085   28.9730 N   0  0  0  0  0  0  0  0  0  0  0  0
   -2.5155  -29.2680   28.2104 N   0  0  0  0  0  0  0  0  0  0  0  0
   -1.4867  -29.5365   27.4506 C   0  0  0  0  0  0  0  0  0  0  0  0
   -1.8004  -30.2870   26.3486 N   0  0  0  0  0  0  0  0  0  0  0  0
  1  2  2  0  0  0  0
  1  6  1  0  0  0  0
  2  3  1  0  0  0  0
  3  4  2  0  0  0  0
  4  5  1  0  0  0  0
  4 10  1  0  0  0  0
  5  6  2  0  0  0  0
  5  8  1  0  0  0  0
  6  7  1  0  0  0  0
  8  9  1  0  0  0  0
  9 10  2  0  0  0  0
M  END
>  <CHROM.1>
-3.78636949,-30.20663970,27.14987578,3.13082327,0.17672096,1.00689582

>  <Name>
ligand

>  <RI>
0

>  <Rbt.Current_Directory>
/home/itssahil/PROJECTS/Mol_Feturizer/New_Systems/rnas/4LW0

>  <Rbt.Executable>
rbdock ($Id: //depot/dev/client3/rdock/2013.1/src/exe/rbdock.cxx#4 $)

>  <Rbt.Library>
libRbt.so (2013.1, Build901 2013/11/27)

>  <Rbt.Parameter_File>
/export/apps/rDock/src/rDock_2013.1_src/data/scripts/dock_solv.prm

>  <Rbt.Receptor>
prm/blind_docking_60.prm

>  <SCORE>
-13.6263

>  <SCORE.INTER>
-13.6263

>  <SCORE.INTER.CONST>
1

>  <SCORE.INTER.POLAR>
0

>  <SCORE.INTER.ROT>
0

>  <SCORE.INTER.SOLV>
7.49138

>  <SCORE.INTER.VDW>
-15.1813

>  <SCORE.INTER.norm>
-1.36263

>  <SCORE.INTRA>
0

>  <SCORE.INTRA.DIHEDRAL>
0

>  <SCORE.INTRA.DIHEDRAL.0>
0

>  <SCORE.INTRA.POLAR>
0

>  <SCORE.INTRA.POLAR.0>
0

>  <SCORE.INTRA.REPUL>
0

>  <SCORE.INTRA.REPUL.0>
0

>  <SCORE.INTRA.SOLV>
0

>  <SCORE.INTRA.SOLV.lig_0>
-23.9151

>  <SCORE.INTRA.VDW>
0

>  <SCORE.INTRA.VDW.0>
0

>  <SCORE.INTRA.norm>
0

>  <SCORE.RESTR>
0

>  <SCORE.RESTR.CAVITY>
0

>  <SCORE.RESTR.norm>
0

>  <SCORE.SYSTEM>
0

>  <SCORE.SYSTEM.CONST>
0

>  <SCORE.SYSTEM.DIHEDRAL>
0

>  <SCORE.SYSTEM.SOLV>
0

>  <SCORE.SYSTEM.norm>
0

>  <SCORE.heavy>
10

>  <SCORE.norm>
-1.36263

>  <RMSD>
12.026

$$$$
ligand
 OpenBabel11021811503D
libRbt.so/2013.1/901 2013/11/27
 10 11  0  0  0  0  0  0  0  0999 V2000
   -5.7301  -30.6947   27.0390 N   0  0  0  0  0  0  0  0  0  0  0  0
   -5.1834  -31.2496   25.9554 C   0  0  0  0  0  0  0  0  0  0  0  0
   -3.9064  -31.2355   25.5536 N   0  0  0  0  0  0  0  0  0  0  0  0
   -3.1496  -30.5276   26.4137 C   0  0  0  0  0  0  0  0  0  0  0  0
   -3.5686  -29.8975   27.5701 C   0  0  0  0  0  0  0  0  0  0  0  0
   -4.9376  -29.9954   27.8889 C   0  0  0  0  0  0  0  0  0  0  0  0
   -5.4783  -29.4231   28.9766 N   0  0  0  0  0  0  0  0  0  0  0  0
   -2.5112  -29.2733   28.2064 N   0  0  0  0  0  0  0  0  0  0  0  0
   -1.4841  -29.5364   27.4424 C   0  0  0  0  0  0  0  0  0  0  0  0
   -1.7994  -30.2821   26.3377 N   0  0  0  0  0  0  0  0  0  0  0  0
  1  2  2  0  0  0  0
  1  6  1  0  0  0  0
  2  3  1  0  0  0  0
  3  4  2  0  0  0  0
  4  5  1  0  0  0  0
  4 10  1  0  0  0  0
  5  6  2  0  0  0  0
  5  8  1  0  0  0  0
  6  7  1  0  0  0  0
  8  9  1  0  0  0  0
  9 10  2  0  0  0  0
M  END
>  <CHROM.1>
-3.78332481,-30.20922122,27.14484707,3.12943462,0.17974992,1.01198367

>  <Name>
ligand

>  <RI>
0

>  <Rbt.Current_Directory>
/home/itssahil/PROJECTS/Mol_Feturizer/New_Systems/rnas/4LW0

>  <Rbt.Executable>
rbdock ($Id: //depot/dev/client3/rdock/2013.1/src/exe/rbdock.cxx#4 $)

>  <Rbt.Library>
libRbt.so (2013.1, Build901 2013/11/27)

>  <Rbt.Parameter_File>
/export/apps/rDock/src/rDock_2013.1_src/data/scripts/dock_solv.prm

>  <Rbt.Receptor>
prm/blind_docking_80.prm

>  <SCORE>
-13.6238

>  <SCORE.INTER>
-13.6238

>  <SCORE.INTER.CONST>
1

>  <SCORE.INTER.POLAR>
0

>  <SCORE.INTER.ROT>
0

>  <SCORE.INTER.SOLV>
7.48796

>  <SCORE.INTER.VDW>
-15.1785

>  <SCORE.INTER.norm>
-1.36238

>  <SCORE.INTRA>
0

>  <SCORE.INTRA.DIHEDRAL>
0

>  <SCORE.INTRA.DIHEDRAL.0>
0

>  <SCORE.INTRA.POLAR>
0

>  <SCORE.INTRA.POLAR.0>
0

>  <SCORE.INTRA.REPUL>
0

>  <SCORE.INTRA.REPUL.0>
0

>  <SCORE.INTRA.SOLV>
0

>  <SCORE.INTRA.SOLV.lig_0>
-23.9151

>  <SCORE.INTRA.VDW>
0

>  <SCORE.INTRA.VDW.0>
0

>  <SCORE.INTRA.norm>
0

>  <SCORE.RESTR>
0

>  <SCORE.RESTR.CAVITY>
0

>  <SCORE.RESTR.norm>
0

>  <SCORE.SYSTEM>
0

>  <SCORE.SYSTEM.CONST>
0

>  <SCORE.SYSTEM.DIHEDRAL>
0

>  <SCORE.SYSTEM.SOLV>
0

>  <SCORE.SYSTEM.norm>
0

>  <SCORE.heavy>
10

>  <SCORE.norm>
-1.36238

>  <RMSD>
12.026

$$$$
ligand
 OpenBabel11021811503D
libRbt.so/2013.1/901 2013/11/27
 10 11  0  0  0  0  0  0  0  0999 V2000
    3.4036  -25.3761   14.5164 N   0  0  0  0  0  0  0  0  0  0  0  0
    3.1606  -25.1704   15.8124 C   0  0  0  0  0  0  0  0  0  0  0  0
    1.9904  -25.1770   16.4626 N   0  0  0  0  0  0  0  0  0  0  0  0
    0.9776  -25.4153   15.6075 C   0  0  0  0  0  0  0  0  0  0  0  0
    1.0701  -25.6445   14.2479 C   0  0  0  0  0  0  0  0  0  0  0  0
    2.3613  -25.6216   13.6842 C   0  0  0  0  0  0  0  0  0  0  0  0
    2.5923  -25.8189   12.3763 N   0  0  0  0  0  0  0  0  0  0  0  0
   -0.1789  -25.8600   13.6947 N   0  0  0  0  0  0  0  0  0  0  0  0
   -0.9944  -25.7667   14.7116 C   0  0  0  0  0  0  0  0  0  0  0  0
   -0.3642  -25.4907   15.8958 N   0  0  0  0  0  0  0  0  0  0  0  0
  1  2  2  0  0  0  0
  1  6  1  0  0  0  0
  2  3  1  0  0  0  0
  3  4  2  0  0  0  0
  4  5  1  0  0  0  0
  4 10  1  0  0  0  0
  5  6  2  0  0  0  0
  5  8  1  0  0  0  0
  6  7  1  0  0  0  0
  8  9  1  0  0  0  0
  9 10  2  0  0  0  0
M  END
>  <CHROM.1>
1.40849434,-25.53493384,14.69234923,-0.25867962,0.09406730,1.39944694

>  <Name>
ligand

>  <RI>
0

>  <Rbt.Current_Directory>
/home/itssahil/PROJECTS/Mol_Feturizer/New_Systems/rnas/4LW0

>  <Rbt.Executable>
rbdock ($Id: //depot/dev/client3/rdock/2013.1/src/exe/rbdock.cxx#4 $)

>  <Rbt.Library>
libRbt.so (2013.1, Build901 2013/11/27)

>  <Rbt.Parameter_File>
/export/apps/rDock/src/rDock_2013.1_src/data/scripts/dock_solv.prm

>  <Rbt.Receptor>
prm/blind_docking_100.prm

>  <SCORE>
-11.6457

>  <SCORE.INTER>
-11.6457

>  <SCORE.INTER.CONST>
1

>  <SCORE.INTER.POLAR>
0

>  <SCORE.INTER.ROT>
0

>  <SCORE.INTER.SOLV>
2.54864

>  <SCORE.INTER.VDW>
-12.2134

>  <SCORE.INTER.norm>
-1.16457

>  <SCORE.INTRA>
0

>  <SCORE.INTRA.DIHEDRAL>
0

>  <SCORE.INTRA.DIHEDRAL.0>
0

>  <SCORE.INTRA.POLAR>
0

>  <SCORE.INTRA.POLAR.0>
0

>  <SCORE.INTRA.REPUL>
0

>  <SCORE.INTRA.REPUL.0>
0

>  <SCORE.INTRA.SOLV>
0

>  <SCORE.INTRA.SOLV.lig_0>
-23.9151

>  <SCORE.INTRA.VDW>
0

>  <SCORE.INTRA.VDW.0>
0

>  <SCORE.INTRA.norm>
0

>  <SCORE.RESTR>
0

>  <SCORE.RESTR.CAVITY>
0

>  <SCORE.RESTR.norm>
0

>  <SCORE.SYSTEM>
0

>  <SCORE.SYSTEM.CONST>
0

>  <SCORE.SYSTEM.DIHEDRAL>
0

>  <SCORE.SYSTEM.SOLV>
0

>  <SCORE.SYSTEM.norm>
0

>  <SCORE.heavy>
10

>  <SCORE.norm>
-1.16457

>  <RMSD>
12.035

$$$$
ligand
 OpenBabel11021811503D
libRbt.so/2013.1/901 2013/11/27
 10 11  0  0  0  0  0  0  0  0999 V2000
    3.4133  -25.3792   14.5192 N   0  0  0  0  0  0  0  0  0  0  0  0
    3.1672  -25.1685   15.8138 C   0  0  0  0  0  0  0  0  0  0  0  0
    1.9955  -25.1739   16.4615 N   0  0  0  0  0  0  0  0  0  0  0  0
    0.9849  -25.4168   15.6052 C   0  0  0  0  0  0  0  0  0  0  0  0
    1.0806  -25.6513   14.2467 C   0  0  0  0  0  0  0  0  0  0  0  0
    2.3730  -25.6292   13.6858 C   0  0  0  0  0  0  0  0  0  0  0  0
    2.6071  -25.8316   12.3792 N   0  0  0  0  0  0  0  0  0  0  0  0
   -0.1669  -25.8706   13.6917 N   0  0  0  0  0  0  0  0  0  0  0  0
   -0.9847  -25.7742   14.7064 C   0  0  0  0  0  0  0  0  0  0  0  0
   -0.3574  -25.4927   15.8909 N   0  0  0  0  0  0  0  0  0  0  0  0
  1  2  2  0  0  0  0
  1  6  1  0  0  0  0
  2  3  1  0  0  0  0
  3  4  2  0  0  0  0
  4  5  1  0  0  0  0
  4 10  1  0  0  0  0
  5  6  2  0  0  0  0
  5  8  1  0  0  0  0
  6  7  1  0  0  0  0
  8  9  1  0  0  0  0
  9 10  2  0  0  0  0
M  END
>  <CHROM.1>
1.41793983,-25.53962721,14.69148294,-0.25632656,0.09485019,1.39518794

>  <Name>
ligand

>  <RI>
0

>  <Rbt.Current_Directory>
/home/itssahil/PROJECTS/Mol_Feturizer/New_Systems/rnas/4LW0

>  <Rbt.Executable>
rbdock ($Id: //depot/dev/client3/rdock/2013.1/src/exe/rbdock.cxx#4 $)

>  <Rbt.Library>
libRbt.so (2013.1, Build901 2013/11/27)

>  <Rbt.Parameter_File>
/export/apps/rDock/src/rDock_2013.1_src/data/scripts/dock_solv.prm

>  <Rbt.Receptor>
prm/blind_docking_40.prm

>  <SCORE>
-11.6483

>  <SCORE.INTER>
-11.6483

>  <SCORE.INTER.CONST>
1

>  <SCORE.INTER.POLAR>
0

>  <SCORE.INTER.ROT>
0

>  <SCORE.INTER.SOLV>
2.54969

>  <SCORE.INTER.VDW>
-12.2154

>  <SCORE.INTER.norm>
-1.16483

>  <SCORE.INTRA>
0

>  <SCORE.INTRA.DIHEDRAL>
0

>  <SCORE.INTRA.DIHEDRAL.0>
0

>  <SCORE.INTRA.POLAR>
0

>  <SCORE.INTRA.POLAR.0>
0

>  <SCORE.INTRA.REPUL>
0

>  <SCORE.INTRA.REPUL.0>
0

>  <SCORE.INTRA.SOLV>
0

>  <SCORE.INTRA.SOLV.lig_0>
-23.9151

>  <SCORE.INTRA.VDW>
0

>  <SCORE.INTRA.VDW.0>
0

>  <SCORE.INTRA.norm>
0

>  <SCORE.RESTR>
0

>  <SCORE.RESTR.CAVITY>
0

>  <SCORE.RESTR.norm>
0

>  <SCORE.SYSTEM>
0

>  <SCORE.SYSTEM.CONST>
0

>  <SCORE.SYSTEM.DIHEDRAL>
0

>  <SCORE.SYSTEM.SOLV>
0

>  <SCORE.SYSTEM.norm>
0

>  <SCORE.heavy>
10

>  <SCORE.norm>
-1.16483

>  <RMSD>
12.037

$$$$
ligand
 OpenBabel11021811503D
libRbt.so/2013.1/901 2013/11/27
 10 11  0  0  0  0  0  0  0  0999 V2000
   -5.6741  -30.6546   27.1182 N   0  0  0  0  0  0  0  0  0  0  0  0
   -5.2254  -31.2242   25.9978 C   0  0  0  0  0  0  0  0  0  0  0  0
   -3.9770  -31.2702   25.5165 N   0  0  0  0  0  0  0  0  0  0  0  0
   -3.1325  -30.6116   26.3330 C   0  0  0  0  0  0  0  0  0  0  0  0
   -3.4456  -29.9743   27.5186 C   0  0  0  0  0  0  0  0  0  0  0  0
   -4.7952  -30.0062   27.9221 C   0  0  0  0  0  0  0  0  0  0  0  0
   -5.2368  -29.4196   29.0463 N   0  0  0  0  0  0  0  0  0  0  0  0
   -2.3199  -29.4118   28.0921 N   0  0  0  0  0  0  0  0  0  0  0  0
   -1.3573  -29.7178   27.2629 C   0  0  0  0  0  0  0  0  0  0  0  0
   -1.7789  -30.4340   26.1742 N   0  0  0  0  0  0  0  0  0  0  0  0
  1  2  2  0  0  0  0
  1  6  1  0  0  0  0
  2  3  1  0  0  0  0
  3  4  2  0  0  0  0
  4  5  1  0  0  0  0
  4 10  1  0  0  0  0
  5  6  2  0  0  0  0
  5  8  1  0  0  0  0
  6  7  1  0  0  0  0
  8  9  1  0  0  0  0
  9 10  2  0  0  0  0
M  END
>  <CHROM.1>
-3.70218346,-30.26979702,27.10515949,3.04800646,0.16876075,1.03593185

>  <Name>
ligand

>  <RI>
0

>  <Rbt.Current_Directory>
/home/itssahil/PROJECTS/Mol_Feturizer/New_Systems/rnas/4LW0

>  <Rbt.Executable>
rbdock ($Id: //depot/dev/client3/rdock/2013.1/src/exe/rbdock.cxx#4 $)

>  <Rbt.Library>
libRbt.so (2013.1, Build901 2013/11/27)

>  <Rbt.Parameter_File>
/export/apps/rDock/src/rDock_2013.1_src/data/scripts/dock_solv.prm

>  <Rbt.Receptor>
prm/blind_docking_60.prm

>  <SCORE>
-13.6549

>  <SCORE.INTER>
-13.6565

>  <SCORE.INTER.CONST>
1

>  <SCORE.INTER.POLAR>
0

>  <SCORE.INTER.ROT>
0

>  <SCORE.INTER.SOLV>
7.31474

>  <SCORE.INTER.VDW>
-15.1426

>  <SCORE.INTER.norm>
-1.36565

>  <SCORE.INTRA>
0

>  <SCORE.INTRA.DIHEDRAL>
0

>  <SCORE.INTRA.DIHEDRAL.0>
0

>  <SCORE.INTRA.POLAR>
0

>  <SCORE.INTRA.POLAR.0>
0

>  <SCORE.INTRA.REPUL>
0

>  <SCORE.INTRA.REPUL.0>
0

>  <SCORE.INTRA.SOLV>
0

>  <SCORE.INTRA.SOLV.lig_0>
-23.9151

>  <SCORE.INTRA.VDW>
0

>  <SCORE.INTRA.VDW.0>
0

>  <SCORE.INTRA.norm>
0

>  <SCORE.RESTR>
0.00160897

>  <SCORE.RESTR.CAVITY>
0.00160897

>  <SCORE.RESTR.norm>
0.000160897

>  <SCORE.SYSTEM>
0

>  <SCORE.SYSTEM.CONST>
0

>  <SCORE.SYSTEM.DIHEDRAL>
0

>  <SCORE.SYSTEM.SOLV>
0

>  <SCORE.SYSTEM.norm>
0

>  <SCORE.heavy>
10

>  <SCORE.norm>
-1.36549

>  <RMSD>
12.037

$$$$
ligand
 OpenBabel11021811503D
libRbt.so/2013.1/901 2013/11/27
 10 11  0  0  0  0  0  0  0  0999 V2000
   -5.7419  -30.7050   27.0425 N   0  0  0  0  0  0  0  0  0  0  0  0
   -5.1850  -31.2488   25.9584 C   0  0  0  0  0  0  0  0  0  0  0  0
   -3.9052  -31.2260   25.5660 N   0  0  0  0  0  0  0  0  0  0  0  0
   -3.1577  -30.5220   26.4373 C   0  0  0  0  0  0  0  0  0  0  0  0
   -3.5877  -29.9031   27.5957 C   0  0  0  0  0  0  0  0  0  0  0  0
   -4.9586  -30.0093   27.9037 C   0  0  0  0  0  0  0  0  0  0  0  0
   -5.5096  -29.4481   28.9920 N   0  0  0  0  0  0  0  0  0  0  0  0
   -2.5377  -29.2796   28.2447 N   0  0  0  0  0  0  0  0  0  0  0  0
   -1.5039  -29.5321   27.4861 C   0  0  0  0  0  0  0  0  0  0  0  0
   -1.8080  -30.2701   26.3732 N   0  0  0  0  0  0  0  0  0  0  0  0
  1  2  2  0  0  0  0
  1  6  1  0  0  0  0
  2  3  1  0  0  0  0
  3  4  2  0  0  0  0
  4  5  1  0  0  0  0
  4 10  1  0  0  0  0
  5  6  2  0  0  0  0
  5  8  1  0  0  0  0
  6  7  1  0  0  0  0
  8  9  1  0  0  0  0
  9 10  2  0  0  0  0
M  END
>  <CHROM.1>
-3.79802726,-30.21222283,27.16637279,3.13798943,0.17953687,1.01856264

>  <Name>
ligand

>  <RI>
0

>  <Rbt.Current_Directory>
/home/itssahil/PROJECTS/Mol_Feturizer/New_Systems/rnas/4LW0

>  <Rbt.Executable>
rbdock ($Id: //depot/dev/client3/rdock/2013.1/src/exe/rbdock.cxx#4 $)

>  <Rbt.Library>
libRbt.so (2013.1, Build901 2013/11/27)

>  <Rbt.Parameter_File>
/export/apps/rDock/src/rDock_2013.1_src/data/scripts/dock_solv.prm

>  <Rbt.Receptor>
prm/blind_docking_100.prm

>  <SCORE>
-13.6023

>  <SCORE.INTER>
-13.6023

>  <SCORE.INTER.CONST>
1

>  <SCORE.INTER.POLAR>
0

>  <SCORE.INTER.ROT>
0

>  <SCORE.INTER.SOLV>
7.47642

>  <SCORE.INTER.VDW>
-15.1603

>  <SCORE.INTER.norm>
-1.36023

>  <SCORE.INTRA>
0

>  <SCORE.INTRA.DIHEDRAL>
0

>  <SCORE.INTRA.DIHEDRAL.0>
0

>  <SCORE.INTRA.POLAR>
0

>  <SCORE.INTRA.POLAR.0>
0

>  <SCORE.INTRA.REPUL>
0

>  <SCORE.INTRA.REPUL.0>
0

>  <SCORE.INTRA.SOLV>
0

>  <SCORE.INTRA.SOLV.lig_0>
-23.9151

>  <SCORE.INTRA.VDW>
0

>  <SCORE.INTRA.VDW.0>
0

>  <SCORE.INTRA.norm>
0

>  <SCORE.RESTR>
0

>  <SCORE.RESTR.CAVITY>
0

>  <SCORE.RESTR.norm>
0

>  <SCORE.SYSTEM>
0

>  <SCORE.SYSTEM.CONST>
0

>  <SCORE.SYSTEM.DIHEDRAL>
0

>  <SCORE.SYSTEM.SOLV>
0

>  <SCORE.SYSTEM.norm>
0

>  <SCORE.heavy>
10

>  <SCORE.norm>
-1.36023

>  <RMSD>
12.038

$$$$
ligand
 OpenBabel11021811503D
libRbt.so/2013.1/901 2013/11/27
 10 11  0  0  0  0  0  0  0  0999 V2000
    3.3898  -25.3393   14.5607 N   0  0  0  0  0  0  0  0  0  0  0  0
    3.1153  -25.1454   15.8523 C   0  0  0  0  0  0  0  0  0  0  0  0
    1.9321  -25.1798   16.4776 N   0  0  0  0  0  0  0  0  0  0  0  0
    0.9427  -25.4348   15.6003 C   0  0  0  0  0  0  0  0  0  0  0  0
    1.0685  -25.6551   14.2419 C   0  0  0  0  0  0  0  0  0  0  0  0
    2.3705  -25.6023   13.7057 C   0  0  0  0  0  0  0  0  0  0  0  0
    2.6330  -25.7882   12.4020 N   0  0  0  0  0  0  0  0  0  0  0  0
   -0.1638  -25.8939   13.6615 N   0  0  0  0  0  0  0  0  0  0  0  0
   -1.0022  -25.8229   14.6614 C   0  0  0  0  0  0  0  0  0  0  0  0
   -0.4029  -25.5398   15.8599 N   0  0  0  0  0  0  0  0  0  0  0  0
  1  2  2  0  0  0  0
  1  6  1  0  0  0  0
  2  3  1  0  0  0  0
  3  4  2  0  0  0  0
  4  5  1  0  0  0  0
  4 10  1  0  0  0  0
  5  6  2  0  0  0  0
  5  8  1  0  0  0  0
  6  7  1  0  0  0  0
  8  9  1  0  0  0  0
  9 10  2  0  0  0  0
M  END
>  <CHROM.1>
1.39514310,-25.54076693,14.69388733,-0.23426463,0.11119235,1.40180633

>  <Name>
ligand

>  <RI>
0

>  <Rbt.Current_Directory>
/home/itssahil/PROJECTS/Mol_Feturizer/New_Systems/rnas/4LW0

>  <Rbt.Executable>
rbdock ($Id: //depot/dev/client3/rdock/2013.1/src/exe/rbdock.cxx#4 $)

>  <Rbt.Library>
libRbt.so (2013.1, Build901 2013/11/27)

>  <Rbt.Parameter_File>
/export/apps/rDock/src/rDock_2013.1_src/data/scripts/dock_solv.prm

>  <Rbt.Receptor>
prm/blind_docking_40.prm

>  <SCORE>
-11.6452

>  <SCORE.INTER>
-11.6452

>  <SCORE.INTER.CONST>
1

>  <SCORE.INTER.POLAR>
0

>  <SCORE.INTER.ROT>
0

>  <SCORE.INTER.SOLV>
2.64247

>  <SCORE.INTER.VDW>
-12.2443

>  <SCORE.INTER.norm>
-1.16452

>  <SCORE.INTRA>
0

>  <SCORE.INTRA.DIHEDRAL>
0

>  <SCORE.INTRA.DIHEDRAL.0>
0

>  <SCORE.INTRA.POLAR>
0

>  <SCORE.INTRA.POLAR.0>
0

>  <SCORE.INTRA.REPUL>
0

>  <SCORE.INTRA.REPUL.0>
0

>  <SCORE.INTRA.SOLV>
0

>  <SCORE.INTRA.SOLV.lig_0>
-23.9151

>  <SCORE.INTRA.VDW>
0

>  <SCORE.INTRA.VDW.0>
0

>  <SCORE.INTRA.norm>
0

>  <SCORE.RESTR>
0

>  <SCORE.RESTR.CAVITY>
0

>  <SCORE.RESTR.norm>
0

>  <SCORE.SYSTEM>
0

>  <SCORE.SYSTEM.CONST>
0

>  <SCORE.SYSTEM.DIHEDRAL>
0

>  <SCORE.SYSTEM.SOLV>
0

>  <SCORE.SYSTEM.norm>
0

>  <SCORE.heavy>
10

>  <SCORE.norm>
-1.16452

>  <RMSD>
12.038

$$$$
ligand
 OpenBabel11021811503D
libRbt.so/2013.1/901 2013/11/27
 10 11  0  0  0  0  0  0  0  0999 V2000
   -5.6707  -30.6814   27.0996 N   0  0  0  0  0  0  0  0  0  0  0  0
   -5.2090  -31.2296   25.9738 C   0  0  0  0  0  0  0  0  0  0  0  0
   -3.9577  -31.2531   25.4984 N   0  0  0  0  0  0  0  0  0  0  0  0
   -3.1259  -30.5951   26.3284 C   0  0  0  0  0  0  0  0  0  0  0  0
   -3.4530  -29.9783   27.5210 C   0  0  0  0  0  0  0  0  0  0  0  0
   -4.8042  -30.0330   27.9170 C   0  0  0  0  0  0  0  0  0  0  0  0
   -5.2590  -29.4678   29.0469 N   0  0  0  0  0  0  0  0  0  0  0  0
   -2.3376  -29.4096   28.1081 N   0  0  0  0  0  0  0  0  0  0  0  0
   -1.3670  -29.6918   27.2798 C   0  0  0  0  0  0  0  0  0  0  0  0
   -1.7739  -30.3981   26.1791 N   0  0  0  0  0  0  0  0  0  0  0  0
  1  2  2  0  0  0  0
  1  6  1  0  0  0  0
  2  3  1  0  0  0  0
  3  4  2  0  0  0  0
  4  5  1  0  0  0  0
  4 10  1  0  0  0  0
  5  6  2  0  0  0  0
  5  8  1  0  0  0  0
  6  7  1  0  0  0  0
  8  9  1  0  0  0  0
  9 10  2  0  0  0  0
M  END
>  <CHROM.1>
-3.70376265,-30.27132923,27.10220565,3.05905324,0.17718828,1.04787651

>  <Name>
ligand

>  <RI>
0

>  <Rbt.Current_Directory>
/home/itssahil/PROJECTS/Mol_Feturizer/New_Systems/rnas/4LW0

>  <Rbt.Executable>
rbdock ($Id: //depot/dev/client3/rdock/2013.1/src/exe/rbdock.cxx#4 $)

>  <Rbt.Library>
libRbt.so (2013.1, Build901 2013/11/27)

>  <Rbt.Parameter_File>
/export/apps/rDock/src/rDock_2013.1_src/data/scripts/dock_solv.prm

>  <Rbt.Receptor>
prm/blind_docking_80.prm

>  <SCORE>
-13.6299

>  <SCORE.INTER>
-13.6318

>  <SCORE.INTER.CONST>
1

>  <SCORE.INTER.POLAR>
0

>  <SCORE.INTER.ROT>
0

>  <SCORE.INTER.SOLV>
7.36607

>  <SCORE.INTER.VDW>
-15.1432

>  <SCORE.INTER.norm>
-1.36318

>  <SCORE.INTRA>
0

>  <SCORE.INTRA.DIHEDRAL>
0

>  <SCORE.INTRA.DIHEDRAL.0>
0

>  <SCORE.INTRA.POLAR>
0

>  <SCORE.INTRA.POLAR.0>
0

>  <SCORE.INTRA.REPUL>
0

>  <SCORE.INTRA.REPUL.0>
0

>  <SCORE.INTRA.SOLV>
0

>  <SCORE.INTRA.SOLV.lig_0>
-23.9151

>  <SCORE.INTRA.VDW>
0

>  <SCORE.INTRA.VDW.0>
0

>  <SCORE.INTRA.norm>
0

>  <SCORE.RESTR>
0.00188867

>  <SCORE.RESTR.CAVITY>
0.00188867

>  <SCORE.RESTR.norm>
0.000188867

>  <SCORE.SYSTEM>
0

>  <SCORE.SYSTEM.CONST>
0

>  <SCORE.SYSTEM.DIHEDRAL>
0

>  <SCORE.SYSTEM.SOLV>
0

>  <SCORE.SYSTEM.norm>
0

>  <SCORE.heavy>
10

>  <SCORE.norm>
-1.36299

>  <RMSD>
12.038

$$$$
ligand
 OpenBabel11021811503D
libRbt.so/2013.1/901 2013/11/27
 10 11  0  0  0  0  0  0  0  0999 V2000
   -5.6860  -30.6007   27.1333 N   0  0  0  0  0  0  0  0  0  0  0  0
   -5.2553  -31.1874   26.0147 C   0  0  0  0  0  0  0  0  0  0  0  0
   -4.0096  -31.2700   25.5314 N   0  0  0  0  0  0  0  0  0  0  0  0
   -3.1458  -30.6312   26.3434 C   0  0  0  0  0  0  0  0  0  0  0  0
   -3.4388  -29.9801   27.5266 C   0  0  0  0  0  0  0  0  0  0  0  0
   -4.7880  -29.9730   27.9327 C   0  0  0  0  0  0  0  0  0  0  0  0
   -5.2112  -29.3694   29.0551 N   0  0  0  0  0  0  0  0  0  0  0  0
   -2.2970  -29.4463   28.0955 N   0  0  0  0  0  0  0  0  0  0  0  0
   -1.3448  -29.7825   27.2659 C   0  0  0  0  0  0  0  0  0  0  0  0
   -1.7881  -30.4916   26.1813 N   0  0  0  0  0  0  0  0  0  0  0  0
  1  2  2  0  0  0  0
  1  6  1  0  0  0  0
  2  3  1  0  0  0  0
  3  4  2  0  0  0  0
  4  5  1  0  0  0  0
  4 10  1  0  0  0  0
  5  6  2  0  0  0  0
  5  8  1  0  0  0  0
  6  7  1  0  0  0  0
  8  9  1  0  0  0  0
  9 10  2  0  0  0  0
M  END
>  <CHROM.1>
-3.70427776,-30.27034562,27.11500276,3.03213182,0.14602780,1.03386404

>  <Name>
ligand

>  <RI>
0

>  <Rbt.Current_Directory>
/home/itssahil/PROJECTS/Mol_Feturizer/New_Systems/rnas/4LW0

>  <Rbt.Executable>
rbdock ($Id: //depot/dev/client3/rdock/2013.1/src/exe/rbdock.cxx#4 $)

>  <Rbt.Library>
libRbt.so (2013.1, Build901 2013/11/27)

>  <Rbt.Parameter_File>
/export/apps/rDock/src/rDock_2013.1_src/data/scripts/dock_solv.prm

>  <Rbt.Receptor>
prm/blind_docking_100.prm

>  <SCORE>
-13.5983

>  <SCORE.INTER>
-13.5987

>  <SCORE.INTER.CONST>
1

>  <SCORE.INTER.POLAR>
0

>  <SCORE.INTER.ROT>
0

>  <SCORE.INTER.SOLV>
7.26585

>  <SCORE.INTER.VDW>
-15.0878

>  <SCORE.INTER.norm>
-1.35987

>  <SCORE.INTRA>
0

>  <SCORE.INTRA.DIHEDRAL>
0

>  <SCORE.INTRA.DIHEDRAL.0>
0

>  <SCORE.INTRA.POLAR>
0

>  <SCORE.INTRA.POLAR.0>
0

>  <SCORE.INTRA.REPUL>
0

>  <SCORE.INTRA.REPUL.0>
0

>  <SCORE.INTRA.SOLV>
0

>  <SCORE.INTRA.SOLV.lig_0>
-23.9151

>  <SCORE.INTRA.VDW>
0

>  <SCORE.INTRA.VDW.0>
0

>  <SCORE.INTRA.norm>
0

>  <SCORE.RESTR>
0.000407388

>  <SCORE.RESTR.CAVITY>
0.000407388

>  <SCORE.RESTR.norm>
4.07388e-05

>  <SCORE.SYSTEM>
0

>  <SCORE.SYSTEM.CONST>
0

>  <SCORE.SYSTEM.DIHEDRAL>
0

>  <SCORE.SYSTEM.SOLV>
0

>  <SCORE.SYSTEM.norm>
0

>  <SCORE.heavy>
10

>  <SCORE.norm>
-1.35983

>  <RMSD>
12.040

$$$$
ligand
 OpenBabel11021811503D
libRbt.so/2013.1/901 2013/11/27
 10 11  0  0  0  0  0  0  0  0999 V2000
   -5.6866  -30.6267   27.1291 N   0  0  0  0  0  0  0  0  0  0  0  0
   -5.2499  -31.1984   26.0051 C   0  0  0  0  0  0  0  0  0  0  0  0
   -4.0041  -31.2592   25.5185 N   0  0  0  0  0  0  0  0  0  0  0  0
   -3.1479  -30.6142   26.3336 C   0  0  0  0  0  0  0  0  0  0  0  0
   -3.4477  -29.9766   27.5224 C   0  0  0  0  0  0  0  0  0  0  0  0
   -4.7960  -29.9922   27.9314 C   0  0  0  0  0  0  0  0  0  0  0  0
   -5.2254  -29.4036   29.0593 N   0  0  0  0  0  0  0  0  0  0  0  0
   -2.3125  -29.4307   28.0931 N   0  0  0  0  0  0  0  0  0  0  0  0
   -1.3574  -29.7466   27.2589 C   0  0  0  0  0  0  0  0  0  0  0  0
   -1.7927  -30.4537   26.1698 N   0  0  0  0  0  0  0  0  0  0  0  0
  1  2  2  0  0  0  0
  1  6  1  0  0  0  0
  2  3  1  0  0  0  0
  3  4  2  0  0  0  0
  4  5  1  0  0  0  0
  4 10  1  0  0  0  0
  5  6  2  0  0  0  0
  5  8  1  0  0  0  0
  6  7  1  0  0  0  0
  8  9  1  0  0  0  0
  9 10  2  0  0  0  0
M  END
>  <CHROM.1>
-3.70984511,-30.26746406,27.10917240,3.03772803,0.15962387,1.04074728

>  <Name>
ligand

>  <RI>
0

>  <Rbt.Current_Directory>
/home/itssahil/PROJECTS/Mol_Feturizer/New_Systems/rnas/4LW0

>  <Rbt.Executable>
rbdock ($Id: //depot/dev/client3/rdock/2013.1/src/exe/rbdock.cxx#4 $)

>  <Rbt.Library>
libRbt.so (2013.1, Build901 2013/11/27)

>  <Rbt.Parameter_File>
/export/apps/rDock/src/rDock_2013.1_src/data/scripts/dock_solv.prm

>  <Rbt.Receptor>
prm/blind_docking_60.prm

>  <SCORE>
-13.6281

>  <SCORE.INTER>
-13.6288

>  <SCORE.INTER.CONST>
1

>  <SCORE.INTER.POLAR>
0

>  <SCORE.INTER.ROT>
0

>  <SCORE.INTER.SOLV>
7.27627

>  <SCORE.INTER.VDW>
-15.1113

>  <SCORE.INTER.norm>
-1.36288

>  <SCORE.INTRA>
0

>  <SCORE.INTRA.DIHEDRAL>
0

>  <SCORE.INTRA.DIHEDRAL.0>
0

>  <SCORE.INTRA.POLAR>
0

>  <SCORE.INTRA.POLAR.0>
0

>  <SCORE.INTRA.REPUL>
0

>  <SCORE.INTRA.REPUL.0>
0

>  <SCORE.INTRA.SOLV>
0

>  <SCORE.INTRA.SOLV.lig_0>
-23.9151

>  <SCORE.INTRA.VDW>
0

>  <SCORE.INTRA.VDW.0>
0

>  <SCORE.INTRA.norm>
0

>  <SCORE.RESTR>
0.000695438

>  <SCORE.RESTR.CAVITY>
0.000695438

>  <SCORE.RESTR.norm>
6.95438e-05

>  <SCORE.SYSTEM>
0

>  <SCORE.SYSTEM.CONST>
0

>  <SCORE.SYSTEM.DIHEDRAL>
0

>  <SCORE.SYSTEM.SOLV>
0

>  <SCORE.SYSTEM.norm>
0

>  <SCORE.heavy>
10

>  <SCORE.norm>
-1.36281

>  <RMSD>
12.040

$$$$
ligand
 OpenBabel11021811503D
libRbt.so/2013.1/901 2013/11/27
 10 11  0  0  0  0  0  0  0  0999 V2000
   -5.6851  -30.6312   27.1322 N   0  0  0  0  0  0  0  0  0  0  0  0
   -5.2528  -31.1992   26.0046 C   0  0  0  0  0  0  0  0  0  0  0  0
   -4.0092  -31.2568   25.5121 N   0  0  0  0  0  0  0  0  0  0  0  0
   -3.1501  -30.6128   26.3250 C   0  0  0  0  0  0  0  0  0  0  0  0
   -3.4454  -29.9791   27.5170 C   0  0  0  0  0  0  0  0  0  0  0  0
   -4.7917  -29.9978   27.9322 C   0  0  0  0  0  0  0  0  0  0  0  0
   -5.2166  -29.4129   29.0637 N   0  0  0  0  0  0  0  0  0  0  0  0
   -2.3083  -29.4331   28.0839 N   0  0  0  0  0  0  0  0  0  0  0  0
   -1.3566  -29.7452   27.2444 C   0  0  0  0  0  0  0  0  0  0  0  0
   -1.7960  -30.4499   26.1553 N   0  0  0  0  0  0  0  0  0  0  0  0
  1  2  2  0  0  0  0
  1  6  1  0  0  0  0
  2  3  1  0  0  0  0
  3  4  2  0  0  0  0
  4  5  1  0  0  0  0
  4 10  1  0  0  0  0
  5  6  2  0  0  0  0
  5  8  1  0  0  0  0
  6  7  1  0  0  0  0
  8  9  1  0  0  0  0
  9 10  2  0  0  0  0
M  END
>  <CHROM.1>
-3.70898178,-30.26911969,27.10413136,3.03439255,0.16321356,1.04409472

>  <Name>
ligand

>  <RI>
0

>  <Rbt.Current_Directory>
/home/itssahil/PROJECTS/Mol_Feturizer/New_Systems/rnas/4LW0

>  <Rbt.Executable>
rbdock ($Id: //depot/dev/client3/rdock/2013.1/src/exe/rbdock.cxx#4 $)

>  <Rbt.Library>
libRbt.so (2013.1, Build901 2013/11/27)

>  <Rbt.Parameter_File>
/export/apps/rDock/src/rDock_2013.1_src/data/scripts/dock_solv.prm

>  <Rbt.Receptor>
prm/blind_docking_80.prm

>  <SCORE>
-13.6243

>  <SCORE.INTER>
-13.6264

>  <SCORE.INTER.CONST>
1

>  <SCORE.INTER.POLAR>
0

>  <SCORE.INTER.ROT>
0

>  <SCORE.INTER.SOLV>
7.26956

>  <SCORE.INTER.VDW>
-15.1074

>  <SCORE.INTER.norm>
-1.36264

>  <SCORE.INTRA>
0

>  <SCORE.INTRA.DIHEDRAL>
0

>  <SCORE.INTRA.DIHEDRAL.0>
0

>  <SCORE.INTRA.POLAR>
0

>  <SCORE.INTRA.POLAR.0>
0

>  <SCORE.INTRA.REPUL>
0

>  <SCORE.INTRA.REPUL.0>
0

>  <SCORE.INTRA.SOLV>
0

>  <SCORE.INTRA.SOLV.lig_0>
-23.9151

>  <SCORE.INTRA.VDW>
0

>  <SCORE.INTRA.VDW.0>
0

>  <SCORE.INTRA.norm>
0

>  <SCORE.RESTR>
0.00211639

>  <SCORE.RESTR.CAVITY>
0.00211639

>  <SCORE.RESTR.norm>
0.000211639

>  <SCORE.SYSTEM>
0

>  <SCORE.SYSTEM.CONST>
0

>  <SCORE.SYSTEM.DIHEDRAL>
0

>  <SCORE.SYSTEM.SOLV>
0

>  <SCORE.SYSTEM.norm>
0

>  <SCORE.heavy>
10

>  <SCORE.norm>
-1.36243

>  <RMSD>
12.041

$$$$
ligand
 OpenBabel11021811503D
libRbt.so/2013.1/901 2013/11/27
 10 11  0  0  0  0  0  0  0  0999 V2000
    3.3824  -25.3442   14.5650 N   0  0  0  0  0  0  0  0  0  0  0  0
    3.1045  -25.1613   15.8574 C   0  0  0  0  0  0  0  0  0  0  0  0
    1.9193  -25.1989   16.4788 N   0  0  0  0  0  0  0  0  0  0  0  0
    0.9320  -25.4441   15.5963 C   0  0  0  0  0  0  0  0  0  0  0  0
    1.0615  -25.6524   14.2363 C   0  0  0  0  0  0  0  0  0  0  0  0
    2.3652  -25.5974   13.7045 C   0  0  0  0  0  0  0  0  0  0  0  0
    2.6313  -25.7721   12.4000 N   0  0  0  0  0  0  0  0  0  0  0  0
   -0.1695  -25.8836   13.6501 N   0  0  0  0  0  0  0  0  0  0  0  0
   -1.0108  -25.8199   14.6481 C   0  0  0  0  0  0  0  0  0  0  0  0
   -0.4146  -25.5487   15.8509 N   0  0  0  0  0  0  0  0  0  0  0  0
  1  2  2  0  0  0  0
  1  6  1  0  0  0  0
  2  3  1  0  0  0  0
  3  4  2  0  0  0  0
  4  5  1  0  0  0  0
  4 10  1  0  0  0  0
  5  6  2  0  0  0  0
  5  8  1  0  0  0  0
  6  7  1  0  0  0  0
  8  9  1  0  0  0  0
  9 10  2  0  0  0  0
M  END
>  <CHROM.1>
1.38700498,-25.54282309,14.69030349,-0.23159922,0.10874254,1.41049994

>  <Name>
ligand

>  <RI>
0

>  <Rbt.Current_Directory>
/home/itssahil/PROJECTS/Mol_Feturizer/New_Systems/rnas/4LW0

>  <Rbt.Executable>
rbdock ($Id: //depot/dev/client3/rdock/2013.1/src/exe/rbdock.cxx#4 $)

>  <Rbt.Library>
libRbt.so (2013.1, Build901 2013/11/27)

>  <Rbt.Parameter_File>
/export/apps/rDock/src/rDock_2013.1_src/data/scripts/dock_solv.prm

>  <Rbt.Receptor>
prm/blind_docking_40.prm

>  <SCORE>
-11.6556

>  <SCORE.INTER>
-11.6556

>  <SCORE.INTER.CONST>
1

>  <SCORE.INTER.POLAR>
0

>  <SCORE.INTER.ROT>
0

>  <SCORE.INTER.SOLV>
2.65112

>  <SCORE.INTER.VDW>
-12.2541

>  <SCORE.INTER.norm>
-1.16556

>  <SCORE.INTRA>
0

>  <SCORE.INTRA.DIHEDRAL>
0

>  <SCORE.INTRA.DIHEDRAL.0>
0

>  <SCORE.INTRA.POLAR>
0

>  <SCORE.INTRA.POLAR.0>
0

>  <SCORE.INTRA.REPUL>
0

>  <SCORE.INTRA.REPUL.0>
0

>  <SCORE.INTRA.SOLV>
0

>  <SCORE.INTRA.SOLV.lig_0>
-23.9151

>  <SCORE.INTRA.VDW>
0

>  <SCORE.INTRA.VDW.0>
0

>  <SCORE.INTRA.norm>
0

>  <SCORE.RESTR>
0

>  <SCORE.RESTR.CAVITY>
0

>  <SCORE.RESTR.norm>
0

>  <SCORE.SYSTEM>
0

>  <SCORE.SYSTEM.CONST>
0

>  <SCORE.SYSTEM.DIHEDRAL>
0

>  <SCORE.SYSTEM.SOLV>
0

>  <SCORE.SYSTEM.norm>
0

>  <SCORE.heavy>
10

>  <SCORE.norm>
-1.16556

>  <RMSD>
12.043

$$$$
ligand
 OpenBabel11021811503D
libRbt.so/2013.1/901 2013/11/27
 10 11  0  0  0  0  0  0  0  0999 V2000
    3.3639  -25.3234   14.5313 N   0  0  0  0  0  0  0  0  0  0  0  0
    3.1046  -25.1623   15.8305 C   0  0  0  0  0  0  0  0  0  0  0  0
    1.9286  -25.2118   16.4684 N   0  0  0  0  0  0  0  0  0  0  0  0
    0.9289  -25.4436   15.5964 C   0  0  0  0  0  0  0  0  0  0  0  0
    1.0387  -25.6291   14.2314 C   0  0  0  0  0  0  0  0  0  0  0  0
    2.3345  -25.5637   13.6817 C   0  0  0  0  0  0  0  0  0  0  0  0
    2.5817  -25.7163   12.3707 N   0  0  0  0  0  0  0  0  0  0  0  0
   -0.2004  -25.8521   13.6593 N   0  0  0  0  0  0  0  0  0  0  0  0
   -1.0272  -25.8060   14.6704 C   0  0  0  0  0  0  0  0  0  0  0  0
   -0.4138  -25.5541   15.8688 N   0  0  0  0  0  0  0  0  0  0  0  0
  1  2  2  0  0  0  0
  1  6  1  0  0  0  0
  2  3  1  0  0  0  0
  3  4  2  0  0  0  0
  4  5  1  0  0  0  0
  4 10  1  0  0  0  0
  5  6  2  0  0  0  0
  5  8  1  0  0  0  0
  6  7  1  0  0  0  0
  8  9  1  0  0  0  0
  9 10  2  0  0  0  0
M  END
>  <CHROM.1>
1.37069063,-25.52663791,14.68235635,-0.24590407,0.11206472,1.42866240

>  <Name>
ligand

>  <RI>
0

>  <Rbt.Current_Directory>
/home/itssahil/PROJECTS/Mol_Feturizer/New_Systems/rnas/4LW0

>  <Rbt.Executable>
rbdock ($Id: //depot/dev/client3/rdock/2013.1/src/exe/rbdock.cxx#4 $)

>  <Rbt.Library>
libRbt.so (2013.1, Build901 2013/11/27)

>  <Rbt.Parameter_File>
/export/apps/rDock/src/rDock_2013.1_src/data/scripts/dock_solv.prm

>  <Rbt.Receptor>
prm/blind_docking_40.prm

>  <SCORE>
-11.6723

>  <SCORE.INTER>
-11.6723

>  <SCORE.INTER.CONST>
1

>  <SCORE.INTER.POLAR>
0

>  <SCORE.INTER.ROT>
0

>  <SCORE.INTER.SOLV>
2.70685

>  <SCORE.INTER.VDW>
-12.2838

>  <SCORE.INTER.norm>
-1.16723

>  <SCORE.INTRA>
0

>  <SCORE.INTRA.DIHEDRAL>
0

>  <SCORE.INTRA.DIHEDRAL.0>
0

>  <SCORE.INTRA.POLAR>
0

>  <SCORE.INTRA.POLAR.0>
0

>  <SCORE.INTRA.REPUL>
0

>  <SCORE.INTRA.REPUL.0>
0

>  <SCORE.INTRA.SOLV>
0

>  <SCORE.INTRA.SOLV.lig_0>
-23.9151

>  <SCORE.INTRA.VDW>
0

>  <SCORE.INTRA.VDW.0>
0

>  <SCORE.INTRA.norm>
0

>  <SCORE.RESTR>
0

>  <SCORE.RESTR.CAVITY>
0

>  <SCORE.RESTR.norm>
0

>  <SCORE.SYSTEM>
0

>  <SCORE.SYSTEM.CONST>
0

>  <SCORE.SYSTEM.DIHEDRAL>
0

>  <SCORE.SYSTEM.SOLV>
0

>  <SCORE.SYSTEM.norm>
0

>  <SCORE.heavy>
10

>  <SCORE.norm>
-1.16723

>  <RMSD>
12.044

$$$$
ligand
 OpenBabel11021811503D
libRbt.so/2013.1/901 2013/11/27
 10 11  0  0  0  0  0  0  0  0999 V2000
    3.3837  -25.3399   14.5595 N   0  0  0  0  0  0  0  0  0  0  0  0
    3.1079  -25.1576   15.8525 C   0  0  0  0  0  0  0  0  0  0  0  0
    1.9240  -25.1983   16.4763 N   0  0  0  0  0  0  0  0  0  0  0  0
    0.9357  -25.4461   15.5958 C   0  0  0  0  0  0  0  0  0  0  0  0
    1.0629  -25.6542   14.2356 C   0  0  0  0  0  0  0  0  0  0  0  0
    2.3654  -25.5959   13.7012 C   0  0  0  0  0  0  0  0  0  0  0  0
    2.6292  -25.7699   12.3961 N   0  0  0  0  0  0  0  0  0  0  0  0
   -0.1687  -25.8886   13.6519 N   0  0  0  0  0  0  0  0  0  0  0  0
   -1.0081  -25.8270   14.6516 C   0  0  0  0  0  0  0  0  0  0  0  0
   -0.4101  -25.5542   15.8532 N   0  0  0  0  0  0  0  0  0  0  0  0
  1  2  2  0  0  0  0
  1  6  1  0  0  0  0
  2  3  1  0  0  0  0
  3  4  2  0  0  0  0
  4  5  1  0  0  0  0
  4 10  1  0  0  0  0
  5  6  2  0  0  0  0
  5  8  1  0  0  0  0
  6  7  1  0  0  0  0
  8  9  1  0  0  0  0
  9 10  2  0  0  0  0
M  END
>  <CHROM.1>
1.38904710,-25.54371846,14.68893506,-0.23320078,0.11163263,1.41059348

>  <Name>
ligand

>  <RI>
0

>  <Rbt.Current_Directory>
/home/itssahil/PROJECTS/Mol_Feturizer/New_Systems/rnas/4LW0

>  <Rbt.Executable>
rbdock ($Id: //depot/dev/client3/rdock/2013.1/src/exe/rbdock.cxx#4 $)

>  <Rbt.Library>
libRbt.so (2013.1, Build901 2013/11/27)

>  <Rbt.Parameter_File>
/export/apps/rDock/src/rDock_2013.1_src/data/scripts/dock_solv.prm

>  <Rbt.Receptor>
prm/blind_docking_60.prm

>  <SCORE>
-11.6535

>  <SCORE.INTER>
-11.6535

>  <SCORE.INTER.CONST>
1

>  <SCORE.INTER.POLAR>
0

>  <SCORE.INTER.ROT>
0

>  <SCORE.INTER.SOLV>
2.65204

>  <SCORE.INTER.VDW>
-12.253

>  <SCORE.INTER.norm>
-1.16535

>  <SCORE.INTRA>
0

>  <SCORE.INTRA.DIHEDRAL>
0

>  <SCORE.INTRA.DIHEDRAL.0>
0

>  <SCORE.INTRA.POLAR>
0

>  <SCORE.INTRA.POLAR.0>
0

>  <SCORE.INTRA.REPUL>
0

>  <SCORE.INTRA.REPUL.0>
0

>  <SCORE.INTRA.SOLV>
0

>  <SCORE.INTRA.SOLV.lig_0>
-23.9151

>  <SCORE.INTRA.VDW>
0

>  <SCORE.INTRA.VDW.0>
0

>  <SCORE.INTRA.norm>
0

>  <SCORE.RESTR>
0

>  <SCORE.RESTR.CAVITY>
0

>  <SCORE.RESTR.norm>
0

>  <SCORE.SYSTEM>
0

>  <SCORE.SYSTEM.CONST>
0

>  <SCORE.SYSTEM.DIHEDRAL>
0

>  <SCORE.SYSTEM.SOLV>
0

>  <SCORE.SYSTEM.norm>
0

>  <SCORE.heavy>
10

>  <SCORE.norm>
-1.16535

>  <RMSD>
12.044

$$$$
ligand
 OpenBabel11021811503D
libRbt.so/2013.1/901 2013/11/27
 10 11  0  0  0  0  0  0  0  0999 V2000
    3.3687  -25.3195   14.5286 N   0  0  0  0  0  0  0  0  0  0  0  0
    3.1099  -25.1470   15.8264 C   0  0  0  0  0  0  0  0  0  0  0  0
    1.9351  -25.1979   16.4662 N   0  0  0  0  0  0  0  0  0  0  0  0
    0.9359  -25.4453   15.5979 C   0  0  0  0  0  0  0  0  0  0  0  0
    1.0453  -25.6439   14.2347 C   0  0  0  0  0  0  0  0  0  0  0  0
    2.3399  -25.5753   13.6827 C   0  0  0  0  0  0  0  0  0  0  0  0
    2.5866  -25.7396   12.3730 N   0  0  0  0  0  0  0  0  0  0  0  0
   -0.1930  -25.8810   13.6665 N   0  0  0  0  0  0  0  0  0  0  0  0
   -1.0188  -25.8302   14.6781 C   0  0  0  0  0  0  0  0  0  0  0  0
   -0.4056  -25.5621   15.8731 N   0  0  0  0  0  0  0  0  0  0  0  0
  1  2  2  0  0  0  0
  1  6  1  0  0  0  0
  2  3  1  0  0  0  0
  3  4  2  0  0  0  0
  4  5  1  0  0  0  0
  4 10  1  0  0  0  0
  5  6  2  0  0  0  0
  5  8  1  0  0  0  0
  6  7  1  0  0  0  0
  8  9  1  0  0  0  0
  9 10  2  0  0  0  0
M  END
>  <CHROM.1>
1.37714403,-25.53463063,14.68419091,-0.24615140,0.11891411,1.41856235

>  <Name>
ligand

>  <RI>
0

>  <Rbt.Current_Directory>
/home/itssahil/PROJECTS/Mol_Feturizer/New_Systems/rnas/4LW0

>  <Rbt.Executable>
rbdock ($Id: //depot/dev/client3/rdock/2013.1/src/exe/rbdock.cxx#4 $)

>  <Rbt.Library>
libRbt.so (2013.1, Build901 2013/11/27)

>  <Rbt.Parameter_File>
/export/apps/rDock/src/rDock_2013.1_src/data/scripts/dock_solv.prm

>  <Rbt.Receptor>
prm/blind_docking_40.prm

>  <SCORE>
-11.6609

>  <SCORE.INTER>
-11.6609

>  <SCORE.INTER.CONST>
1

>  <SCORE.INTER.POLAR>
0

>  <SCORE.INTER.ROT>
0

>  <SCORE.INTER.SOLV>
2.68855

>  <SCORE.INTER.VDW>
-12.2701

>  <SCORE.INTER.norm>
-1.16609

>  <SCORE.INTRA>
0

>  <SCORE.INTRA.DIHEDRAL>
0

>  <SCORE.INTRA.DIHEDRAL.0>
0

>  <SCORE.INTRA.POLAR>
0

>  <SCORE.INTRA.POLAR.0>
0

>  <SCORE.INTRA.REPUL>
0

>  <SCORE.INTRA.REPUL.0>
0

>  <SCORE.INTRA.SOLV>
0

>  <SCORE.INTRA.SOLV.lig_0>
-23.9151

>  <SCORE.INTRA.VDW>
0

>  <SCORE.INTRA.VDW.0>
0

>  <SCORE.INTRA.norm>
0

>  <SCORE.RESTR>
0

>  <SCORE.RESTR.CAVITY>
0

>  <SCORE.RESTR.norm>
0

>  <SCORE.SYSTEM>
0

>  <SCORE.SYSTEM.CONST>
0

>  <SCORE.SYSTEM.DIHEDRAL>
0

>  <SCORE.SYSTEM.SOLV>
0

>  <SCORE.SYSTEM.norm>
0

>  <SCORE.heavy>
10

>  <SCORE.norm>
-1.16609

>  <RMSD>
12.045

$$$$
ligand
 OpenBabel11021811503D
libRbt.so/2013.1/901 2013/11/27
 10 11  0  0  0  0  0  0  0  0999 V2000
    3.3841  -25.3282   14.5449 N   0  0  0  0  0  0  0  0  0  0  0  0
    3.1155  -25.1456   15.8393 C   0  0  0  0  0  0  0  0  0  0  0  0
    1.9359  -25.1920   16.4708 N   0  0  0  0  0  0  0  0  0  0  0  0
    0.9433  -25.4465   15.5969 C   0  0  0  0  0  0  0  0  0  0  0  0
    1.0631  -25.6557   14.2362 C   0  0  0  0  0  0  0  0  0  0  0  0
    2.3617  -25.5910   13.6934 C   0  0  0  0  0  0  0  0  0  0  0  0
    2.6183  -25.7654   12.3869 N   0  0  0  0  0  0  0  0  0  0  0  0
   -0.1709  -25.8977   13.6606 N   0  0  0  0  0  0  0  0  0  0  0  0
   -1.0043  -25.8394   14.6656 C   0  0  0  0  0  0  0  0  0  0  0  0
   -0.4002  -25.5616   15.8630 N   0  0  0  0  0  0  0  0  0  0  0  0
  1  2  2  0  0  0  0
  1  6  1  0  0  0  0
  2  3  1  0  0  0  0
  3  4  2  0  0  0  0
  4  5  1  0  0  0  0
  4 10  1  0  0  0  0
  5  6  2  0  0  0  0
  5  8  1  0  0  0  0
  6  7  1  0  0  0  0
  8  9  1  0  0  0  0
  9 10  2  0  0  0  0
M  END
>  <CHROM.1>
1.39146614,-25.54282879,14.68727170,-0.23863467,0.11809411,1.40984193

>  <Name>
ligand

>  <RI>
0

>  <Rbt.Current_Directory>
/home/itssahil/PROJECTS/Mol_Feturizer/New_Systems/rnas/4LW0

>  <Rbt.Executable>
rbdock ($Id: //depot/dev/client3/rdock/2013.1/src/exe/rbdock.cxx#4 $)

>  <Rbt.Library>
libRbt.so (2013.1, Build901 2013/11/27)

>  <Rbt.Parameter_File>
/export/apps/rDock/src/rDock_2013.1_src/data/scripts/dock_solv.prm

>  <Rbt.Receptor>
prm/blind_docking_40.prm

>  <SCORE>
-11.6387

>  <SCORE.INTER>
-11.6387

>  <SCORE.INTER.CONST>
1

>  <SCORE.INTER.POLAR>
0

>  <SCORE.INTER.ROT>
0

>  <SCORE.INTER.SOLV>
2.65922

>  <SCORE.INTER.VDW>
-12.2456

>  <SCORE.INTER.norm>
-1.16387

>  <SCORE.INTRA>
0

>  <SCORE.INTRA.DIHEDRAL>
0

>  <SCORE.INTRA.DIHEDRAL.0>
0

>  <SCORE.INTRA.POLAR>
0

>  <SCORE.INTRA.POLAR.0>
0

>  <SCORE.INTRA.REPUL>
0

>  <SCORE.INTRA.REPUL.0>
0

>  <SCORE.INTRA.SOLV>
0

>  <SCORE.INTRA.SOLV.lig_0>
-23.9151

>  <SCORE.INTRA.VDW>
0

>  <SCORE.INTRA.VDW.0>
0

>  <SCORE.INTRA.norm>
0

>  <SCORE.RESTR>
0

>  <SCORE.RESTR.CAVITY>
0

>  <SCORE.RESTR.norm>
0

>  <SCORE.SYSTEM>
0

>  <SCORE.SYSTEM.CONST>
0

>  <SCORE.SYSTEM.DIHEDRAL>
0

>  <SCORE.SYSTEM.SOLV>
0

>  <SCORE.SYSTEM.norm>
0

>  <SCORE.heavy>
10

>  <SCORE.norm>
-1.16387

>  <RMSD>
12.045

$$$$
ligand
 OpenBabel11021811503D
libRbt.so/2013.1/901 2013/11/27
 10 11  0  0  0  0  0  0  0  0999 V2000
    3.3918  -25.3691   14.5397 N   0  0  0  0  0  0  0  0  0  0  0  0
    3.1273  -25.1804   15.8341 C   0  0  0  0  0  0  0  0  0  0  0  0
    1.9476  -25.2070   16.4666 N   0  0  0  0  0  0  0  0  0  0  0  0
    0.9504  -25.4470   15.5939 C   0  0  0  0  0  0  0  0  0  0  0  0
    1.0656  -25.6601   14.2334 C   0  0  0  0  0  0  0  0  0  0  0  0
    2.3647  -25.6168   13.6894 C   0  0  0  0  0  0  0  0  0  0  0  0
    2.6173  -25.7972   12.3830 N   0  0  0  0  0  0  0  0  0  0  0  0
   -0.1725  -25.8832   13.6593 N   0  0  0  0  0  0  0  0  0  0  0  0
   -1.0040  -25.8101   14.6648 C   0  0  0  0  0  0  0  0  0  0  0  0
   -0.3945  -25.5403   15.8613 N   0  0  0  0  0  0  0  0  0  0  0  0
  1  2  2  0  0  0  0
  1  6  1  0  0  0  0
  2  3  1  0  0  0  0
  3  4  2  0  0  0  0
  4  5  1  0  0  0  0
  4 10  1  0  0  0  0
  5  6  2  0  0  0  0
  5  8  1  0  0  0  0
  6  7  1  0  0  0  0
  8  9  1  0  0  0  0
  9 10  2  0  0  0  0
M  END
>  <CHROM.1>
1.39616122,-25.55175283,14.68407530,-0.24205597,0.10249815,1.40876932

>  <Name>
ligand

>  <RI>
0

>  <Rbt.Current_Directory>
/home/itssahil/PROJECTS/Mol_Feturizer/New_Systems/rnas/4LW0

>  <Rbt.Executable>
rbdock ($Id: //depot/dev/client3/rdock/2013.1/src/exe/rbdock.cxx#4 $)

>  <Rbt.Library>
libRbt.so (2013.1, Build901 2013/11/27)

>  <Rbt.Parameter_File>
/export/apps/rDock/src/rDock_2013.1_src/data/scripts/dock_solv.prm

>  <Rbt.Receptor>
prm/blind_docking_40.prm

>  <SCORE>
-11.6572

>  <SCORE.INTER>
-11.6572

>  <SCORE.INTER.CONST>
1

>  <SCORE.INTER.POLAR>
0

>  <SCORE.INTER.ROT>
0

>  <SCORE.INTER.SOLV>
2.5703

>  <SCORE.INTER.VDW>
-12.2282

>  <SCORE.INTER.norm>
-1.16572

>  <SCORE.INTRA>
0

>  <SCORE.INTRA.DIHEDRAL>
0

>  <SCORE.INTRA.DIHEDRAL.0>
0

>  <SCORE.INTRA.POLAR>
0

>  <SCORE.INTRA.POLAR.0>
0

>  <SCORE.INTRA.REPUL>
0

>  <SCORE.INTRA.REPUL.0>
0

>  <SCORE.INTRA.SOLV>
0

>  <SCORE.INTRA.SOLV.lig_0>
-23.9151

>  <SCORE.INTRA.VDW>
0

>  <SCORE.INTRA.VDW.0>
0

>  <SCORE.INTRA.norm>
0

>  <SCORE.RESTR>
0

>  <SCORE.RESTR.CAVITY>
0

>  <SCORE.RESTR.norm>
0

>  <SCORE.SYSTEM>
0

>  <SCORE.SYSTEM.CONST>
0

>  <SCORE.SYSTEM.DIHEDRAL>
0

>  <SCORE.SYSTEM.SOLV>
0

>  <SCORE.SYSTEM.norm>
0

>  <SCORE.heavy>
10

>  <SCORE.norm>
-1.16572

>  <RMSD>
12.051

$$$$
ligand
 OpenBabel11021811503D
libRbt.so/2013.1/901 2013/11/27
 10 11  0  0  0  0  0  0  0  0999 V2000
    3.4009  -25.3640   14.5367 N   0  0  0  0  0  0  0  0  0  0  0  0
    3.1370  -25.1689   15.8303 C   0  0  0  0  0  0  0  0  0  0  0  0
    1.9585  -25.2002   16.4648 N   0  0  0  0  0  0  0  0  0  0  0  0
    0.9617  -25.4531   15.5952 C   0  0  0  0  0  0  0  0  0  0  0  0
    1.0764  -25.6740   14.2359 C   0  0  0  0  0  0  0  0  0  0  0  0
    2.3743  -25.6247   13.6896 C   0  0  0  0  0  0  0  0  0  0  0  0
    2.6262  -25.8116   12.3840 N   0  0  0  0  0  0  0  0  0  0  0  0
   -0.1609  -25.9100   13.6652 N   0  0  0  0  0  0  0  0  0  0  0  0
   -0.9914  -25.8366   14.6715 C   0  0  0  0  0  0  0  0  0  0  0  0
   -0.3821  -25.5546   15.8653 N   0  0  0  0  0  0  0  0  0  0  0  0
  1  2  2  0  0  0  0
  1  6  1  0  0  0  0
  2  3  1  0  0  0  0
  3  4  2  0  0  0  0
  4  5  1  0  0  0  0
  4 10  1  0  0  0  0
  5  6  2  0  0  0  0
  5  8  1  0  0  0  0
  6  7  1  0  0  0  0
  8  9  1  0  0  0  0
  9 10  2  0  0  0  0
M  END
>  <CHROM.1>
1.40684485,-25.56039309,14.68536100,-0.24237414,0.11002842,1.40239347

>  <Name>
ligand

>  <RI>
0

>  <Rbt.Current_Directory>
/home/itssahil/PROJECTS/Mol_Feturizer/New_Systems/rnas/4LW0

>  <Rbt.Executable>
rbdock ($Id: //depot/dev/client3/rdock/2013.1/src/exe/rbdock.cxx#4 $)

>  <Rbt.Library>
libRbt.so (2013.1, Build901 2013/11/27)

>  <Rbt.Parameter_File>
/export/apps/rDock/src/rDock_2013.1_src/data/scripts/dock_solv.prm

>  <Rbt.Receptor>
prm/blind_docking_80.prm

>  <SCORE>
-11.6385

>  <SCORE.INTER>
-11.6385

>  <SCORE.INTER.CONST>
1

>  <SCORE.INTER.POLAR>
0

>  <SCORE.INTER.ROT>
0

>  <SCORE.INTER.SOLV>
2.56203

>  <SCORE.INTER.VDW>
-12.213

>  <SCORE.INTER.norm>
-1.16385

>  <SCORE.INTRA>
0

>  <SCORE.INTRA.DIHEDRAL>
0

>  <SCORE.INTRA.DIHEDRAL.0>
0

>  <SCORE.INTRA.POLAR>
0

>  <SCORE.INTRA.POLAR.0>
0

>  <SCORE.INTRA.REPUL>
0

>  <SCORE.INTRA.REPUL.0>
0

>  <SCORE.INTRA.SOLV>
0

>  <SCORE.INTRA.SOLV.lig_0>
-23.9151

>  <SCORE.INTRA.VDW>
0

>  <SCORE.INTRA.VDW.0>
0

>  <SCORE.INTRA.norm>
0

>  <SCORE.RESTR>
0

>  <SCORE.RESTR.CAVITY>
0

>  <SCORE.RESTR.norm>
0

>  <SCORE.SYSTEM>
0

>  <SCORE.SYSTEM.CONST>
0

>  <SCORE.SYSTEM.DIHEDRAL>
0

>  <SCORE.SYSTEM.SOLV>
0

>  <SCORE.SYSTEM.norm>
0

>  <SCORE.heavy>
10

>  <SCORE.norm>
-1.16385

>  <RMSD>
12.053

$$$$
ligand
 OpenBabel11021811503D
libRbt.so/2013.1/901 2013/11/27
 10 11  0  0  0  0  0  0  0  0999 V2000
    3.3683  -25.3201   14.5292 N   0  0  0  0  0  0  0  0  0  0  0  0
    3.1046  -25.1531   15.8268 C   0  0  0  0  0  0  0  0  0  0  0  0
    1.9283  -25.2142   16.4632 N   0  0  0  0  0  0  0  0  0  0  0  0
    0.9334  -25.4663   15.5913 C   0  0  0  0  0  0  0  0  0  0  0  0
    1.0481  -25.6604   14.2279 C   0  0  0  0  0  0  0  0  0  0  0  0
    2.3437  -25.5809   13.6797 C   0  0  0  0  0  0  0  0  0  0  0  0
    2.5953  -25.7397   12.3704 N   0  0  0  0  0  0  0  0  0  0  0  0
   -0.1869  -25.9048   13.6555 N   0  0  0  0  0  0  0  0  0  0  0  0
   -1.0159  -25.8628   14.6649 C   0  0  0  0  0  0  0  0  0  0  0  0
   -0.4081  -25.5935   15.8624 N   0  0  0  0  0  0  0  0  0  0  0  0
  1  2  2  0  0  0  0
  1  6  1  0  0  0  0
  2  3  1  0  0  0  0
  3  4  2  0  0  0  0
  4  5  1  0  0  0  0
  4 10  1  0  0  0  0
  5  6  2  0  0  0  0
  5  8  1  0  0  0  0
  6  7  1  0  0  0  0
  8  9  1  0  0  0  0
  9 10  2  0  0  0  0
M  END
>  <CHROM.1>
1.37785317,-25.54996160,14.67860638,-0.24222749,0.12560537,1.42087263

>  <Name>
ligand

>  <RI>
0

>  <Rbt.Current_Directory>
/home/itssahil/PROJECTS/Mol_Feturizer/New_Systems/rnas/4LW0

>  <Rbt.Executable>
rbdock ($Id: //depot/dev/client3/rdock/2013.1/src/exe/rbdock.cxx#4 $)

>  <Rbt.Library>
libRbt.so (2013.1, Build901 2013/11/27)

>  <Rbt.Parameter_File>
/export/apps/rDock/src/rDock_2013.1_src/data/scripts/dock_solv.prm

>  <Rbt.Receptor>
prm/blind_docking_40.prm

>  <SCORE>
-11.6771

>  <SCORE.INTER>
-11.6771

>  <SCORE.INTER.CONST>
1

>  <SCORE.INTER.POLAR>
0

>  <SCORE.INTER.ROT>
0

>  <SCORE.INTER.SOLV>
2.67569

>  <SCORE.INTER.VDW>
-12.2766

>  <SCORE.INTER.norm>
-1.16771

>  <SCORE.INTRA>
0

>  <SCORE.INTRA.DIHEDRAL>
0

>  <SCORE.INTRA.DIHEDRAL.0>
0

>  <SCORE.INTRA.POLAR>
0

>  <SCORE.INTRA.POLAR.0>
0

>  <SCORE.INTRA.REPUL>
0

>  <SCORE.INTRA.REPUL.0>
0

>  <SCORE.INTRA.SOLV>
0

>  <SCORE.INTRA.SOLV.lig_0>
-23.9151

>  <SCORE.INTRA.VDW>
0

>  <SCORE.INTRA.VDW.0>
0

>  <SCORE.INTRA.norm>
0

>  <SCORE.RESTR>
0

>  <SCORE.RESTR.CAVITY>
0

>  <SCORE.RESTR.norm>
0

>  <SCORE.SYSTEM>
0

>  <SCORE.SYSTEM.CONST>
0

>  <SCORE.SYSTEM.DIHEDRAL>
0

>  <SCORE.SYSTEM.SOLV>
0

>  <SCORE.SYSTEM.norm>
0

>  <SCORE.heavy>
10

>  <SCORE.norm>
-1.16771

>  <RMSD>
12.057

$$$$
ligand
 OpenBabel11021811503D
libRbt.so/2013.1/901 2013/11/27
 10 11  0  0  0  0  0  0  0  0999 V2000
    3.3810  -25.3286   14.5018 N   0  0  0  0  0  0  0  0  0  0  0  0
    3.1279  -25.1515   15.8001 C   0  0  0  0  0  0  0  0  0  0  0  0
    1.9551  -25.1934   16.4443 N   0  0  0  0  0  0  0  0  0  0  0  0
    0.9512  -25.4362   15.5800 C   0  0  0  0  0  0  0  0  0  0  0  0
    1.0545  -25.6386   14.2169 C   0  0  0  0  0  0  0  0  0  0  0  0
    2.3476  -25.5796   13.6602 C   0  0  0  0  0  0  0  0  0  0  0  0
    2.5885  -25.7484   12.3500 N   0  0  0  0  0  0  0  0  0  0  0  0
   -0.1873  -25.8689   13.6537 N   0  0  0  0  0  0  0  0  0  0  0  0
   -1.0092  -25.8105   14.6681 C   0  0  0  0  0  0  0  0  0  0  0  0
   -0.3900  -25.5436   15.8603 N   0  0  0  0  0  0  0  0  0  0  0  0
  1  2  2  0  0  0  0
  1  6  1  0  0  0  0
  2  3  1  0  0  0  0
  3  4  2  0  0  0  0
  4  5  1  0  0  0  0
  4 10  1  0  0  0  0
  5  6  2  0  0  0  0
  5  8  1  0  0  0  0
  6  7  1  0  0  0  0
  8  9  1  0  0  0  0
  9 10  2  0  0  0  0
M  END
>  <CHROM.1>
1.38863048,-25.53044450,14.66498656,-0.25068585,0.11304228,1.41683886

>  <Name>
ligand

>  <RI>
0

>  <Rbt.Current_Directory>
/home/itssahil/PROJECTS/Mol_Feturizer/New_Systems/rnas/4LW0

>  <Rbt.Executable>
rbdock ($Id: //depot/dev/client3/rdock/2013.1/src/exe/rbdock.cxx#4 $)

>  <Rbt.Library>
libRbt.so (2013.1, Build901 2013/11/27)

>  <Rbt.Parameter_File>
/export/apps/rDock/src/rDock_2013.1_src/data/scripts/dock_solv.prm

>  <Rbt.Receptor>
prm/blind_docking_40.prm

>  <SCORE>
-11.6141

>  <SCORE.INTER>
-11.6141

>  <SCORE.INTER.CONST>
1

>  <SCORE.INTER.POLAR>
0

>  <SCORE.INTER.ROT>
0

>  <SCORE.INTER.SOLV>
2.61415

>  <SCORE.INTER.VDW>
-12.2141

>  <SCORE.INTER.norm>
-1.16141

>  <SCORE.INTRA>
0

>  <SCORE.INTRA.DIHEDRAL>
0

>  <SCORE.INTRA.DIHEDRAL.0>
0

>  <SCORE.INTRA.POLAR>
0

>  <SCORE.INTRA.POLAR.0>
0

>  <SCORE.INTRA.REPUL>
0

>  <SCORE.INTRA.REPUL.0>
0

>  <SCORE.INTRA.SOLV>
0

>  <SCORE.INTRA.SOLV.lig_0>
-23.9151

>  <SCORE.INTRA.VDW>
0

>  <SCORE.INTRA.VDW.0>
0

>  <SCORE.INTRA.norm>
0

>  <SCORE.RESTR>
0

>  <SCORE.RESTR.CAVITY>
0

>  <SCORE.RESTR.norm>
0

>  <SCORE.SYSTEM>
0

>  <SCORE.SYSTEM.CONST>
0

>  <SCORE.SYSTEM.DIHEDRAL>
0

>  <SCORE.SYSTEM.SOLV>
0

>  <SCORE.SYSTEM.norm>
0

>  <SCORE.heavy>
10

>  <SCORE.norm>
-1.16141

>  <RMSD>
12.060

$$$$
ligand
 OpenBabel11021811503D
libRbt.so/2013.1/901 2013/11/27
 10 11  0  0  0  0  0  0  0  0999 V2000
    4.0576  -29.1978   16.5681 N   0  0  0  0  0  0  0  0  0  0  0  0
    2.7252  -29.1501   16.6269 C   0  0  0  0  0  0  0  0  0  0  0  0
    1.9075  -28.1140   16.4029 N   0  0  0  0  0  0  0  0  0  0  0  0
    2.6175  -27.0103   16.1004 C   0  0  0  0  0  0  0  0  0  0  0  0
    3.9918  -26.9030   16.0031 C   0  0  0  0  0  0  0  0  0  0  0  0
    4.7413  -28.0698   16.2526 C   0  0  0  0  0  0  0  0  0  0  0  0
    6.0826  -28.1028   16.2014 N   0  0  0  0  0  0  0  0  0  0  0  0
    4.3665  -25.6156   15.6646 N   0  0  0  0  0  0  0  0  0  0  0  0
    3.2324  -24.9752   15.5570 C   0  0  0  0  0  0  0  0  0  0  0  0
    2.1363  -25.7547   15.8156 N   0  0  0  0  0  0  0  0  0  0  0  0
  1  2  2  0  0  0  0
  1  6  1  0  0  0  0
  2  3  1  0  0  0  0
  3  4  2  0  0  0  0
  4  5  1  0  0  0  0
  4 10  1  0  0  0  0
  5  6  2  0  0  0  0
  5  8  1  0  0  0  0
  6  7  1  0  0  0  0
  8  9  1  0  0  0  0
  9 10  2  0  0  0  0
M  END
>  <CHROM.1>
3.59541419,-27.29450018,16.12010305,1.15258248,-0.04794058,2.89818013

>  <Name>
ligand

>  <RI>
0

>  <Rbt.Current_Directory>
/home/itssahil/PROJECTS/Mol_Feturizer/New_Systems/rnas/4LW0

>  <Rbt.Executable>
rbdock ($Id: //depot/dev/client3/rdock/2013.1/src/exe/rbdock.cxx#4 $)

>  <Rbt.Library>
libRbt.so (2013.1, Build901 2013/11/27)

>  <Rbt.Parameter_File>
/export/apps/rDock/src/rDock_2013.1_src/data/scripts/dock_solv.prm

>  <Rbt.Receptor>
prm/blind_docking_40.prm

>  <SCORE>
-8.78969

>  <SCORE.INTER>
-8.78969

>  <SCORE.INTER.CONST>
1

>  <SCORE.INTER.POLAR>
0

>  <SCORE.INTER.ROT>
0

>  <SCORE.INTER.SOLV>
3.36995

>  <SCORE.INTER.VDW>
-10.5831

>  <SCORE.INTER.norm>
-0.878969

>  <SCORE.INTRA>
0

>  <SCORE.INTRA.DIHEDRAL>
0

>  <SCORE.INTRA.DIHEDRAL.0>
0

>  <SCORE.INTRA.POLAR>
0

>  <SCORE.INTRA.POLAR.0>
0

>  <SCORE.INTRA.REPUL>
0

>  <SCORE.INTRA.REPUL.0>
0

>  <SCORE.INTRA.SOLV>
0

>  <SCORE.INTRA.SOLV.lig_0>
-23.9151

>  <SCORE.INTRA.VDW>
0

>  <SCORE.INTRA.VDW.0>
0

>  <SCORE.INTRA.norm>
0

>  <SCORE.RESTR>
0

>  <SCORE.RESTR.CAVITY>
0

>  <SCORE.RESTR.norm>
0

>  <SCORE.SYSTEM>
0

>  <SCORE.SYSTEM.CONST>
0

>  <SCORE.SYSTEM.DIHEDRAL>
0

>  <SCORE.SYSTEM.SOLV>
0

>  <SCORE.SYSTEM.norm>
0

>  <SCORE.heavy>
10

>  <SCORE.norm>
-0.878969

>  <RMSD>
12.062

$$$$
ligand
 OpenBabel11021811503D
libRbt.so/2013.1/901 2013/11/27
 10 11  0  0  0  0  0  0  0  0999 V2000
    3.3993  -25.3636   14.5166 N   0  0  0  0  0  0  0  0  0  0  0  0
    3.1431  -25.1887   15.8146 C   0  0  0  0  0  0  0  0  0  0  0  0
    1.9680  -25.2256   16.4549 N   0  0  0  0  0  0  0  0  0  0  0  0
    0.9655  -25.4604   15.5868 C   0  0  0  0  0  0  0  0  0  0  0  0
    1.0720  -25.6595   14.2235 C   0  0  0  0  0  0  0  0  0  0  0  0
    2.3671  -25.6064   13.6710 C   0  0  0  0  0  0  0  0  0  0  0  0
    2.6112  -25.7729   12.3612 N   0  0  0  0  0  0  0  0  0  0  0  0
   -0.1694  -25.8812   13.6557 N   0  0  0  0  0  0  0  0  0  0  0  0
   -0.9941  -25.8210   14.6677 C   0  0  0  0  0  0  0  0  0  0  0  0
   -0.3772  -25.5609   15.8626 N   0  0  0  0  0  0  0  0  0  0  0  0
  1  2  2  0  0  0  0
  1  6  1  0  0  0  0
  2  3  1  0  0  0  0
  3  4  2  0  0  0  0
  4  5  1  0  0  0  0
  4 10  1  0  0  0  0
  5  6  2  0  0  0  0
  5  8  1  0  0  0  0
  6  7  1  0  0  0  0
  8  9  1  0  0  0  0
  9 10  2  0  0  0  0
M  END
>  <CHROM.1>
1.40528418,-25.55455866,14.67292609,-0.24841146,0.10694393,1.41936825

>  <Name>
ligand

>  <RI>
0

>  <Rbt.Current_Directory>
/home/itssahil/PROJECTS/Mol_Feturizer/New_Systems/rnas/4LW0

>  <Rbt.Executable>
rbdock ($Id: //depot/dev/client3/rdock/2013.1/src/exe/rbdock.cxx#4 $)

>  <Rbt.Library>
libRbt.so (2013.1, Build901 2013/11/27)

>  <Rbt.Parameter_File>
/export/apps/rDock/src/rDock_2013.1_src/data/scripts/dock_solv.prm

>  <Rbt.Receptor>
prm/blind_docking_40.prm

>  <SCORE>
-11.6372

>  <SCORE.INTER>
-11.6372

>  <SCORE.INTER.CONST>
1

>  <SCORE.INTER.POLAR>
0

>  <SCORE.INTER.ROT>
0

>  <SCORE.INTER.SOLV>
2.56275

>  <SCORE.INTER.VDW>
-12.2124

>  <SCORE.INTER.norm>
-1.16372

>  <SCORE.INTRA>
0

>  <SCORE.INTRA.DIHEDRAL>
0

>  <SCORE.INTRA.DIHEDRAL.0>
0

>  <SCORE.INTRA.POLAR>
0

>  <SCORE.INTRA.POLAR.0>
0

>  <SCORE.INTRA.REPUL>
0

>  <SCORE.INTRA.REPUL.0>
0

>  <SCORE.INTRA.SOLV>
0

>  <SCORE.INTRA.SOLV.lig_0>
-23.9151

>  <SCORE.INTRA.VDW>
0

>  <SCORE.INTRA.VDW.0>
0

>  <SCORE.INTRA.norm>
0

>  <SCORE.RESTR>
0

>  <SCORE.RESTR.CAVITY>
0

>  <SCORE.RESTR.norm>
0

>  <SCORE.SYSTEM>
0

>  <SCORE.SYSTEM.CONST>
0

>  <SCORE.SYSTEM.DIHEDRAL>
0

>  <SCORE.SYSTEM.SOLV>
0

>  <SCORE.SYSTEM.norm>
0

>  <SCORE.heavy>
10

>  <SCORE.norm>
-1.16372

>  <RMSD>
12.062

$$$$
ligand
 OpenBabel11021811503D
libRbt.so/2013.1/901 2013/11/27
 10 11  0  0  0  0  0  0  0  0999 V2000
    3.3960  -25.3728   14.5121 N   0  0  0  0  0  0  0  0  0  0  0  0
    3.1429  -25.1992   15.8109 C   0  0  0  0  0  0  0  0  0  0  0  0
    1.9687  -25.2325   16.4532 N   0  0  0  0  0  0  0  0  0  0  0  0
    0.9638  -25.4615   15.5864 C   0  0  0  0  0  0  0  0  0  0  0  0
    1.0671  -25.6586   14.2226 C   0  0  0  0  0  0  0  0  0  0  0  0
    2.3614  -25.6098   13.6679 C   0  0  0  0  0  0  0  0  0  0  0  0
    2.6026  -25.7750   12.3574 N   0  0  0  0  0  0  0  0  0  0  0  0
   -0.1762  -25.8742   13.6566 N   0  0  0  0  0  0  0  0  0  0  0  0
   -0.9989  -25.8124   14.6701 C   0  0  0  0  0  0  0  0  0  0  0  0
   -0.3789  -25.5570   15.8643 N   0  0  0  0  0  0  0  0  0  0  0  0
  1  2  2  0  0  0  0
  1  6  1  0  0  0  0
  2  3  1  0  0  0  0
  3  4  2  0  0  0  0
  4  5  1  0  0  0  0
  4 10  1  0  0  0  0
  5  6  2  0  0  0  0
  5  8  1  0  0  0  0
  6  7  1  0  0  0  0
  8  9  1  0  0  0  0
  9 10  2  0  0  0  0
M  END
>  <CHROM.1>
1.40157793,-25.55582505,14.67160875,-0.25075547,0.10313701,1.42142006

>  <Name>
ligand

>  <RI>
0

>  <Rbt.Current_Directory>
/home/itssahil/PROJECTS/Mol_Feturizer/New_Systems/rnas/4LW0

>  <Rbt.Executable>
rbdock ($Id: //depot/dev/client3/rdock/2013.1/src/exe/rbdock.cxx#4 $)

>  <Rbt.Library>
libRbt.so (2013.1, Build901 2013/11/27)

>  <Rbt.Parameter_File>
/export/apps/rDock/src/rDock_2013.1_src/data/scripts/dock_solv.prm

>  <Rbt.Receptor>
prm/blind_docking_40.prm

>  <SCORE>
-11.641

>  <SCORE.INTER>
-11.641

>  <SCORE.INTER.CONST>
1

>  <SCORE.INTER.POLAR>
0

>  <SCORE.INTER.ROT>
0

>  <SCORE.INTER.SOLV>
2.54753

>  <SCORE.INTER.VDW>
-12.2099

>  <SCORE.INTER.norm>
-1.1641

>  <SCORE.INTRA>
0

>  <SCORE.INTRA.DIHEDRAL>
0

>  <SCORE.INTRA.DIHEDRAL.0>
0

>  <SCORE.INTRA.POLAR>
0

>  <SCORE.INTRA.POLAR.0>
0

>  <SCORE.INTRA.REPUL>
0

>  <SCORE.INTRA.REPUL.0>
0

>  <SCORE.INTRA.SOLV>
0

>  <SCORE.INTRA.SOLV.lig_0>
-23.9151

>  <SCORE.INTRA.VDW>
0

>  <SCORE.INTRA.VDW.0>
0

>  <SCORE.INTRA.norm>
0

>  <SCORE.RESTR>
0

>  <SCORE.RESTR.CAVITY>
0

>  <SCORE.RESTR.norm>
0

>  <SCORE.SYSTEM>
0

>  <SCORE.SYSTEM.CONST>
0

>  <SCORE.SYSTEM.DIHEDRAL>
0

>  <SCORE.SYSTEM.SOLV>
0

>  <SCORE.SYSTEM.norm>
0

>  <SCORE.heavy>
10

>  <SCORE.norm>
-1.1641

>  <RMSD>
12.064

$$$$
ligand
 OpenBabel11021811503D
libRbt.so/2013.1/901 2013/11/27
 10 11  0  0  0  0  0  0  0  0999 V2000
    3.3944  -25.3530   14.5165 N   0  0  0  0  0  0  0  0  0  0  0  0
    3.1290  -25.1639   15.8107 C   0  0  0  0  0  0  0  0  0  0  0  0
    1.9499  -25.1979   16.4437 N   0  0  0  0  0  0  0  0  0  0  0  0
    0.9540  -25.4466   15.5719 C   0  0  0  0  0  0  0  0  0  0  0  0
    1.0702  -25.6613   14.2117 C   0  0  0  0  0  0  0  0  0  0  0  0
    2.3687  -25.6096   13.6671 C   0  0  0  0  0  0  0  0  0  0  0  0
    2.6221  -25.7905   12.3609 N   0  0  0  0  0  0  0  0  0  0  0  0
   -0.1665  -25.8944   13.6385 N   0  0  0  0  0  0  0  0  0  0  0  0
   -0.9981  -25.8256   14.6442 C   0  0  0  0  0  0  0  0  0  0  0  0
   -0.3901  -25.5492   15.8400 N   0  0  0  0  0  0  0  0  0  0  0  0
  1  2  2  0  0  0  0
  1  6  1  0  0  0  0
  2  3  1  0  0  0  0
  3  4  2  0  0  0  0
  4  5  1  0  0  0  0
  4 10  1  0  0  0  0
  5  6  2  0  0  0  0
  5  8  1  0  0  0  0
  6  7  1  0  0  0  0
  8  9  1  0  0  0  0
  9 10  2  0  0  0  0
M  END
>  <CHROM.1>
1.40015935,-25.54981497,14.66202178,-0.24129395,0.10969769,1.40689774

>  <Name>
ligand

>  <RI>
0

>  <Rbt.Current_Directory>
/home/itssahil/PROJECTS/Mol_Feturizer/New_Systems/rnas/4LW0

>  <Rbt.Executable>
rbdock ($Id: //depot/dev/client3/rdock/2013.1/src/exe/rbdock.cxx#4 $)

>  <Rbt.Library>
libRbt.so (2013.1, Build901 2013/11/27)

>  <Rbt.Parameter_File>
/export/apps/rDock/src/rDock_2013.1_src/data/scripts/dock_solv.prm

>  <Rbt.Receptor>
prm/blind_docking_40.prm

>  <SCORE>
-11.6441

>  <SCORE.INTER>
-11.6441

>  <SCORE.INTER.CONST>
1

>  <SCORE.INTER.POLAR>
0

>  <SCORE.INTER.ROT>
0

>  <SCORE.INTER.SOLV>
2.53992

>  <SCORE.INTER.VDW>
-12.2093

>  <SCORE.INTER.norm>
-1.16441

>  <SCORE.INTRA>
0

>  <SCORE.INTRA.DIHEDRAL>
0

>  <SCORE.INTRA.DIHEDRAL.0>
0

>  <SCORE.INTRA.POLAR>
0

>  <SCORE.INTRA.POLAR.0>
0

>  <SCORE.INTRA.REPUL>
0

>  <SCORE.INTRA.REPUL.0>
0

>  <SCORE.INTRA.SOLV>
0

>  <SCORE.INTRA.SOLV.lig_0>
-23.9151

>  <SCORE.INTRA.VDW>
0

>  <SCORE.INTRA.VDW.0>
0

>  <SCORE.INTRA.norm>
0

>  <SCORE.RESTR>
0

>  <SCORE.RESTR.CAVITY>
0

>  <SCORE.RESTR.norm>
0

>  <SCORE.SYSTEM>
0

>  <SCORE.SYSTEM.CONST>
0

>  <SCORE.SYSTEM.DIHEDRAL>
0

>  <SCORE.SYSTEM.SOLV>
0

>  <SCORE.SYSTEM.norm>
0

>  <SCORE.heavy>
10

>  <SCORE.norm>
-1.16441

>  <RMSD>
12.070

$$$$
ligand
 OpenBabel11021811503D
libRbt.so/2013.1/901 2013/11/27
 10 11  0  0  0  0  0  0  0  0999 V2000
    3.3961  -25.3535   14.5129 N   0  0  0  0  0  0  0  0  0  0  0  0
    3.1309  -25.1627   15.8068 C   0  0  0  0  0  0  0  0  0  0  0  0
    1.9517  -25.1949   16.4398 N   0  0  0  0  0  0  0  0  0  0  0  0
    0.9556  -25.4436   15.5683 C   0  0  0  0  0  0  0  0  0  0  0  0
    1.0716  -25.6599   14.2083 C   0  0  0  0  0  0  0  0  0  0  0  0
    2.3702  -25.6101   13.6637 C   0  0  0  0  0  0  0  0  0  0  0  0
    2.6234  -25.7927   12.3578 N   0  0  0  0  0  0  0  0  0  0  0  0
   -0.1653  -25.8924   13.6353 N   0  0  0  0  0  0  0  0  0  0  0  0
   -0.9969  -25.8216   14.6410 C   0  0  0  0  0  0  0  0  0  0  0  0
   -0.3886  -25.5445   15.8364 N   0  0  0  0  0  0  0  0  0  0  0  0
  1  2  2  0  0  0  0
  1  6  1  0  0  0  0
  2  3  1  0  0  0  0
  3  4  2  0  0  0  0
  4  5  1  0  0  0  0
  4 10  1  0  0  0  0
  5  6  2  0  0  0  0
  5  8  1  0  0  0  0
  6  7  1  0  0  0  0
  8  9  1  0  0  0  0
  9 10  2  0  0  0  0
M  END
>  <CHROM.1>
1.40166300,-25.54819598,14.65854785,-0.24141799,0.10871725,1.40578936

>  <Name>
ligand

>  <RI>
0

>  <Rbt.Current_Directory>
/home/itssahil/PROJECTS/Mol_Feturizer/New_Systems/rnas/4LW0

>  <Rbt.Executable>
rbdock ($Id: //depot/dev/client3/rdock/2013.1/src/exe/rbdock.cxx#4 $)

>  <Rbt.Library>
libRbt.so (2013.1, Build901 2013/11/27)

>  <Rbt.Parameter_File>
/export/apps/rDock/src/rDock_2013.1_src/data/scripts/dock_solv.prm

>  <Rbt.Receptor>
prm/blind_docking_40.prm

>  <SCORE>
-11.6494

>  <SCORE.INTER>
-11.6494

>  <SCORE.INTER.CONST>
1

>  <SCORE.INTER.POLAR>
0

>  <SCORE.INTER.ROT>
0

>  <SCORE.INTER.SOLV>
2.53304

>  <SCORE.INTER.VDW>
-12.2106

>  <SCORE.INTER.norm>
-1.16494

>  <SCORE.INTRA>
0

>  <SCORE.INTRA.DIHEDRAL>
0

>  <SCORE.INTRA.DIHEDRAL.0>
0

>  <SCORE.INTRA.POLAR>
0

>  <SCORE.INTRA.POLAR.0>
0

>  <SCORE.INTRA.REPUL>
0

>  <SCORE.INTRA.REPUL.0>
0

>  <SCORE.INTRA.SOLV>
0

>  <SCORE.INTRA.SOLV.lig_0>
-23.9151

>  <SCORE.INTRA.VDW>
0

>  <SCORE.INTRA.VDW.0>
0

>  <SCORE.INTRA.norm>
0

>  <SCORE.RESTR>
0

>  <SCORE.RESTR.CAVITY>
0

>  <SCORE.RESTR.norm>
0

>  <SCORE.SYSTEM>
0

>  <SCORE.SYSTEM.CONST>
0

>  <SCORE.SYSTEM.DIHEDRAL>
0

>  <SCORE.SYSTEM.SOLV>
0

>  <SCORE.SYSTEM.norm>
0

>  <SCORE.heavy>
10

>  <SCORE.norm>
-1.16494

>  <RMSD>
12.072

$$$$
ligand
 OpenBabel11021811503D
libRbt.so/2013.1/901 2013/11/27
 10 11  0  0  0  0  0  0  0  0999 V2000
   -6.0873  -24.2207   32.1234 N   0  0  0  0  0  0  0  0  0  0  0  0
   -6.1483  -24.4919   30.8182 C   0  0  0  0  0  0  0  0  0  0  0  0
   -6.0968  -25.6783   30.1999 N   0  0  0  0  0  0  0  0  0  0  0  0
   -5.9454  -26.6711   31.0971 C   0  0  0  0  0  0  0  0  0  0  0  0
   -5.8652  -26.5486   32.4713 C   0  0  0  0  0  0  0  0  0  0  0  0
   -5.9428  -25.2450   33.0004 C   0  0  0  0  0  0  0  0  0  0  0  0
   -5.8689  -24.9835   34.3154 N   0  0  0  0  0  0  0  0  0  0  0  0
   -5.7200  -27.7856   33.0723 N   0  0  0  0  0  0  0  0  0  0  0  0
   -5.7215  -28.6249   32.0705 C   0  0  0  0  0  0  0  0  0  0  0  0
   -5.8451  -28.0191   30.8484 N   0  0  0  0  0  0  0  0  0  0  0  0
  1  2  2  0  0  0  0
  1  6  1  0  0  0  0
  2  3  1  0  0  0  0
  3  4  2  0  0  0  0
  4  5  1  0  0  0  0
  4 10  1  0  0  0  0
  5  6  2  0  0  0  0
  5  8  1  0  0  0  0
  6  7  1  0  0  0  0
  8  9  1  0  0  0  0
  9 10  2  0  0  0  0
M  END
>  <CHROM.1>
-5.92410864,-26.22002061,32.01015228,2.22635613,-1.46276871,0.89497459

>  <Name>
ligand

>  <RI>
0

>  <Rbt.Current_Directory>
/home/itssahil/PROJECTS/Mol_Feturizer/New_Systems/rnas/4LW0

>  <Rbt.Executable>
rbdock ($Id: //depot/dev/client3/rdock/2013.1/src/exe/rbdock.cxx#4 $)

>  <Rbt.Library>
libRbt.so (2013.1, Build901 2013/11/27)

>  <Rbt.Parameter_File>
/export/apps/rDock/src/rDock_2013.1_src/data/scripts/dock_solv.prm

>  <Rbt.Receptor>
prm/blind_docking_80.prm

>  <SCORE>
-8.72845

>  <SCORE.INTER>
-8.72845

>  <SCORE.INTER.CONST>
1

>  <SCORE.INTER.POLAR>
0

>  <SCORE.INTER.ROT>
0

>  <SCORE.INTER.SOLV>
1.07831

>  <SCORE.INTER.VDW>
-9.77841

>  <SCORE.INTER.norm>
-0.872845

>  <SCORE.INTRA>
0

>  <SCORE.INTRA.DIHEDRAL>
0

>  <SCORE.INTRA.DIHEDRAL.0>
0

>  <SCORE.INTRA.POLAR>
0

>  <SCORE.INTRA.POLAR.0>
0

>  <SCORE.INTRA.REPUL>
0

>  <SCORE.INTRA.REPUL.0>
0

>  <SCORE.INTRA.SOLV>
0

>  <SCORE.INTRA.SOLV.lig_0>
-23.9151

>  <SCORE.INTRA.VDW>
0

>  <SCORE.INTRA.VDW.0>
0

>  <SCORE.INTRA.norm>
0

>  <SCORE.RESTR>
0

>  <SCORE.RESTR.CAVITY>
0

>  <SCORE.RESTR.norm>
0

>  <SCORE.SYSTEM>
0

>  <SCORE.SYSTEM.CONST>
0

>  <SCORE.SYSTEM.DIHEDRAL>
0

>  <SCORE.SYSTEM.SOLV>
0

>  <SCORE.SYSTEM.norm>
0

>  <SCORE.heavy>
10

>  <SCORE.norm>
-0.872845

>  <RMSD>
12.137

$$$$
ligand
 OpenBabel11021811503D
libRbt.so/2013.1/901 2013/11/27
 10 11  0  0  0  0  0  0  0  0999 V2000
   -6.1040  -24.2157   32.1449 N   0  0  0  0  0  0  0  0  0  0  0  0
   -6.1603  -24.4842   30.8388 C   0  0  0  0  0  0  0  0  0  0  0  0
   -6.1106  -25.6696   30.2184 N   0  0  0  0  0  0  0  0  0  0  0  0
   -5.9669  -26.6647   31.1144 C   0  0  0  0  0  0  0  0  0  0  0  0
   -5.8922  -26.5452   32.4891 C   0  0  0  0  0  0  0  0  0  0  0  0
   -5.9672  -25.2423   33.0205 C   0  0  0  0  0  0  0  0  0  0  0  0
   -5.8981  -24.9837   34.3363 N   0  0  0  0  0  0  0  0  0  0  0  0
   -5.7543  -27.7839   33.0883 N   0  0  0  0  0  0  0  0  0  0  0  0
   -5.7546  -28.6212   32.0849 C   0  0  0  0  0  0  0  0  0  0  0  0
   -5.8706  -28.0126   30.8634 N   0  0  0  0  0  0  0  0  0  0  0  0
  1  2  2  0  0  0  0
  1  6  1  0  0  0  0
  2  3  1  0  0  0  0
  3  4  2  0  0  0  0
  4  5  1  0  0  0  0
  4 10  1  0  0  0  0
  5  6  2  0  0  0  0
  5  8  1  0  0  0  0
  6  7  1  0  0  0  0
  8  9  1  0  0  0  0
  9 10  2  0  0  0  0
M  END
>  <CHROM.1>
-5.94785703,-26.21546731,32.02837190,2.23642911,-1.46843735,0.90694248

>  <Name>
ligand

>  <RI>
0

>  <Rbt.Current_Directory>
/home/itssahil/PROJECTS/Mol_Feturizer/New_Systems/rnas/4LW0

>  <Rbt.Executable>
rbdock ($Id: //depot/dev/client3/rdock/2013.1/src/exe/rbdock.cxx#4 $)

>  <Rbt.Library>
libRbt.so (2013.1, Build901 2013/11/27)

>  <Rbt.Parameter_File>
/export/apps/rDock/src/rDock_2013.1_src/data/scripts/dock_solv.prm

>  <Rbt.Receptor>
prm/blind_docking_80.prm

>  <SCORE>
-8.73105

>  <SCORE.INTER>
-8.73105

>  <SCORE.INTER.CONST>
1

>  <SCORE.INTER.POLAR>
0

>  <SCORE.INTER.ROT>
0

>  <SCORE.INTER.SOLV>
1.02819

>  <SCORE.INTER.VDW>
-9.76343

>  <SCORE.INTER.norm>
-0.873105

>  <SCORE.INTRA>
0

>  <SCORE.INTRA.DIHEDRAL>
0

>  <SCORE.INTRA.DIHEDRAL.0>
0

>  <SCORE.INTRA.POLAR>
0

>  <SCORE.INTRA.POLAR.0>
0

>  <SCORE.INTRA.REPUL>
0

>  <SCORE.INTRA.REPUL.0>
0

>  <SCORE.INTRA.SOLV>
0

>  <SCORE.INTRA.SOLV.lig_0>
-23.9151

>  <SCORE.INTRA.VDW>
0

>  <SCORE.INTRA.VDW.0>
0

>  <SCORE.INTRA.norm>
0

>  <SCORE.RESTR>
0

>  <SCORE.RESTR.CAVITY>
0

>  <SCORE.RESTR.norm>
0

>  <SCORE.SYSTEM>
0

>  <SCORE.SYSTEM.CONST>
0

>  <SCORE.SYSTEM.DIHEDRAL>
0

>  <SCORE.SYSTEM.SOLV>
0

>  <SCORE.SYSTEM.norm>
0

>  <SCORE.heavy>
10

>  <SCORE.norm>
-0.873105

>  <RMSD>
12.159

$$$$
ligand
 OpenBabel11021811503D
libRbt.so/2013.1/901 2013/11/27
 10 11  0  0  0  0  0  0  0  0999 V2000
   -6.6359  -28.9335   30.1344 N   0  0  0  0  0  0  0  0  0  0  0  0
   -6.8900  -29.9210   29.2734 C   0  0  0  0  0  0  0  0  0  0  0  0
   -6.0657  -30.5100   28.3982 N   0  0  0  0  0  0  0  0  0  0  0  0
   -4.8412  -29.9523   28.4553 C   0  0  0  0  0  0  0  0  0  0  0  0
   -4.4287  -28.9288   29.2872 C   0  0  0  0  0  0  0  0  0  0  0  0
   -5.3897  -28.3999   30.1715 C   0  0  0  0  0  0  0  0  0  0  0  0
   -5.1251  -27.3982   31.0257 N   0  0  0  0  0  0  0  0  0  0  0  0
   -3.0978  -28.6206   29.0725 N   0  0  0  0  0  0  0  0  0  0  0  0
   -2.7288  -29.4527   28.1348 C   0  0  0  0  0  0  0  0  0  0  0  0
   -3.7343  -30.2796   27.7093 N   0  0  0  0  0  0  0  0  0  0  0  0
  1  2  2  0  0  0  0
  1  6  1  0  0  0  0
  2  3  1  0  0  0  0
  3  4  2  0  0  0  0
  4  5  1  0  0  0  0
  4 10  1  0  0  0  0
  5  6  2  0  0  0  0
  5  8  1  0  0  0  0
  6  7  1  0  0  0  0
  8  9  1  0  0  0  0
  9 10  2  0  0  0  0
M  END
>  <CHROM.1>
-4.89663243,-29.23265972,29.17404809,2.50139576,0.27027258,0.76714424

>  <Name>
ligand

>  <RI>
0

>  <Rbt.Current_Directory>
/home/itssahil/PROJECTS/Mol_Feturizer/New_Systems/rnas/4LW0

>  <Rbt.Executable>
rbdock ($Id: //depot/dev/client3/rdock/2013.1/src/exe/rbdock.cxx#4 $)

>  <Rbt.Library>
libRbt.so (2013.1, Build901 2013/11/27)

>  <Rbt.Parameter_File>
/export/apps/rDock/src/rDock_2013.1_src/data/scripts/dock_solv.prm

>  <Rbt.Receptor>
prm/blind_docking_80.prm

>  <SCORE>
-10.7149

>  <SCORE.INTER>
-10.7149

>  <SCORE.INTER.CONST>
1

>  <SCORE.INTER.POLAR>
0

>  <SCORE.INTER.ROT>
0

>  <SCORE.INTER.SOLV>
6.09629

>  <SCORE.INTER.VDW>
-12.7753

>  <SCORE.INTER.norm>
-1.07149

>  <SCORE.INTRA>
0

>  <SCORE.INTRA.DIHEDRAL>
0

>  <SCORE.INTRA.DIHEDRAL.0>
0

>  <SCORE.INTRA.POLAR>
0

>  <SCORE.INTRA.POLAR.0>
0

>  <SCORE.INTRA.REPUL>
0

>  <SCORE.INTRA.REPUL.0>
0

>  <SCORE.INTRA.SOLV>
0

>  <SCORE.INTRA.SOLV.lig_0>
-23.9151

>  <SCORE.INTRA.VDW>
0

>  <SCORE.INTRA.VDW.0>
0

>  <SCORE.INTRA.norm>
0

>  <SCORE.RESTR>
0

>  <SCORE.RESTR.CAVITY>
0

>  <SCORE.RESTR.norm>
0

>  <SCORE.SYSTEM>
0

>  <SCORE.SYSTEM.CONST>
0

>  <SCORE.SYSTEM.DIHEDRAL>
0

>  <SCORE.SYSTEM.SOLV>
0

>  <SCORE.SYSTEM.norm>
0

>  <SCORE.heavy>
10

>  <SCORE.norm>
-1.07149

>  <RMSD>
12.296

$$$$
ligand
 OpenBabel11021811503D
libRbt.so/2013.1/901 2013/11/27
 10 11  0  0  0  0  0  0  0  0999 V2000
   -0.5329  -25.8679   13.4440 N   0  0  0  0  0  0  0  0  0  0  0  0
   -1.0192  -25.7853   14.6840 C   0  0  0  0  0  0  0  0  0  0  0  0
   -0.3669  -25.5704   15.8332 N   0  0  0  0  0  0  0  0  0  0  0  0
    0.9556  -25.4506   15.6091 C   0  0  0  0  0  0  0  0  0  0  0  0
    1.6044  -25.5140   14.3906 C   0  0  0  0  0  0  0  0  0  0  0  0
    0.8031  -25.7346   13.2528 C   0  0  0  0  0  0  0  0  0  0  0  0
    1.3053  -25.8270   12.0110 N   0  0  0  0  0  0  0  0  0  0  0  0
    2.9676  -25.3391   14.5444 N   0  0  0  0  0  0  0  0  0  0  0  0
    3.1203  -25.1683   15.8309 C   0  0  0  0  0  0  0  0  0  0  0  0
    1.9475  -25.2326   16.5353 N   0  0  0  0  0  0  0  0  0  0  0  0
  1  2  2  0  0  0  0
  1  6  1  0  0  0  0
  2  3  1  0  0  0  0
  3  4  2  0  0  0  0
  4  5  1  0  0  0  0
  4 10  1  0  0  0  0
  5  6  2  0  0  0  0
  5  8  1  0  0  0  0
  6  7  1  0  0  0  0
  8  9  1  0  0  0  0
  9 10  2  0  0  0  0
M  END
>  <CHROM.1>
1.07737345,-25.55039852,14.60280296,2.32339123,-0.11386672,-1.68582620

>  <Name>
ligand

>  <RI>
0

>  <Rbt.Current_Directory>
/home/itssahil/PROJECTS/Mol_Feturizer/New_Systems/rnas/4LW0

>  <Rbt.Executable>
rbdock ($Id: //depot/dev/client3/rdock/2013.1/src/exe/rbdock.cxx#4 $)

>  <Rbt.Library>
libRbt.so (2013.1, Build901 2013/11/27)

>  <Rbt.Parameter_File>
/export/apps/rDock/src/rDock_2013.1_src/data/scripts/dock_solv.prm

>  <Rbt.Receptor>
prm/blind_docking_40.prm

>  <SCORE>
-11.9206

>  <SCORE.INTER>
-11.9206

>  <SCORE.INTER.CONST>
1

>  <SCORE.INTER.POLAR>
0

>  <SCORE.INTER.ROT>
0

>  <SCORE.INTER.SOLV>
2.41197

>  <SCORE.INTER.VDW>
-12.3511

>  <SCORE.INTER.norm>
-1.19206

>  <SCORE.INTRA>
0

>  <SCORE.INTRA.DIHEDRAL>
0

>  <SCORE.INTRA.DIHEDRAL.0>
0

>  <SCORE.INTRA.POLAR>
0

>  <SCORE.INTRA.POLAR.0>
0

>  <SCORE.INTRA.REPUL>
0

>  <SCORE.INTRA.REPUL.0>
0

>  <SCORE.INTRA.SOLV>
0

>  <SCORE.INTRA.SOLV.lig_0>
-23.9151

>  <SCORE.INTRA.VDW>
0

>  <SCORE.INTRA.VDW.0>
0

>  <SCORE.INTRA.norm>
0

>  <SCORE.RESTR>
0

>  <SCORE.RESTR.CAVITY>
0

>  <SCORE.RESTR.norm>
0

>  <SCORE.SYSTEM>
0

>  <SCORE.SYSTEM.CONST>
0

>  <SCORE.SYSTEM.DIHEDRAL>
0

>  <SCORE.SYSTEM.SOLV>
0

>  <SCORE.SYSTEM.norm>
0

>  <SCORE.heavy>
10

>  <SCORE.norm>
-1.19206

>  <RMSD>
12.452

$$$$
ligand
 OpenBabel11021811503D
libRbt.so/2013.1/901 2013/11/27
 10 11  0  0  0  0  0  0  0  0999 V2000
   -0.5020  -25.8313   13.4383 N   0  0  0  0  0  0  0  0  0  0  0  0
   -0.9877  -25.7174   14.6761 C   0  0  0  0  0  0  0  0  0  0  0  0
   -0.3315  -25.5051   15.8236 N   0  0  0  0  0  0  0  0  0  0  0  0
    0.9943  -25.4263   15.6005 C   0  0  0  0  0  0  0  0  0  0  0  0
    1.6430  -25.5253   14.3844 C   0  0  0  0  0  0  0  0  0  0  0  0
    0.8376  -25.7389   13.2481 C   0  0  0  0  0  0  0  0  0  0  0  0
    1.3391  -25.8631   12.0087 N   0  0  0  0  0  0  0  0  0  0  0  0
    3.0104  -25.3872   14.5384 N   0  0  0  0  0  0  0  0  0  0  0  0
    3.1658  -25.2028   15.8228 C   0  0  0  0  0  0  0  0  0  0  0  0
    1.9904  -25.2237   16.5256 N   0  0  0  0  0  0  0  0  0  0  0  0
  1  2  2  0  0  0  0
  1  6  1  0  0  0  0
  2  3  1  0  0  0  0
  3  4  2  0  0  0  0
  4  5  1  0  0  0  0
  4 10  1  0  0  0  0
  5  6  2  0  0  0  0
  5  8  1  0  0  0  0
  6  7  1  0  0  0  0
  8  9  1  0  0  0  0
  9 10  2  0  0  0  0
M  END
>  <CHROM.1>
1.11482827,-25.54365485,14.59595130,2.32502383,-0.08529413,-1.69968728

>  <Name>
ligand

>  <RI>
0

>  <Rbt.Current_Directory>
/home/itssahil/PROJECTS/Mol_Feturizer/New_Systems/rnas/4LW0

>  <Rbt.Executable>
rbdock ($Id: //depot/dev/client3/rdock/2013.1/src/exe/rbdock.cxx#4 $)

>  <Rbt.Library>
libRbt.so (2013.1, Build901 2013/11/27)

>  <Rbt.Parameter_File>
/export/apps/rDock/src/rDock_2013.1_src/data/scripts/dock_solv.prm

>  <Rbt.Receptor>
prm/blind_docking_80.prm

>  <SCORE>
-11.8144

>  <SCORE.INTER>
-11.8144

>  <SCORE.INTER.CONST>
1

>  <SCORE.INTER.POLAR>
0

>  <SCORE.INTER.ROT>
0

>  <SCORE.INTER.SOLV>
2.33879

>  <SCORE.INTER.VDW>
-12.2558

>  <SCORE.INTER.norm>
-1.18144

>  <SCORE.INTRA>
0

>  <SCORE.INTRA.DIHEDRAL>
0

>  <SCORE.INTRA.DIHEDRAL.0>
0

>  <SCORE.INTRA.POLAR>
0

>  <SCORE.INTRA.POLAR.0>
0

>  <SCORE.INTRA.REPUL>
0

>  <SCORE.INTRA.REPUL.0>
0

>  <SCORE.INTRA.SOLV>
0

>  <SCORE.INTRA.SOLV.lig_0>
-23.9151

>  <SCORE.INTRA.VDW>
0

>  <SCORE.INTRA.VDW.0>
0

>  <SCORE.INTRA.norm>
0

>  <SCORE.RESTR>
0

>  <SCORE.RESTR.CAVITY>
0

>  <SCORE.RESTR.norm>
0

>  <SCORE.SYSTEM>
0

>  <SCORE.SYSTEM.CONST>
0

>  <SCORE.SYSTEM.DIHEDRAL>
0

>  <SCORE.SYSTEM.SOLV>
0

>  <SCORE.SYSTEM.norm>
0

>  <SCORE.heavy>
10

>  <SCORE.norm>
-1.18144

>  <RMSD>
12.452

$$$$
ligand
 OpenBabel11021811503D
libRbt.so/2013.1/901 2013/11/27
 10 11  0  0  0  0  0  0  0  0999 V2000
   -0.5151  -25.8625   13.4309 N   0  0  0  0  0  0  0  0  0  0  0  0
   -1.0035  -25.7937   14.6710 C   0  0  0  0  0  0  0  0  0  0  0  0
   -0.3547  -25.5809   15.8225 N   0  0  0  0  0  0  0  0  0  0  0  0
    0.9668  -25.4465   15.6009 C   0  0  0  0  0  0  0  0  0  0  0  0
    1.6176  -25.4946   14.3828 C   0  0  0  0  0  0  0  0  0  0  0  0
    0.8198  -25.7147   13.2424 C   0  0  0  0  0  0  0  0  0  0  0  0
    1.3243  -25.7931   12.0005 N   0  0  0  0  0  0  0  0  0  0  0  0
    2.9788  -25.3075   14.5395 N   0  0  0  0  0  0  0  0  0  0  0  0
    3.1284  -25.1446   15.8275 C   0  0  0  0  0  0  0  0  0  0  0  0
    1.9554  -25.2255   16.5299 N   0  0  0  0  0  0  0  0  0  0  0  0
  1  2  2  0  0  0  0
  1  6  1  0  0  0  0
  2  3  1  0  0  0  0
  3  4  2  0  0  0  0
  4  5  1  0  0  0  0
  4 10  1  0  0  0  0
  5  6  2  0  0  0  0
  5  8  1  0  0  0  0
  6  7  1  0  0  0  0
  8  9  1  0  0  0  0
  9 10  2  0  0  0  0
M  END
>  <CHROM.1>
1.09070177,-25.53771957,14.59405096,2.32109993,-0.12348137,-1.67878075

>  <Name>
ligand

>  <RI>
0

>  <Rbt.Current_Directory>
/home/itssahil/PROJECTS/Mol_Feturizer/New_Systems/rnas/4LW0

>  <Rbt.Executable>
rbdock ($Id: //depot/dev/client3/rdock/2013.1/src/exe/rbdock.cxx#4 $)

>  <Rbt.Library>
libRbt.so (2013.1, Build901 2013/11/27)

>  <Rbt.Parameter_File>
/export/apps/rDock/src/rDock_2013.1_src/data/scripts/dock_solv.prm

>  <Rbt.Receptor>
prm/blind_docking_40.prm

>  <SCORE>
-11.8964

>  <SCORE.INTER>
-11.8964

>  <SCORE.INTER.CONST>
1

>  <SCORE.INTER.POLAR>
0

>  <SCORE.INTER.ROT>
0

>  <SCORE.INTER.SOLV>
2.40365

>  <SCORE.INTER.VDW>
-12.3321

>  <SCORE.INTER.norm>
-1.18964

>  <SCORE.INTRA>
0

>  <SCORE.INTRA.DIHEDRAL>
0

>  <SCORE.INTRA.DIHEDRAL.0>
0

>  <SCORE.INTRA.POLAR>
0

>  <SCORE.INTRA.POLAR.0>
0

>  <SCORE.INTRA.REPUL>
0

>  <SCORE.INTRA.REPUL.0>
0

>  <SCORE.INTRA.SOLV>
0

>  <SCORE.INTRA.SOLV.lig_0>
-23.9151

>  <SCORE.INTRA.VDW>
0

>  <SCORE.INTRA.VDW.0>
0

>  <SCORE.INTRA.norm>
0

>  <SCORE.RESTR>
0

>  <SCORE.RESTR.CAVITY>
0

>  <SCORE.RESTR.norm>
0

>  <SCORE.SYSTEM>
0

>  <SCORE.SYSTEM.CONST>
0

>  <SCORE.SYSTEM.DIHEDRAL>
0

>  <SCORE.SYSTEM.SOLV>
0

>  <SCORE.SYSTEM.norm>
0

>  <SCORE.heavy>
10

>  <SCORE.norm>
-1.18964

>  <RMSD>
12.454

$$$$
ligand
 OpenBabel11021811503D
libRbt.so/2013.1/901 2013/11/27
 10 11  0  0  0  0  0  0  0  0999 V2000
   -0.5398  -25.8572   13.4214 N   0  0  0  0  0  0  0  0  0  0  0  0
   -1.0237  -25.8163   14.6645 C   0  0  0  0  0  0  0  0  0  0  0  0
   -0.3730  -25.6131   15.8167 N   0  0  0  0  0  0  0  0  0  0  0  0
    0.9455  -25.4556   15.5918 C   0  0  0  0  0  0  0  0  0  0  0  0
    1.5915  -25.4738   14.3703 C   0  0  0  0  0  0  0  0  0  0  0  0
    0.7919  -25.6865   13.2298 C   0  0  0  0  0  0  0  0  0  0  0  0
    1.2920  -25.7368   11.9846 N   0  0  0  0  0  0  0  0  0  0  0  0
    2.9505  -25.2692   14.5244 N   0  0  0  0  0  0  0  0  0  0  0  0
    3.1034  -25.1256   15.8143 C   0  0  0  0  0  0  0  0  0  0  0  0
    1.9348  -25.2356   16.5202 N   0  0  0  0  0  0  0  0  0  0  0  0
  1  2  2  0  0  0  0
  1  6  1  0  0  0  0
  2  3  1  0  0  0  0
  3  4  2  0  0  0  0
  4  5  1  0  0  0  0
  4 10  1  0  0  0  0
  5  6  2  0  0  0  0
  5  8  1  0  0  0  0
  6  7  1  0  0  0  0
  8  9  1  0  0  0  0
  9 10  2  0  0  0  0
M  END
>  <CHROM.1>
1.06621590,-25.52815171,14.58302989,2.32396913,-0.13855304,-1.66169229

>  <Name>
ligand

>  <RI>
0

>  <Rbt.Current_Directory>
/home/itssahil/PROJECTS/Mol_Feturizer/New_Systems/rnas/4LW0

>  <Rbt.Executable>
rbdock ($Id: //depot/dev/client3/rdock/2013.1/src/exe/rbdock.cxx#4 $)

>  <Rbt.Library>
libRbt.so (2013.1, Build901 2013/11/27)

>  <Rbt.Parameter_File>
/export/apps/rDock/src/rDock_2013.1_src/data/scripts/dock_solv.prm

>  <Rbt.Receptor>
prm/blind_docking_40.prm

>  <SCORE>
-11.9026

>  <SCORE.INTER>
-11.9026

>  <SCORE.INTER.CONST>
1

>  <SCORE.INTER.POLAR>
0

>  <SCORE.INTER.ROT>
0

>  <SCORE.INTER.SOLV>
2.41631

>  <SCORE.INTER.VDW>
-12.3405

>  <SCORE.INTER.norm>
-1.19026

>  <SCORE.INTRA>
0

>  <SCORE.INTRA.DIHEDRAL>
0

>  <SCORE.INTRA.DIHEDRAL.0>
0

>  <SCORE.INTRA.POLAR>
0

>  <SCORE.INTRA.POLAR.0>
0

>  <SCORE.INTRA.REPUL>
0

>  <SCORE.INTRA.REPUL.0>
0

>  <SCORE.INTRA.SOLV>
0

>  <SCORE.INTRA.SOLV.lig_0>
-23.9151

>  <SCORE.INTRA.VDW>
0

>  <SCORE.INTRA.VDW.0>
0

>  <SCORE.INTRA.norm>
0

>  <SCORE.RESTR>
0

>  <SCORE.RESTR.CAVITY>
0

>  <SCORE.RESTR.norm>
0

>  <SCORE.SYSTEM>
0

>  <SCORE.SYSTEM.CONST>
0

>  <SCORE.SYSTEM.DIHEDRAL>
0

>  <SCORE.SYSTEM.SOLV>
0

>  <SCORE.SYSTEM.norm>
0

>  <SCORE.heavy>
10

>  <SCORE.norm>
-1.19026

>  <RMSD>
12.463

$$$$
ligand
 OpenBabel11021811503D
libRbt.so/2013.1/901 2013/11/27
 10 11  0  0  0  0  0  0  0  0999 V2000
   -0.5344  -25.8776   13.4316 N   0  0  0  0  0  0  0  0  0  0  0  0
   -1.0188  -25.7933   14.6723 C   0  0  0  0  0  0  0  0  0  0  0  0
   -0.3653  -25.5725   15.8197 N   0  0  0  0  0  0  0  0  0  0  0  0
    0.9564  -25.4481   15.5928 C   0  0  0  0  0  0  0  0  0  0  0  0
    1.6032  -25.5124   14.3733 C   0  0  0  0  0  0  0  0  0  0  0  0
    0.8007  -25.7395   13.2376 C   0  0  0  0  0  0  0  0  0  0  0  0
    1.3010  -25.8335   11.9951 N   0  0  0  0  0  0  0  0  0  0  0  0
    2.9659  -25.3316   14.5241 N   0  0  0  0  0  0  0  0  0  0  0  0
    3.1203  -25.1564   15.8099 C   0  0  0  0  0  0  0  0  0  0  0  0
    1.9490  -25.2234   16.5166 N   0  0  0  0  0  0  0  0  0  0  0  0
  1  2  2  0  0  0  0
  1  6  1  0  0  0  0
  2  3  1  0  0  0  0
  3  4  2  0  0  0  0
  4  5  1  0  0  0  0
  4 10  1  0  0  0  0
  5  6  2  0  0  0  0
  5  8  1  0  0  0  0
  6  7  1  0  0  0  0
  8  9  1  0  0  0  0
  9 10  2  0  0  0  0
M  END
>  <CHROM.1>
1.07669161,-25.55029567,14.58656519,2.32474218,-0.11805600,-1.68855823

>  <Name>
ligand

>  <RI>
0

>  <Rbt.Current_Directory>
/home/itssahil/PROJECTS/Mol_Feturizer/New_Systems/rnas/4LW0

>  <Rbt.Executable>
rbdock ($Id: //depot/dev/client3/rdock/2013.1/src/exe/rbdock.cxx#4 $)

>  <Rbt.Library>
libRbt.so (2013.1, Build901 2013/11/27)

>  <Rbt.Parameter_File>
/export/apps/rDock/src/rDock_2013.1_src/data/scripts/dock_solv.prm

>  <Rbt.Receptor>
prm/blind_docking_40.prm

>  <SCORE>
-11.9474

>  <SCORE.INTER>
-11.9474

>  <SCORE.INTER.CONST>
1

>  <SCORE.INTER.POLAR>
0

>  <SCORE.INTER.ROT>
0

>  <SCORE.INTER.SOLV>
2.39421

>  <SCORE.INTER.VDW>
-12.363

>  <SCORE.INTER.norm>
-1.19474

>  <SCORE.INTRA>
0

>  <SCORE.INTRA.DIHEDRAL>
0

>  <SCORE.INTRA.DIHEDRAL.0>
0

>  <SCORE.INTRA.POLAR>
0

>  <SCORE.INTRA.POLAR.0>
0

>  <SCORE.INTRA.REPUL>
0

>  <SCORE.INTRA.REPUL.0>
0

>  <SCORE.INTRA.SOLV>
0

>  <SCORE.INTRA.SOLV.lig_0>
-23.9151

>  <SCORE.INTRA.VDW>
0

>  <SCORE.INTRA.VDW.0>
0

>  <SCORE.INTRA.norm>
0

>  <SCORE.RESTR>
0

>  <SCORE.RESTR.CAVITY>
0

>  <SCORE.RESTR.norm>
0

>  <SCORE.SYSTEM>
0

>  <SCORE.SYSTEM.CONST>
0

>  <SCORE.SYSTEM.DIHEDRAL>
0

>  <SCORE.SYSTEM.SOLV>
0

>  <SCORE.SYSTEM.norm>
0

>  <SCORE.heavy>
10

>  <SCORE.norm>
-1.19474

>  <RMSD>
12.467

$$$$
ligand
 OpenBabel11021811503D
libRbt.so/2013.1/901 2013/11/27
 10 11  0  0  0  0  0  0  0  0999 V2000
   -0.5051  -25.8927   13.4002 N   0  0  0  0  0  0  0  0  0  0  0  0
   -1.0104  -25.8278   14.6337 C   0  0  0  0  0  0  0  0  0  0  0  0
   -0.3779  -25.6136   15.7941 N   0  0  0  0  0  0  0  0  0  0  0  0
    0.9459  -25.4732   15.5903 C   0  0  0  0  0  0  0  0  0  0  0  0
    1.6130  -25.5168   14.3809 C   0  0  0  0  0  0  0  0  0  0  0  0
    0.8315  -25.7388   13.2297 C   0  0  0  0  0  0  0  0  0  0  0  0
    1.3529  -25.8133   11.9945 N   0  0  0  0  0  0  0  0  0  0  0  0
    2.9712  -25.3238   14.5559 N   0  0  0  0  0  0  0  0  0  0  0  0
    3.1028  -25.1620   15.8460 C   0  0  0  0  0  0  0  0  0  0  0  0
    1.9210  -25.2491   16.5326 N   0  0  0  0  0  0  0  0  0  0  0  0
  1  2  2  0  0  0  0
  1  6  1  0  0  0  0
  2  3  1  0  0  0  0
  3  4  2  0  0  0  0
  4  5  1  0  0  0  0
  4 10  1  0  0  0  0
  5  6  2  0  0  0  0
  5  8  1  0  0  0  0
  6  7  1  0  0  0  0
  8  9  1  0  0  0  0
  9 10  2  0  0  0  0
M  END
>  <CHROM.1>
1.08354981,-25.56243757,14.58501705,2.30726592,-0.12642678,-1.67917756

>  <Name>
ligand

>  <RI>
0

>  <Rbt.Current_Directory>
/home/itssahil/PROJECTS/Mol_Feturizer/New_Systems/rnas/4LW0

>  <Rbt.Executable>
rbdock ($Id: //depot/dev/client3/rdock/2013.1/src/exe/rbdock.cxx#4 $)

>  <Rbt.Library>
libRbt.so (2013.1, Build901 2013/11/27)

>  <Rbt.Parameter_File>
/export/apps/rDock/src/rDock_2013.1_src/data/scripts/dock_solv.prm

>  <Rbt.Receptor>
prm/blind_docking_40.prm

>  <SCORE>
-11.895

>  <SCORE.INTER>
-11.895

>  <SCORE.INTER.CONST>
1

>  <SCORE.INTER.POLAR>
0

>  <SCORE.INTER.ROT>
0

>  <SCORE.INTER.SOLV>
2.36724

>  <SCORE.INTER.VDW>
-12.3191

>  <SCORE.INTER.norm>
-1.1895

>  <SCORE.INTRA>
0

>  <SCORE.INTRA.DIHEDRAL>
0

>  <SCORE.INTRA.DIHEDRAL.0>
0

>  <SCORE.INTRA.POLAR>
0

>  <SCORE.INTRA.POLAR.0>
0

>  <SCORE.INTRA.REPUL>
0

>  <SCORE.INTRA.REPUL.0>
0

>  <SCORE.INTRA.SOLV>
0

>  <SCORE.INTRA.SOLV.lig_0>
-23.9151

>  <SCORE.INTRA.VDW>
0

>  <SCORE.INTRA.VDW.0>
0

>  <SCORE.INTRA.norm>
0

>  <SCORE.RESTR>
0

>  <SCORE.RESTR.CAVITY>
0

>  <SCORE.RESTR.norm>
0

>  <SCORE.SYSTEM>
0

>  <SCORE.SYSTEM.CONST>
0

>  <SCORE.SYSTEM.DIHEDRAL>
0

>  <SCORE.SYSTEM.SOLV>
0

>  <SCORE.SYSTEM.norm>
0

>  <SCORE.heavy>
10

>  <SCORE.norm>
-1.1895

>  <RMSD>
12.472

$$$$
ligand
 OpenBabel11021811503D
libRbt.so/2013.1/901 2013/11/27
 10 11  0  0  0  0  0  0  0  0999 V2000
   -0.5292  -25.8381   13.4191 N   0  0  0  0  0  0  0  0  0  0  0  0
   -1.0077  -25.7982   14.6643 C   0  0  0  0  0  0  0  0  0  0  0  0
   -0.3496  -25.6132   15.8153 N   0  0  0  0  0  0  0  0  0  0  0  0
    0.9703  -25.4749   15.5864 C   0  0  0  0  0  0  0  0  0  0  0  0
    1.6114  -25.4949   14.3624 C   0  0  0  0  0  0  0  0  0  0  0  0
    0.8043  -25.6872   13.2235 C   0  0  0  0  0  0  0  0  0  0  0  0
    1.2989  -25.7368   11.9761 N   0  0  0  0  0  0  0  0  0  0  0  0
    2.9740  -25.3128   14.5125 N   0  0  0  0  0  0  0  0  0  0  0  0
    3.1340  -25.1805   15.8028 C   0  0  0  0  0  0  0  0  0  0  0  0
    1.9665  -25.2769   16.5124 N   0  0  0  0  0  0  0  0  0  0  0  0
  1  2  2  0  0  0  0
  1  6  1  0  0  0  0
  2  3  1  0  0  0  0
  3  4  2  0  0  0  0
  4  5  1  0  0  0  0
  4 10  1  0  0  0  0
  5  6  2  0  0  0  0
  5  8  1  0  0  0  0
  6  7  1  0  0  0  0
  8  9  1  0  0  0  0
  9 10  2  0  0  0  0
M  END
>  <CHROM.1>
1.08611263,-25.54242501,14.57671402,2.32917577,-0.12318342,-1.65418372

>  <Name>
ligand

>  <RI>
0

>  <Rbt.Current_Directory>
/home/itssahil/PROJECTS/Mol_Feturizer/New_Systems/rnas/4LW0

>  <Rbt.Executable>
rbdock ($Id: //depot/dev/client3/rdock/2013.1/src/exe/rbdock.cxx#4 $)

>  <Rbt.Library>
libRbt.so (2013.1, Build901 2013/11/27)

>  <Rbt.Parameter_File>
/export/apps/rDock/src/rDock_2013.1_src/data/scripts/dock_solv.prm

>  <Rbt.Receptor>
prm/blind_docking_80.prm

>  <SCORE>
-11.9318

>  <SCORE.INTER>
-11.9318

>  <SCORE.INTER.CONST>
1

>  <SCORE.INTER.POLAR>
0

>  <SCORE.INTER.ROT>
0

>  <SCORE.INTER.SOLV>
2.35367

>  <SCORE.INTER.VDW>
-12.3391

>  <SCORE.INTER.norm>
-1.19318

>  <SCORE.INTRA>
0

>  <SCORE.INTRA.DIHEDRAL>
0

>  <SCORE.INTRA.DIHEDRAL.0>
0

>  <SCORE.INTRA.POLAR>
0

>  <SCORE.INTRA.POLAR.0>
0

>  <SCORE.INTRA.REPUL>
0

>  <SCORE.INTRA.REPUL.0>
0

>  <SCORE.INTRA.SOLV>
0

>  <SCORE.INTRA.SOLV.lig_0>
-23.9151

>  <SCORE.INTRA.VDW>
0

>  <SCORE.INTRA.VDW.0>
0

>  <SCORE.INTRA.norm>
0

>  <SCORE.RESTR>
0

>  <SCORE.RESTR.CAVITY>
0

>  <SCORE.RESTR.norm>
0

>  <SCORE.SYSTEM>
0

>  <SCORE.SYSTEM.CONST>
0

>  <SCORE.SYSTEM.DIHEDRAL>
0

>  <SCORE.SYSTEM.SOLV>
0

>  <SCORE.SYSTEM.norm>
0

>  <SCORE.heavy>
10

>  <SCORE.norm>
-1.19318

>  <RMSD>
12.473

$$$$
ligand
 OpenBabel11021811503D
libRbt.so/2013.1/901 2013/11/27
 10 11  0  0  0  0  0  0  0  0999 V2000
   -0.5135  -25.8555   13.4226 N   0  0  0  0  0  0  0  0  0  0  0  0
   -0.9909  -25.7950   14.6674 C   0  0  0  0  0  0  0  0  0  0  0  0
   -0.3312  -25.5955   15.8151 N   0  0  0  0  0  0  0  0  0  0  0  0
    0.9891  -25.4658   15.5833 C   0  0  0  0  0  0  0  0  0  0  0  0
    1.6291  -25.5066   14.3592 C   0  0  0  0  0  0  0  0  0  0  0  0
    0.8204  -25.7127   13.2239 C   0  0  0  0  0  0  0  0  0  0  0  0
    1.3139  -25.7829   11.9770 N   0  0  0  0  0  0  0  0  0  0  0  0
    2.9925  -25.3276   14.5057 N   0  0  0  0  0  0  0  0  0  0  0  0
    3.1540  -25.1767   15.7937 C   0  0  0  0  0  0  0  0  0  0  0  0
    1.9867  -25.2579   16.5055 N   0  0  0  0  0  0  0  0  0  0  0  0
  1  2  2  0  0  0  0
  1  6  1  0  0  0  0
  2  3  1  0  0  0  0
  3  4  2  0  0  0  0
  4  5  1  0  0  0  0
  4 10  1  0  0  0  0
  5  6  2  0  0  0  0
  5  8  1  0  0  0  0
  6  7  1  0  0  0  0
  8  9  1  0  0  0  0
  9 10  2  0  0  0  0
M  END
>  <CHROM.1>
1.10383846,-25.54885964,14.57457673,2.33025694,-0.11934669,-1.66900447

>  <Name>
ligand

>  <RI>
0

>  <Rbt.Current_Directory>
/home/itssahil/PROJECTS/Mol_Feturizer/New_Systems/rnas/4LW0

>  <Rbt.Executable>
rbdock ($Id: //depot/dev/client3/rdock/2013.1/src/exe/rbdock.cxx#4 $)

>  <Rbt.Library>
libRbt.so (2013.1, Build901 2013/11/27)

>  <Rbt.Parameter_File>
/export/apps/rDock/src/rDock_2013.1_src/data/scripts/dock_solv.prm

>  <Rbt.Receptor>
prm/blind_docking_40.prm

>  <SCORE>
-11.9183

>  <SCORE.INTER>
-11.9183

>  <SCORE.INTER.CONST>
1

>  <SCORE.INTER.POLAR>
0

>  <SCORE.INTER.ROT>
0

>  <SCORE.INTER.SOLV>
2.34467

>  <SCORE.INTER.VDW>
-12.3271

>  <SCORE.INTER.norm>
-1.19183

>  <SCORE.INTRA>
0

>  <SCORE.INTRA.DIHEDRAL>
0

>  <SCORE.INTRA.DIHEDRAL.0>
0

>  <SCORE.INTRA.POLAR>
0

>  <SCORE.INTRA.POLAR.0>
0

>  <SCORE.INTRA.REPUL>
0

>  <SCORE.INTRA.REPUL.0>
0

>  <SCORE.INTRA.SOLV>
0

>  <SCORE.INTRA.SOLV.lig_0>
-23.9151

>  <SCORE.INTRA.VDW>
0

>  <SCORE.INTRA.VDW.0>
0

>  <SCORE.INTRA.norm>
0

>  <SCORE.RESTR>
0

>  <SCORE.RESTR.CAVITY>
0

>  <SCORE.RESTR.norm>
0

>  <SCORE.SYSTEM>
0

>  <SCORE.SYSTEM.CONST>
0

>  <SCORE.SYSTEM.DIHEDRAL>
0

>  <SCORE.SYSTEM.SOLV>
0

>  <SCORE.SYSTEM.norm>
0

>  <SCORE.heavy>
10

>  <SCORE.norm>
-1.19183

>  <RMSD>
12.475

$$$$
ligand
 OpenBabel11021811503D
libRbt.so/2013.1/901 2013/11/27
 10 11  0  0  0  0  0  0  0  0999 V2000
   -0.5249  -25.8359   13.4182 N   0  0  0  0  0  0  0  0  0  0  0  0
   -1.0021  -25.7979   14.6639 C   0  0  0  0  0  0  0  0  0  0  0  0
   -0.3422  -25.6177   15.8148 N   0  0  0  0  0  0  0  0  0  0  0  0
    0.9778  -25.4823   15.5849 C   0  0  0  0  0  0  0  0  0  0  0  0
    1.6175  -25.5008   14.3602 C   0  0  0  0  0  0  0  0  0  0  0  0
    0.8088  -25.6880   13.2216 C   0  0  0  0  0  0  0  0  0  0  0  0
    1.3020  -25.7356   11.9736 N   0  0  0  0  0  0  0  0  0  0  0  0
    2.9808  -25.3227   14.5094 N   0  0  0  0  0  0  0  0  0  0  0  0
    3.1424  -25.1942   15.7998 C   0  0  0  0  0  0  0  0  0  0  0  0
    1.9754  -25.2894   16.5104 N   0  0  0  0  0  0  0  0  0  0  0  0
  1  2  2  0  0  0  0
  1  6  1  0  0  0  0
  2  3  1  0  0  0  0
  3  4  2  0  0  0  0
  4  5  1  0  0  0  0
  4 10  1  0  0  0  0
  5  6  2  0  0  0  0
  5  8  1  0  0  0  0
  6  7  1  0  0  0  0
  8  9  1  0  0  0  0
  9 10  2  0  0  0  0
M  END
>  <CHROM.1>
1.09238233,-25.54750668,14.57492333,2.33042073,-0.12063819,-1.65141077

>  <Name>
ligand

>  <RI>
0

>  <Rbt.Current_Directory>
/home/itssahil/PROJECTS/Mol_Feturizer/New_Systems/rnas/4LW0

>  <Rbt.Executable>
rbdock ($Id: //depot/dev/client3/rdock/2013.1/src/exe/rbdock.cxx#4 $)

>  <Rbt.Library>
libRbt.so (2013.1, Build901 2013/11/27)

>  <Rbt.Parameter_File>
/export/apps/rDock/src/rDock_2013.1_src/data/scripts/dock_solv.prm

>  <Rbt.Receptor>
prm/blind_docking_40.prm

>  <SCORE>
-11.9369

>  <SCORE.INTER>
-11.9369

>  <SCORE.INTER.CONST>
1

>  <SCORE.INTER.POLAR>
0

>  <SCORE.INTER.ROT>
0

>  <SCORE.INTER.SOLV>
2.33779

>  <SCORE.INTER.VDW>
-12.3372

>  <SCORE.INTER.norm>
-1.19369

>  <SCORE.INTRA>
0

>  <SCORE.INTRA.DIHEDRAL>
0

>  <SCORE.INTRA.DIHEDRAL.0>
0

>  <SCORE.INTRA.POLAR>
0

>  <SCORE.INTRA.POLAR.0>
0

>  <SCORE.INTRA.REPUL>
0

>  <SCORE.INTRA.REPUL.0>
0

>  <SCORE.INTRA.SOLV>
0

>  <SCORE.INTRA.SOLV.lig_0>
-23.9151

>  <SCORE.INTRA.VDW>
0

>  <SCORE.INTRA.VDW.0>
0

>  <SCORE.INTRA.norm>
0

>  <SCORE.RESTR>
0

>  <SCORE.RESTR.CAVITY>
0

>  <SCORE.RESTR.norm>
0

>  <SCORE.SYSTEM>
0

>  <SCORE.SYSTEM.CONST>
0

>  <SCORE.SYSTEM.DIHEDRAL>
0

>  <SCORE.SYSTEM.SOLV>
0

>  <SCORE.SYSTEM.norm>
0

>  <SCORE.heavy>
10

>  <SCORE.norm>
-1.19369

>  <RMSD>
12.476

$$$$
ligand
 OpenBabel11021811503D
libRbt.so/2013.1/901 2013/11/27
 10 11  0  0  0  0  0  0  0  0999 V2000
   -0.5171  -25.8413   13.4114 N   0  0  0  0  0  0  0  0  0  0  0  0
   -0.9968  -25.8027   14.6561 C   0  0  0  0  0  0  0  0  0  0  0  0
   -0.3400  -25.6171   15.8078 N   0  0  0  0  0  0  0  0  0  0  0  0
    0.9799  -25.4765   15.5802 C   0  0  0  0  0  0  0  0  0  0  0  0
    1.6220  -25.4948   14.3567 C   0  0  0  0  0  0  0  0  0  0  0  0
    0.8163  -25.6880   13.2170 C   0  0  0  0  0  0  0  0  0  0  0  0
    1.3121  -25.7362   11.9700 N   0  0  0  0  0  0  0  0  0  0  0  0
    2.9842  -25.3105   14.5081 N   0  0  0  0  0  0  0  0  0  0  0  0
    3.1428  -25.1784   15.7986 C   0  0  0  0  0  0  0  0  0  0  0  0
    1.9749  -25.2771   16.5072 N   0  0  0  0  0  0  0  0  0  0  0  0
  1  2  2  0  0  0  0
  1  6  1  0  0  0  0
  2  3  1  0  0  0  0
  3  4  2  0  0  0  0
  4  5  1  0  0  0  0
  4 10  1  0  0  0  0
  5  6  2  0  0  0  0
  5  8  1  0  0  0  0
  6  7  1  0  0  0  0
  8  9  1  0  0  0  0
  9 10  2  0  0  0  0
M  END
>  <CHROM.1>
1.09667752,-25.54333184,14.57053241,2.32814554,-0.12481786,-1.65386978

>  <Name>
ligand

>  <RI>
0

>  <Rbt.Current_Directory>
/home/itssahil/PROJECTS/Mol_Feturizer/New_Systems/rnas/4LW0

>  <Rbt.Executable>
rbdock ($Id: //depot/dev/client3/rdock/2013.1/src/exe/rbdock.cxx#4 $)

>  <Rbt.Library>
libRbt.so (2013.1, Build901 2013/11/27)

>  <Rbt.Parameter_File>
/export/apps/rDock/src/rDock_2013.1_src/data/scripts/dock_solv.prm

>  <Rbt.Receptor>
prm/blind_docking_100.prm

>  <SCORE>
-11.9426

>  <SCORE.INTER>
-11.9426

>  <SCORE.INTER.CONST>
1

>  <SCORE.INTER.POLAR>
0

>  <SCORE.INTER.ROT>
0

>  <SCORE.INTER.SOLV>
2.33903

>  <SCORE.INTER.VDW>
-12.3414

>  <SCORE.INTER.norm>
-1.19426

>  <SCORE.INTRA>
0

>  <SCORE.INTRA.DIHEDRAL>
0

>  <SCORE.INTRA.DIHEDRAL.0>
0

>  <SCORE.INTRA.POLAR>
0

>  <SCORE.INTRA.POLAR.0>
0

>  <SCORE.INTRA.REPUL>
0

>  <SCORE.INTRA.REPUL.0>
0

>  <SCORE.INTRA.SOLV>
0

>  <SCORE.INTRA.SOLV.lig_0>
-23.9151

>  <SCORE.INTRA.VDW>
0

>  <SCORE.INTRA.VDW.0>
0

>  <SCORE.INTRA.norm>
0

>  <SCORE.RESTR>
0

>  <SCORE.RESTR.CAVITY>
0

>  <SCORE.RESTR.norm>
0

>  <SCORE.SYSTEM>
0

>  <SCORE.SYSTEM.CONST>
0

>  <SCORE.SYSTEM.DIHEDRAL>
0

>  <SCORE.SYSTEM.SOLV>
0

>  <SCORE.SYSTEM.norm>
0

>  <SCORE.heavy>
10

>  <SCORE.norm>
-1.19426

>  <RMSD>
12.478

$$$$
ligand
 OpenBabel11021811503D
libRbt.so/2013.1/901 2013/11/27
 10 11  0  0  0  0  0  0  0  0999 V2000
   -0.5166  -25.8403   13.4098 N   0  0  0  0  0  0  0  0  0  0  0  0
   -0.9971  -25.8036   14.6543 C   0  0  0  0  0  0  0  0  0  0  0  0
   -0.3409  -25.6210   15.8069 N   0  0  0  0  0  0  0  0  0  0  0  0
    0.9792  -25.4814   15.5805 C   0  0  0  0  0  0  0  0  0  0  0  0
    1.6223  -25.4980   14.3574 C   0  0  0  0  0  0  0  0  0  0  0  0
    0.8172  -25.6881   13.2167 C   0  0  0  0  0  0  0  0  0  0  0  0
    1.3138  -25.7344   11.9701 N   0  0  0  0  0  0  0  0  0  0  0  0
    2.9845  -25.3155   14.5102 N   0  0  0  0  0  0  0  0  0  0  0  0
    3.1424  -25.1862   15.8010 C   0  0  0  0  0  0  0  0  0  0  0  0
    1.9738  -25.2850   16.5086 N   0  0  0  0  0  0  0  0  0  0  0  0
  1  2  2  0  0  0  0
  1  6  1  0  0  0  0
  2  3  1  0  0  0  0
  3  4  2  0  0  0  0
  4  5  1  0  0  0  0
  4 10  1  0  0  0  0
  5  6  2  0  0  0  0
  5  8  1  0  0  0  0
  6  7  1  0  0  0  0
  8  9  1  0  0  0  0
  9 10  2  0  0  0  0
M  END
>  <CHROM.1>
1.09670883,-25.54641266,14.57076981,2.32750010,-0.12362910,-1.65199305

>  <Name>
ligand

>  <RI>
0

>  <Rbt.Current_Directory>
/home/itssahil/PROJECTS/Mol_Feturizer/New_Systems/rnas/4LW0

>  <Rbt.Executable>
rbdock ($Id: //depot/dev/client3/rdock/2013.1/src/exe/rbdock.cxx#4 $)

>  <Rbt.Library>
libRbt.so (2013.1, Build901 2013/11/27)

>  <Rbt.Parameter_File>
/export/apps/rDock/src/rDock_2013.1_src/data/scripts/dock_solv.prm

>  <Rbt.Receptor>
prm/blind_docking_40.prm

>  <SCORE>
-11.9412

>  <SCORE.INTER>
-11.9412

>  <SCORE.INTER.CONST>
1

>  <SCORE.INTER.POLAR>
0

>  <SCORE.INTER.ROT>
0

>  <SCORE.INTER.SOLV>
2.33295

>  <SCORE.INTER.VDW>
-12.3385

>  <SCORE.INTER.norm>
-1.19412

>  <SCORE.INTRA>
0

>  <SCORE.INTRA.DIHEDRAL>
0

>  <SCORE.INTRA.DIHEDRAL.0>
0

>  <SCORE.INTRA.POLAR>
0

>  <SCORE.INTRA.POLAR.0>
0

>  <SCORE.INTRA.REPUL>
0

>  <SCORE.INTRA.REPUL.0>
0

>  <SCORE.INTRA.SOLV>
0

>  <SCORE.INTRA.SOLV.lig_0>
-23.9151

>  <SCORE.INTRA.VDW>
0

>  <SCORE.INTRA.VDW.0>
0

>  <SCORE.INTRA.norm>
0

>  <SCORE.RESTR>
0

>  <SCORE.RESTR.CAVITY>
0

>  <SCORE.RESTR.norm>
0

>  <SCORE.SYSTEM>
0

>  <SCORE.SYSTEM.CONST>
0

>  <SCORE.SYSTEM.DIHEDRAL>
0

>  <SCORE.SYSTEM.SOLV>
0

>  <SCORE.SYSTEM.norm>
0

>  <SCORE.heavy>
10

>  <SCORE.norm>
-1.19412

>  <RMSD>
12.479

$$$$
ligand
 OpenBabel11021811503D
libRbt.so/2013.1/901 2013/11/27
 10 11  0  0  0  0  0  0  0  0999 V2000
   -0.5191  -25.8463   13.4050 N   0  0  0  0  0  0  0  0  0  0  0  0
   -1.0016  -25.8113   14.6487 C   0  0  0  0  0  0  0  0  0  0  0  0
   -0.3475  -25.6281   15.8024 N   0  0  0  0  0  0  0  0  0  0  0  0
    0.9728  -25.4857   15.5780 C   0  0  0  0  0  0  0  0  0  0  0  0
    1.6177  -25.5004   14.3559 C   0  0  0  0  0  0  0  0  0  0  0  0
    0.8146  -25.6914   13.2140 C   0  0  0  0  0  0  0  0  0  0  0  0
    1.3132  -25.7360   11.9680 N   0  0  0  0  0  0  0  0  0  0  0  0
    2.9794  -25.3154   14.5109 N   0  0  0  0  0  0  0  0  0  0  0  0
    3.1350  -25.1865   15.8020 C   0  0  0  0  0  0  0  0  0  0  0  0
    1.9656  -25.2879   16.5077 N   0  0  0  0  0  0  0  0  0  0  0  0
  1  2  2  0  0  0  0
  1  6  1  0  0  0  0
  2  3  1  0  0  0  0
  3  4  2  0  0  0  0
  4  5  1  0  0  0  0
  4 10  1  0  0  0  0
  5  6  2  0  0  0  0
  5  8  1  0  0  0  0
  6  7  1  0  0  0  0
  8  9  1  0  0  0  0
  9 10  2  0  0  0  0
M  END
>  <CHROM.1>
1.09188425,-25.54996192,14.56847554,2.32583996,-0.12546585,-1.65162270

>  <Name>
ligand

>  <RI>
0

>  <Rbt.Current_Directory>
/home/itssahil/PROJECTS/Mol_Feturizer/New_Systems/rnas/4LW0

>  <Rbt.Executable>
rbdock ($Id: //depot/dev/client3/rdock/2013.1/src/exe/rbdock.cxx#4 $)

>  <Rbt.Library>
libRbt.so (2013.1, Build901 2013/11/27)

>  <Rbt.Parameter_File>
/export/apps/rDock/src/rDock_2013.1_src/data/scripts/dock_solv.prm

>  <Rbt.Receptor>
prm/blind_docking_40.prm

>  <SCORE>
-11.9403

>  <SCORE.INTER>
-11.9403

>  <SCORE.INTER.CONST>
1

>  <SCORE.INTER.POLAR>
0

>  <SCORE.INTER.ROT>
0

>  <SCORE.INTER.SOLV>
2.32932

>  <SCORE.INTER.VDW>
-12.3366

>  <SCORE.INTER.norm>
-1.19403

>  <SCORE.INTRA>
0

>  <SCORE.INTRA.DIHEDRAL>
0

>  <SCORE.INTRA.DIHEDRAL.0>
0

>  <SCORE.INTRA.POLAR>
0

>  <SCORE.INTRA.POLAR.0>
0

>  <SCORE.INTRA.REPUL>
0

>  <SCORE.INTRA.REPUL.0>
0

>  <SCORE.INTRA.SOLV>
0

>  <SCORE.INTRA.SOLV.lig_0>
-23.9151

>  <SCORE.INTRA.VDW>
0

>  <SCORE.INTRA.VDW.0>
0

>  <SCORE.INTRA.norm>
0

>  <SCORE.RESTR>
0

>  <SCORE.RESTR.CAVITY>
0

>  <SCORE.RESTR.norm>
0

>  <SCORE.SYSTEM>
0

>  <SCORE.SYSTEM.CONST>
0

>  <SCORE.SYSTEM.DIHEDRAL>
0

>  <SCORE.SYSTEM.SOLV>
0

>  <SCORE.SYSTEM.norm>
0

>  <SCORE.heavy>
10

>  <SCORE.norm>
-1.19403

>  <RMSD>
12.482

$$$$
ligand
 OpenBabel11021811503D
libRbt.so/2013.1/901 2013/11/27
 10 11  0  0  0  0  0  0  0  0999 V2000
   -0.5121  -25.8476   13.4015 N   0  0  0  0  0  0  0  0  0  0  0  0
   -0.9966  -25.8130   14.6445 C   0  0  0  0  0  0  0  0  0  0  0  0
   -0.3447  -25.6277   15.7991 N   0  0  0  0  0  0  0  0  0  0  0  0
    0.9756  -25.4824   15.5767 C   0  0  0  0  0  0  0  0  0  0  0  0
    1.6224  -25.4962   14.3555 C   0  0  0  0  0  0  0  0  0  0  0  0
    0.8216  -25.6896   13.2125 C   0  0  0  0  0  0  0  0  0  0  0  0
    1.3222  -25.7337   11.9673 N   0  0  0  0  0  0  0  0  0  0  0  0
    2.9834  -25.3078   14.5125 N   0  0  0  0  0  0  0  0  0  0  0  0
    3.1367  -25.1779   15.8038 C   0  0  0  0  0  0  0  0  0  0  0  0
    1.9665  -25.2818   16.5078 N   0  0  0  0  0  0  0  0  0  0  0  0
  1  2  2  0  0  0  0
  1  6  1  0  0  0  0
  2  3  1  0  0  0  0
  3  4  2  0  0  0  0
  4  5  1  0  0  0  0
  4 10  1  0  0  0  0
  5  6  2  0  0  0  0
  5  8  1  0  0  0  0
  6  7  1  0  0  0  0
  8  9  1  0  0  0  0
  9 10  2  0  0  0  0
M  END
>  <CHROM.1>
1.09638903,-25.54682121,14.56734159,2.32410498,-0.12769068,-1.65234668

>  <Name>
ligand

>  <RI>
0

>  <Rbt.Current_Directory>
/home/itssahil/PROJECTS/Mol_Feturizer/New_Systems/rnas/4LW0

>  <Rbt.Executable>
rbdock ($Id: //depot/dev/client3/rdock/2013.1/src/exe/rbdock.cxx#4 $)

>  <Rbt.Library>
libRbt.so (2013.1, Build901 2013/11/27)

>  <Rbt.Parameter_File>
/export/apps/rDock/src/rDock_2013.1_src/data/scripts/dock_solv.prm

>  <Rbt.Receptor>
prm/blind_docking_40.prm

>  <SCORE>
-11.9396

>  <SCORE.INTER>
-11.9396

>  <SCORE.INTER.CONST>
1

>  <SCORE.INTER.POLAR>
0

>  <SCORE.INTER.ROT>
0

>  <SCORE.INTER.SOLV>
2.33133

>  <SCORE.INTER.VDW>
-12.3369

>  <SCORE.INTER.norm>
-1.19396

>  <SCORE.INTRA>
0

>  <SCORE.INTRA.DIHEDRAL>
0

>  <SCORE.INTRA.DIHEDRAL.0>
0

>  <SCORE.INTRA.POLAR>
0

>  <SCORE.INTRA.POLAR.0>
0

>  <SCORE.INTRA.REPUL>
0

>  <SCORE.INTRA.REPUL.0>
0

>  <SCORE.INTRA.SOLV>
0

>  <SCORE.INTRA.SOLV.lig_0>
-23.9151

>  <SCORE.INTRA.VDW>
0

>  <SCORE.INTRA.VDW.0>
0

>  <SCORE.INTRA.norm>
0

>  <SCORE.RESTR>
0

>  <SCORE.RESTR.CAVITY>
0

>  <SCORE.RESTR.norm>
0

>  <SCORE.SYSTEM>
0

>  <SCORE.SYSTEM.CONST>
0

>  <SCORE.SYSTEM.DIHEDRAL>
0

>  <SCORE.SYSTEM.SOLV>
0

>  <SCORE.SYSTEM.norm>
0

>  <SCORE.heavy>
10

>  <SCORE.norm>
-1.19396

>  <RMSD>
12.482

$$$$
ligand
 OpenBabel11021811503D
libRbt.so/2013.1/901 2013/11/27
 10 11  0  0  0  0  0  0  0  0999 V2000
   -0.5009  -25.8394   13.4080 N   0  0  0  0  0  0  0  0  0  0  0  0
   -0.9784  -25.8037   14.6537 C   0  0  0  0  0  0  0  0  0  0  0  0
   -0.3193  -25.6228   15.8048 N   0  0  0  0  0  0  0  0  0  0  0  0
    1.0004  -25.4837   15.5754 C   0  0  0  0  0  0  0  0  0  0  0  0
    1.6405  -25.4994   14.3507 C   0  0  0  0  0  0  0  0  0  0  0  0
    0.8325  -25.6877   13.2118 C   0  0  0  0  0  0  0  0  0  0  0  0
    1.3260  -25.7330   11.9639 N   0  0  0  0  0  0  0  0  0  0  0  0
    3.0032  -25.3179   14.5004 N   0  0  0  0  0  0  0  0  0  0  0  0
    3.1642  -25.1901   15.7910 C   0  0  0  0  0  0  0  0  0  0  0  0
    1.9973  -25.2889   16.5012 N   0  0  0  0  0  0  0  0  0  0  0  0
  1  2  2  0  0  0  0
  1  6  1  0  0  0  0
  2  3  1  0  0  0  0
  3  4  2  0  0  0  0
  4  5  1  0  0  0  0
  4 10  1  0  0  0  0
  5  6  2  0  0  0  0
  5  8  1  0  0  0  0
  6  7  1  0  0  0  0
  8  9  1  0  0  0  0
  9 10  2  0  0  0  0
M  END
>  <CHROM.1>
1.11539244,-25.54770117,14.56530833,2.32998890,-0.12324657,-1.65059221

>  <Name>
ligand

>  <RI>
0

>  <Rbt.Current_Directory>
/home/itssahil/PROJECTS/Mol_Feturizer/New_Systems/rnas/4LW0

>  <Rbt.Executable>
rbdock ($Id: //depot/dev/client3/rdock/2013.1/src/exe/rbdock.cxx#4 $)

>  <Rbt.Library>
libRbt.so (2013.1, Build901 2013/11/27)

>  <Rbt.Parameter_File>
/export/apps/rDock/src/rDock_2013.1_src/data/scripts/dock_solv.prm

>  <Rbt.Receptor>
prm/blind_docking_40.prm

>  <SCORE>
-11.9132

>  <SCORE.INTER>
-11.9132

>  <SCORE.INTER.CONST>
1

>  <SCORE.INTER.POLAR>
0

>  <SCORE.INTER.ROT>
0

>  <SCORE.INTER.SOLV>
2.31454

>  <SCORE.INTER.VDW>
-12.3137

>  <SCORE.INTER.norm>
-1.19132

>  <SCORE.INTRA>
0

>  <SCORE.INTRA.DIHEDRAL>
0

>  <SCORE.INTRA.DIHEDRAL.0>
0

>  <SCORE.INTRA.POLAR>
0

>  <SCORE.INTRA.POLAR.0>
0

>  <SCORE.INTRA.REPUL>
0

>  <SCORE.INTRA.REPUL.0>
0

>  <SCORE.INTRA.SOLV>
0

>  <SCORE.INTRA.SOLV.lig_0>
-23.9151

>  <SCORE.INTRA.VDW>
0

>  <SCORE.INTRA.VDW.0>
0

>  <SCORE.INTRA.norm>
0

>  <SCORE.RESTR>
0

>  <SCORE.RESTR.CAVITY>
0

>  <SCORE.RESTR.norm>
0

>  <SCORE.SYSTEM>
0

>  <SCORE.SYSTEM.CONST>
0

>  <SCORE.SYSTEM.DIHEDRAL>
0

>  <SCORE.SYSTEM.SOLV>
0

>  <SCORE.SYSTEM.norm>
0

>  <SCORE.heavy>
10

>  <SCORE.norm>
-1.19132

>  <RMSD>
12.483

$$$$
ligand
 OpenBabel11021811503D
libRbt.so/2013.1/901 2013/11/27
 10 11  0  0  0  0  0  0  0  0999 V2000
   -0.4815  -25.8315   13.3919 N   0  0  0  0  0  0  0  0  0  0  0  0
   -0.9633  -25.8219   14.6365 C   0  0  0  0  0  0  0  0  0  0  0  0
   -0.3098  -25.6527   15.7926 N   0  0  0  0  0  0  0  0  0  0  0  0
    1.0090  -25.4952   15.5699 C   0  0  0  0  0  0  0  0  0  0  0  0
    1.6529  -25.4833   14.3472 C   0  0  0  0  0  0  0  0  0  0  0  0
    0.8507  -25.6617   13.2027 C   0  0  0  0  0  0  0  0  0  0  0  0
    1.3486  -25.6807   11.9559 N   0  0  0  0  0  0  0  0  0  0  0  0
    3.0131  -25.2891   14.5044 N   0  0  0  0  0  0  0  0  0  0  0  0
    3.1686  -25.1810   15.7975 C   0  0  0  0  0  0  0  0  0  0  0  0
    2.0007  -25.3046   16.5021 N   0  0  0  0  0  0  0  0  0  0  0  0
  1  2  2  0  0  0  0
  1  6  1  0  0  0  0
  2  3  1  0  0  0  0
  3  4  2  0  0  0  0
  4  5  1  0  0  0  0
  4 10  1  0  0  0  0
  5  6  2  0  0  0  0
  5  8  1  0  0  0  0
  6  7  1  0  0  0  0
  8  9  1  0  0  0  0
  9 10  2  0  0  0  0
M  END
>  <CHROM.1>
1.12777219,-25.54106057,14.55928590,2.32595534,-0.13418455,-1.63450492

>  <Name>
ligand

>  <RI>
0

>  <Rbt.Current_Directory>
/home/itssahil/PROJECTS/Mol_Feturizer/New_Systems/rnas/4LW0

>  <Rbt.Executable>
rbdock ($Id: //depot/dev/client3/rdock/2013.1/src/exe/rbdock.cxx#4 $)

>  <Rbt.Library>
libRbt.so (2013.1, Build901 2013/11/27)

>  <Rbt.Parameter_File>
/export/apps/rDock/src/rDock_2013.1_src/data/scripts/dock_solv.prm

>  <Rbt.Receptor>
prm/blind_docking_40.prm

>  <SCORE>
-11.8878

>  <SCORE.INTER>
-11.8878

>  <SCORE.INTER.CONST>
1

>  <SCORE.INTER.POLAR>
0

>  <SCORE.INTER.ROT>
0

>  <SCORE.INTER.SOLV>
2.31117

>  <SCORE.INTER.VDW>
-12.2956

>  <SCORE.INTER.norm>
-1.18878

>  <SCORE.INTRA>
0

>  <SCORE.INTRA.DIHEDRAL>
0

>  <SCORE.INTRA.DIHEDRAL.0>
0

>  <SCORE.INTRA.POLAR>
0

>  <SCORE.INTRA.POLAR.0>
0

>  <SCORE.INTRA.REPUL>
0

>  <SCORE.INTRA.REPUL.0>
0

>  <SCORE.INTRA.SOLV>
0

>  <SCORE.INTRA.SOLV.lig_0>
-23.9151

>  <SCORE.INTRA.VDW>
0

>  <SCORE.INTRA.VDW.0>
0

>  <SCORE.INTRA.norm>
0

>  <SCORE.RESTR>
0

>  <SCORE.RESTR.CAVITY>
0

>  <SCORE.RESTR.norm>
0

>  <SCORE.SYSTEM>
0

>  <SCORE.SYSTEM.CONST>
0

>  <SCORE.SYSTEM.DIHEDRAL>
0

>  <SCORE.SYSTEM.SOLV>
0

>  <SCORE.SYSTEM.norm>
0

>  <SCORE.heavy>
10

>  <SCORE.norm>
-1.18878

>  <RMSD>
12.485

$$$$
ligand
 OpenBabel11021811503D
libRbt.so/2013.1/901 2013/11/27
 10 11  0  0  0  0  0  0  0  0999 V2000
   -0.4861  -25.7910   13.3603 N   0  0  0  0  0  0  0  0  0  0  0  0
   -0.9826  -25.7402   14.5980 C   0  0  0  0  0  0  0  0  0  0  0  0
   -0.3384  -25.5675   15.7588 N   0  0  0  0  0  0  0  0  0  0  0  0
    0.9874  -25.4560   15.5499 C   0  0  0  0  0  0  0  0  0  0  0  0
    1.6464  -25.4901   14.3358 C   0  0  0  0  0  0  0  0  0  0  0  0
    0.8530  -25.6671   13.1849 C   0  0  0  0  0  0  0  0  0  0  0  0
    1.3654  -25.7278   11.9452 N   0  0  0  0  0  0  0  0  0  0  0  0
    3.0100  -25.3353   14.5066 N   0  0  0  0  0  0  0  0  0  0  0  0
    3.1530  -25.2050   15.7990 C   0  0  0  0  0  0  0  0  0  0  0  0
    1.9731  -25.2772   16.4909 N   0  0  0  0  0  0  0  0  0  0  0  0
  1  2  2  0  0  0  0
  1  6  1  0  0  0  0
  2  3  1  0  0  0  0
  3  4  2  0  0  0  0
  4  5  1  0  0  0  0
  4 10  1  0  0  0  0
  5  6  2  0  0  0  0
  5  8  1  0  0  0  0
  6  7  1  0  0  0  0
  8  9  1  0  0  0  0
  9 10  2  0  0  0  0
M  END
>  <CHROM.1>
1.11709652,-25.52681266,14.54214785,2.31563889,-0.10182625,-1.65648327

>  <Name>
ligand

>  <RI>
0

>  <Rbt.Current_Directory>
/home/itssahil/PROJECTS/Mol_Feturizer/New_Systems/rnas/4LW0

>  <Rbt.Executable>
rbdock ($Id: //depot/dev/client3/rdock/2013.1/src/exe/rbdock.cxx#4 $)

>  <Rbt.Library>
libRbt.so (2013.1, Build901 2013/11/27)

>  <Rbt.Parameter_File>
/export/apps/rDock/src/rDock_2013.1_src/data/scripts/dock_solv.prm

>  <Rbt.Receptor>
prm/blind_docking_80.prm

>  <SCORE>
-11.8638

>  <SCORE.INTER>
-11.8638

>  <SCORE.INTER.CONST>
1

>  <SCORE.INTER.POLAR>
0

>  <SCORE.INTER.ROT>
0

>  <SCORE.INTER.SOLV>
2.23695

>  <SCORE.INTER.VDW>
-12.2548

>  <SCORE.INTER.norm>
-1.18638

>  <SCORE.INTRA>
0

>  <SCORE.INTRA.DIHEDRAL>
0

>  <SCORE.INTRA.DIHEDRAL.0>
0

>  <SCORE.INTRA.POLAR>
0

>  <SCORE.INTRA.POLAR.0>
0

>  <SCORE.INTRA.REPUL>
0

>  <SCORE.INTRA.REPUL.0>
0

>  <SCORE.INTRA.SOLV>
0

>  <SCORE.INTRA.SOLV.lig_0>
-23.9151

>  <SCORE.INTRA.VDW>
0

>  <SCORE.INTRA.VDW.0>
0

>  <SCORE.INTRA.norm>
0

>  <SCORE.RESTR>
0

>  <SCORE.RESTR.CAVITY>
0

>  <SCORE.RESTR.norm>
0

>  <SCORE.SYSTEM>
0

>  <SCORE.SYSTEM.CONST>
0

>  <SCORE.SYSTEM.DIHEDRAL>
0

>  <SCORE.SYSTEM.SOLV>
0

>  <SCORE.SYSTEM.norm>
0

>  <SCORE.heavy>
10

>  <SCORE.norm>
-1.18638

>  <RMSD>
12.493

$$$$
ligand
 OpenBabel11021811503D
libRbt.so/2013.1/901 2013/11/27
 10 11  0  0  0  0  0  0  0  0999 V2000
   -7.3749  -26.4098   30.4325 N   0  0  0  0  0  0  0  0  0  0  0  0
   -6.0862  -26.2178   30.7216 C   0  0  0  0  0  0  0  0  0  0  0  0
   -5.0654  -27.0798   30.6375 N   0  0  0  0  0  0  0  0  0  0  0  0
   -5.4975  -28.2817   30.2104 C   0  0  0  0  0  0  0  0  0  0  0  0
   -6.7915  -28.6321   29.8752 C   0  0  0  0  0  0  0  0  0  0  0  0
   -7.7748  -27.6303   29.9969 C   0  0  0  0  0  0  0  0  0  0  0  0
   -9.0707  -27.8387   29.7137 N   0  0  0  0  0  0  0  0  0  0  0  0
   -6.8591  -29.9526   29.4699 N   0  0  0  0  0  0  0  0  0  0  0  0
   -5.6247  -30.3727   29.5575 C   0  0  0  0  0  0  0  0  0  0  0  0
   -4.7515  -29.4180   30.0067 N   0  0  0  0  0  0  0  0  0  0  0  0
  1  2  2  0  0  0  0
  1  6  1  0  0  0  0
  2  3  1  0  0  0  0
  3  4  2  0  0  0  0
  4  5  1  0  0  0  0
  4 10  1  0  0  0  0
  5  6  2  0  0  0  0
  5  8  1  0  0  0  0
  6  7  1  0  0  0  0
  8  9  1  0  0  0  0
  9 10  2  0  0  0  0
M  END
>  <CHROM.1>
-6.49995435,-28.18000178,30.06140296,-2.21414761,0.16728279,-2.85219499

>  <Name>
ligand

>  <RI>
0

>  <Rbt.Current_Directory>
/home/itssahil/PROJECTS/Mol_Feturizer/New_Systems/rnas/4LW0

>  <Rbt.Executable>
rbdock ($Id: //depot/dev/client3/rdock/2013.1/src/exe/rbdock.cxx#4 $)

>  <Rbt.Library>
libRbt.so (2013.1, Build901 2013/11/27)

>  <Rbt.Parameter_File>
/export/apps/rDock/src/rDock_2013.1_src/data/scripts/dock_solv.prm

>  <Rbt.Receptor>
prm/blind_docking_60.prm

>  <SCORE>
-10.2364

>  <SCORE.INTER>
-10.2364

>  <SCORE.INTER.CONST>
1

>  <SCORE.INTER.POLAR>
0

>  <SCORE.INTER.ROT>
0

>  <SCORE.INTER.SOLV>
4.31689

>  <SCORE.INTER.VDW>
-11.8632

>  <SCORE.INTER.norm>
-1.02364

>  <SCORE.INTRA>
0

>  <SCORE.INTRA.DIHEDRAL>
0

>  <SCORE.INTRA.DIHEDRAL.0>
0

>  <SCORE.INTRA.POLAR>
0

>  <SCORE.INTRA.POLAR.0>
0

>  <SCORE.INTRA.REPUL>
0

>  <SCORE.INTRA.REPUL.0>
0

>  <SCORE.INTRA.SOLV>
0

>  <SCORE.INTRA.SOLV.lig_0>
-23.9151

>  <SCORE.INTRA.VDW>
0

>  <SCORE.INTRA.VDW.0>
0

>  <SCORE.INTRA.norm>
0

>  <SCORE.RESTR>
0

>  <SCORE.RESTR.CAVITY>
0

>  <SCORE.RESTR.norm>
0

>  <SCORE.SYSTEM>
0

>  <SCORE.SYSTEM.CONST>
0

>  <SCORE.SYSTEM.DIHEDRAL>
0

>  <SCORE.SYSTEM.SOLV>
0

>  <SCORE.SYSTEM.norm>
0

>  <SCORE.heavy>
10

>  <SCORE.norm>
-1.02364

>  <RMSD>
12.629

$$$$
ligand
 OpenBabel11021811503D
libRbt.so/2013.1/901 2013/11/27
 10 11  0  0  0  0  0  0  0  0999 V2000
    3.1098  -25.4563   13.7132 N   0  0  0  0  0  0  0  0  0  0  0  0
    3.1317  -24.9992   14.9668 C   0  0  0  0  0  0  0  0  0  0  0  0
    2.9724  -25.6724   16.1130 N   0  0  0  0  0  0  0  0  0  0  0  0
    2.7485  -26.9772   15.8660 C   0  0  0  0  0  0  0  0  0  0  0  0
    2.6958  -27.5954   14.6312 C   0  0  0  0  0  0  0  0  0  0  0  0
    2.8899  -26.7776   13.5003 C   0  0  0  0  0  0  0  0  0  0  0  0
    2.8546  -27.2473   12.2429 N   0  0  0  0  0  0  0  0  0  0  0  0
    2.4538  -28.9504   14.7644 N   0  0  0  0  0  0  0  0  0  0  0  0
    2.3721  -29.1305   16.0562 C   0  0  0  0  0  0  0  0  0  0  0  0
    2.5315  -27.9794   16.7811 N   0  0  0  0  0  0  0  0  0  0  0  0
  1  2  2  0  0  0  0
  1  6  1  0  0  0  0
  2  3  1  0  0  0  0
  3  4  2  0  0  0  0
  4  5  1  0  0  0  0
  4 10  1  0  0  0  0
  5  6  2  0  0  0  0
  5  8  1  0  0  0  0
  6  7  1  0  0  0  0
  8  9  1  0  0  0  0
  9 10  2  0  0  0  0
M  END
>  <CHROM.1>
2.77666352,-27.07722389,14.85270658,-0.55412916,1.39301285,1.33181128

>  <Name>
ligand

>  <RI>
0

>  <Rbt.Current_Directory>
/home/itssahil/PROJECTS/Mol_Feturizer/New_Systems/rnas/4LW0

>  <Rbt.Executable>
rbdock ($Id: //depot/dev/client3/rdock/2013.1/src/exe/rbdock.cxx#4 $)

>  <Rbt.Library>
libRbt.so (2013.1, Build901 2013/11/27)

>  <Rbt.Parameter_File>
/export/apps/rDock/src/rDock_2013.1_src/data/scripts/dock_solv.prm

>  <Rbt.Receptor>
prm/blind_docking_40.prm

>  <SCORE>
-7.90366

>  <SCORE.INTER>
-7.90366

>  <SCORE.INTER.CONST>
1

>  <SCORE.INTER.POLAR>
0

>  <SCORE.INTER.ROT>
0

>  <SCORE.INTER.SOLV>
2.87304

>  <SCORE.INTER.VDW>
-9.82679

>  <SCORE.INTER.norm>
-0.790366

>  <SCORE.INTRA>
0

>  <SCORE.INTRA.DIHEDRAL>
0

>  <SCORE.INTRA.DIHEDRAL.0>
0

>  <SCORE.INTRA.POLAR>
0

>  <SCORE.INTRA.POLAR.0>
0

>  <SCORE.INTRA.REPUL>
0

>  <SCORE.INTRA.REPUL.0>
0

>  <SCORE.INTRA.SOLV>
0

>  <SCORE.INTRA.SOLV.lig_0>
-23.9151

>  <SCORE.INTRA.VDW>
0

>  <SCORE.INTRA.VDW.0>
0

>  <SCORE.INTRA.norm>
0

>  <SCORE.RESTR>
0

>  <SCORE.RESTR.CAVITY>
0

>  <SCORE.RESTR.norm>
0

>  <SCORE.SYSTEM>
0

>  <SCORE.SYSTEM.CONST>
0

>  <SCORE.SYSTEM.DIHEDRAL>
0

>  <SCORE.SYSTEM.SOLV>
0

>  <SCORE.SYSTEM.norm>
0

>  <SCORE.heavy>
10

>  <SCORE.norm>
-0.790366

>  <RMSD>
12.687

$$$$
ligand
 OpenBabel11021811503D
libRbt.so/2013.1/901 2013/11/27
 10 11  0  0  0  0  0  0  0  0999 V2000
   -5.8594  -27.1818   32.4237 N   0  0  0  0  0  0  0  0  0  0  0  0
   -5.8384  -28.3601   33.0499 C   0  0  0  0  0  0  0  0  0  0  0  0
   -5.8375  -29.5929   32.5279 N   0  0  0  0  0  0  0  0  0  0  0  0
   -5.8819  -29.5352   31.1831 C   0  0  0  0  0  0  0  0  0  0  0  0
   -5.9089  -28.3988   30.3973 C   0  0  0  0  0  0  0  0  0  0  0  0
   -5.8956  -27.1597   31.0681 C   0  0  0  0  0  0  0  0  0  0  0  0
   -5.9283  -25.9803   30.4271 N   0  0  0  0  0  0  0  0  0  0  0  0
   -5.9439  -28.7249   29.0539 N   0  0  0  0  0  0  0  0  0  0  0  0
   -5.9305  -30.0317   29.0463 C   0  0  0  0  0  0  0  0  0  0  0  0
   -5.9024  -30.5866   30.2982 N   0  0  0  0  0  0  0  0  0  0  0  0
  1  2  2  0  0  0  0
  1  6  1  0  0  0  0
  2  3  1  0  0  0  0
  3  4  2  0  0  0  0
  4  5  1  0  0  0  0
  4 10  1  0  0  0  0
  5  6  2  0  0  0  0
  5  8  1  0  0  0  0
  6  7  1  0  0  0  0
  8  9  1  0  0  0  0
  9 10  2  0  0  0  0
M  END
>  <CHROM.1>
-5.89280763,-28.54431255,30.94744825,-1.17319194,1.54213060,-2.89935155

>  <Name>
ligand

>  <RI>
0

>  <Rbt.Current_Directory>
/home/itssahil/PROJECTS/Mol_Feturizer/New_Systems/rnas/4LW0

>  <Rbt.Executable>
rbdock ($Id: //depot/dev/client3/rdock/2013.1/src/exe/rbdock.cxx#4 $)

>  <Rbt.Library>
libRbt.so (2013.1, Build901 2013/11/27)

>  <Rbt.Parameter_File>
/export/apps/rDock/src/rDock_2013.1_src/data/scripts/dock_solv.prm

>  <Rbt.Receptor>
prm/blind_docking_60.prm

>  <SCORE>
-9.21245

>  <SCORE.INTER>
-9.21245

>  <SCORE.INTER.CONST>
1

>  <SCORE.INTER.POLAR>
0

>  <SCORE.INTER.ROT>
0

>  <SCORE.INTER.SOLV>
7.09113

>  <SCORE.INTER.VDW>
-12.1053

>  <SCORE.INTER.norm>
-0.921245

>  <SCORE.INTRA>
0

>  <SCORE.INTRA.DIHEDRAL>
0

>  <SCORE.INTRA.DIHEDRAL.0>
0

>  <SCORE.INTRA.POLAR>
0

>  <SCORE.INTRA.POLAR.0>
0

>  <SCORE.INTRA.REPUL>
0

>  <SCORE.INTRA.REPUL.0>
0

>  <SCORE.INTRA.SOLV>
0

>  <SCORE.INTRA.SOLV.lig_0>
-23.9151

>  <SCORE.INTRA.VDW>
0

>  <SCORE.INTRA.VDW.0>
0

>  <SCORE.INTRA.norm>
0

>  <SCORE.RESTR>
0

>  <SCORE.RESTR.CAVITY>
0

>  <SCORE.RESTR.norm>
0

>  <SCORE.SYSTEM>
0

>  <SCORE.SYSTEM.CONST>
0

>  <SCORE.SYSTEM.DIHEDRAL>
0

>  <SCORE.SYSTEM.SOLV>
0

>  <SCORE.SYSTEM.norm>
0

>  <SCORE.heavy>
10

>  <SCORE.norm>
-0.921245

>  <RMSD>
12.793

$$$$
ligand
 OpenBabel11021811503D
libRbt.so/2013.1/901 2013/11/27
 10 11  0  0  0  0  0  0  0  0999 V2000
   -8.0779  -26.7057   30.1772 N   0  0  0  0  0  0  0  0  0  0  0  0
   -8.8526  -27.4781   29.4128 C   0  0  0  0  0  0  0  0  0  0  0  0
   -8.6434  -28.7330   28.9960 N   0  0  0  0  0  0  0  0  0  0  0  0
   -7.4576  -29.1871   29.4449 C   0  0  0  0  0  0  0  0  0  0  0  0
   -6.5512  -28.5099   30.2383 C   0  0  0  0  0  0  0  0  0  0  0  0
   -6.8936  -27.1972   30.6190 C   0  0  0  0  0  0  0  0  0  0  0  0
   -6.1004  -26.4255   31.3794 N   0  0  0  0  0  0  0  0  0  0  0  0
   -5.4452  -29.2947   30.5092 N   0  0  0  0  0  0  0  0  0  0  0  0
   -5.6975  -30.4186   29.8920 C   0  0  0  0  0  0  0  0  0  0  0  0
   -6.8919  -30.4196   29.2217 N   0  0  0  0  0  0  0  0  0  0  0  0
  1  2  2  0  0  0  0
  1  6  1  0  0  0  0
  2  3  1  0  0  0  0
  3  4  2  0  0  0  0
  4  5  1  0  0  0  0
  4 10  1  0  0  0  0
  5  6  2  0  0  0  0
  5  8  1  0  0  0  0
  6  7  1  0  0  0  0
  8  9  1  0  0  0  0
  9 10  2  0  0  0  0
M  END
>  <CHROM.1>
-7.05887271,-28.42763681,29.99424497,1.98885008,-0.46785258,0.40657064

>  <Name>
ligand

>  <RI>
0

>  <Rbt.Current_Directory>
/home/itssahil/PROJECTS/Mol_Feturizer/New_Systems/rnas/4LW0

>  <Rbt.Executable>
rbdock ($Id: //depot/dev/client3/rdock/2013.1/src/exe/rbdock.cxx#4 $)

>  <Rbt.Library>
libRbt.so (2013.1, Build901 2013/11/27)

>  <Rbt.Parameter_File>
/export/apps/rDock/src/rDock_2013.1_src/data/scripts/dock_solv.prm

>  <Rbt.Receptor>
prm/blind_docking_100.prm

>  <SCORE>
-10.8666

>  <SCORE.INTER>
-10.8666

>  <SCORE.INTER.CONST>
1

>  <SCORE.INTER.POLAR>
0

>  <SCORE.INTER.ROT>
0

>  <SCORE.INTER.SOLV>
2.92491

>  <SCORE.INTER.VDW>
-11.8194

>  <SCORE.INTER.norm>
-1.08666

>  <SCORE.INTRA>
0

>  <SCORE.INTRA.DIHEDRAL>
0

>  <SCORE.INTRA.DIHEDRAL.0>
0

>  <SCORE.INTRA.POLAR>
0

>  <SCORE.INTRA.POLAR.0>
0

>  <SCORE.INTRA.REPUL>
0

>  <SCORE.INTRA.REPUL.0>
0

>  <SCORE.INTRA.SOLV>
0

>  <SCORE.INTRA.SOLV.lig_0>
-23.9151

>  <SCORE.INTRA.VDW>
0

>  <SCORE.INTRA.VDW.0>
0

>  <SCORE.INTRA.norm>
0

>  <SCORE.RESTR>
0

>  <SCORE.RESTR.CAVITY>
0

>  <SCORE.RESTR.norm>
0

>  <SCORE.SYSTEM>
0

>  <SCORE.SYSTEM.CONST>
0

>  <SCORE.SYSTEM.DIHEDRAL>
0

>  <SCORE.SYSTEM.SOLV>
0

>  <SCORE.SYSTEM.norm>
0

>  <SCORE.heavy>
10

>  <SCORE.norm>
-1.08666

>  <RMSD>
13.293

$$$$
ligand
 OpenBabel11021811503D
libRbt.so/2013.1/901 2013/11/27
 10 11  0  0  0  0  0  0  0  0999 V2000
   -7.2660  -27.6869   32.0736 N   0  0  0  0  0  0  0  0  0  0  0  0
   -6.2477  -28.3776   32.5902 C   0  0  0  0  0  0  0  0  0  0  0  0
   -5.4458  -29.2697   31.9956 N   0  0  0  0  0  0  0  0  0  0  0  0
   -5.8024  -29.4394   30.7081 C   0  0  0  0  0  0  0  0  0  0  0  0
   -6.8275  -28.8020   30.0355 C   0  0  0  0  0  0  0  0  0  0  0  0
   -7.5934  -27.8759   30.7712 C   0  0  0  0  0  0  0  0  0  0  0  0
   -8.6232  -27.1949   30.2432 N   0  0  0  0  0  0  0  0  0  0  0  0
   -6.8939  -29.2213   28.7193 N   0  0  0  0  0  0  0  0  0  0  0  0
   -5.9200  -30.0864   28.6147 C   0  0  0  0  0  0  0  0  0  0  0  0
   -5.2255  -30.2733   29.7803 N   0  0  0  0  0  0  0  0  0  0  0  0
  1  2  2  0  0  0  0
  1  6  1  0  0  0  0
  2  3  1  0  0  0  0
  3  4  2  0  0  0  0
  4  5  1  0  0  0  0
  4 10  1  0  0  0  0
  5  6  2  0  0  0  0
  5  8  1  0  0  0  0
  6  7  1  0  0  0  0
  8  9  1  0  0  0  0
  9 10  2  0  0  0  0
M  END
>  <CHROM.1>
-6.59268364,-28.81555991,30.55389015,-2.20199873,0.67762378,-1.91810605

>  <Name>
ligand

>  <RI>
0

>  <Rbt.Current_Directory>
/home/itssahil/PROJECTS/Mol_Feturizer/New_Systems/rnas/4LW0

>  <Rbt.Executable>
rbdock ($Id: //depot/dev/client3/rdock/2013.1/src/exe/rbdock.cxx#4 $)

>  <Rbt.Library>
libRbt.so (2013.1, Build901 2013/11/27)

>  <Rbt.Parameter_File>
/export/apps/rDock/src/rDock_2013.1_src/data/scripts/dock_solv.prm

>  <Rbt.Receptor>
prm/blind_docking_80.prm

>  <SCORE>
-9.10929

>  <SCORE.INTER>
-9.10929

>  <SCORE.INTER.CONST>
1

>  <SCORE.INTER.POLAR>
0

>  <SCORE.INTER.ROT>
0

>  <SCORE.INTER.SOLV>
5.09489

>  <SCORE.INTER.VDW>
-11.3712

>  <SCORE.INTER.norm>
-0.910929

>  <SCORE.INTRA>
0

>  <SCORE.INTRA.DIHEDRAL>
0

>  <SCORE.INTRA.DIHEDRAL.0>
0

>  <SCORE.INTRA.POLAR>
0

>  <SCORE.INTRA.POLAR.0>
0

>  <SCORE.INTRA.REPUL>
0

>  <SCORE.INTRA.REPUL.0>
0

>  <SCORE.INTRA.SOLV>
0

>  <SCORE.INTRA.SOLV.lig_0>
-23.9151

>  <SCORE.INTRA.VDW>
0

>  <SCORE.INTRA.VDW.0>
0

>  <SCORE.INTRA.norm>
0

>  <SCORE.RESTR>
0

>  <SCORE.RESTR.CAVITY>
0

>  <SCORE.RESTR.norm>
0

>  <SCORE.SYSTEM>
0

>  <SCORE.SYSTEM.CONST>
0

>  <SCORE.SYSTEM.DIHEDRAL>
0

>  <SCORE.SYSTEM.SOLV>
0

>  <SCORE.SYSTEM.norm>
0

>  <SCORE.heavy>
10

>  <SCORE.norm>
-0.910929

>  <RMSD>
13.293

$$$$
ligand
 OpenBabel11021811503D
libRbt.so/2013.1/901 2013/11/27
 10 11  0  0  0  0  0  0  0  0999 V2000
   -8.0580  -26.8495   30.2991 N   0  0  0  0  0  0  0  0  0  0  0  0
   -8.8230  -27.5976   29.5015 C   0  0  0  0  0  0  0  0  0  0  0  0
   -8.5937  -28.8267   29.0231 N   0  0  0  0  0  0  0  0  0  0  0  0
   -7.3976  -29.2806   29.4439 C   0  0  0  0  0  0  0  0  0  0  0  0
   -6.4991  -28.6266   30.2652 C   0  0  0  0  0  0  0  0  0  0  0  0
   -6.8628  -27.3404   30.7110 C   0  0  0  0  0  0  0  0  0  0  0  0
   -6.0793  -26.5924   31.5045 N   0  0  0  0  0  0  0  0  0  0  0  0
   -5.3778  -29.4035   30.4924 N   0  0  0  0  0  0  0  0  0  0  0  0
   -5.6134  -30.5005   29.8223 C   0  0  0  0  0  0  0  0  0  0  0  0
   -6.8112  -30.4904   29.1582 N   0  0  0  0  0  0  0  0  0  0  0  0
  1  2  2  0  0  0  0
  1  6  1  0  0  0  0
  2  3  1  0  0  0  0
  3  4  2  0  0  0  0
  4  5  1  0  0  0  0
  4 10  1  0  0  0  0
  5  6  2  0  0  0  0
  5  8  1  0  0  0  0
  6  7  1  0  0  0  0
  8  9  1  0  0  0  0
  9 10  2  0  0  0  0
M  END
>  <CHROM.1>
-7.00950376,-28.54174371,30.02774302,2.00467606,-0.45576178,0.46235688

>  <Name>
ligand

>  <RI>
0

>  <Rbt.Current_Directory>
/home/itssahil/PROJECTS/Mol_Feturizer/New_Systems/rnas/4LW0

>  <Rbt.Executable>
rbdock ($Id: //depot/dev/client3/rdock/2013.1/src/exe/rbdock.cxx#4 $)

>  <Rbt.Library>
libRbt.so (2013.1, Build901 2013/11/27)

>  <Rbt.Parameter_File>
/export/apps/rDock/src/rDock_2013.1_src/data/scripts/dock_solv.prm

>  <Rbt.Receptor>
prm/blind_docking_80.prm

>  <SCORE>
-10.9315

>  <SCORE.INTER>
-10.9315

>  <SCORE.INTER.CONST>
1

>  <SCORE.INTER.POLAR>
0

>  <SCORE.INTER.ROT>
0

>  <SCORE.INTER.SOLV>
2.44178

>  <SCORE.INTER.VDW>
-11.7016

>  <SCORE.INTER.norm>
-1.09315

>  <SCORE.INTRA>
0

>  <SCORE.INTRA.DIHEDRAL>
0

>  <SCORE.INTRA.DIHEDRAL.0>
0

>  <SCORE.INTRA.POLAR>
0

>  <SCORE.INTRA.POLAR.0>
0

>  <SCORE.INTRA.REPUL>
0

>  <SCORE.INTRA.REPUL.0>
0

>  <SCORE.INTRA.SOLV>
0

>  <SCORE.INTRA.SOLV.lig_0>
-23.9151

>  <SCORE.INTRA.VDW>
0

>  <SCORE.INTRA.VDW.0>
0

>  <SCORE.INTRA.norm>
0

>  <SCORE.RESTR>
0

>  <SCORE.RESTR.CAVITY>
0

>  <SCORE.RESTR.norm>
0

>  <SCORE.SYSTEM>
0

>  <SCORE.SYSTEM.CONST>
0

>  <SCORE.SYSTEM.DIHEDRAL>
0

>  <SCORE.SYSTEM.SOLV>
0

>  <SCORE.SYSTEM.norm>
0

>  <SCORE.heavy>
10

>  <SCORE.norm>
-1.09315

>  <RMSD>
13.344

$$$$
ligand
 OpenBabel11021811503D
libRbt.so/2013.1/901 2013/11/27
 10 11  0  0  0  0  0  0  0  0999 V2000
   -7.4699  -29.2442   29.0292 N   0  0  0  0  0  0  0  0  0  0  0  0
   -6.5576  -30.1854   29.2801 C   0  0  0  0  0  0  0  0  0  0  0  0
   -5.7513  -30.3172   30.3407 N   0  0  0  0  0  0  0  0  0  0  0  0
   -5.9477  -29.3077   31.2102 C   0  0  0  0  0  0  0  0  0  0  0  0
   -6.8480  -28.2662   31.0899 C   0  0  0  0  0  0  0  0  0  0  0  0
   -7.6479  -28.2462   29.9301 C   0  0  0  0  0  0  0  0  0  0  0  0
   -8.5549  -27.2874   29.6833 N   0  0  0  0  0  0  0  0  0  0  0  0
   -6.7770  -27.4201   32.1814 N   0  0  0  0  0  0  0  0  0  0  0  0
   -5.8555  -27.9567   32.9368 C   0  0  0  0  0  0  0  0  0  0  0  0
   -5.3062  -29.0939   32.4068 N   0  0  0  0  0  0  0  0  0  0  0  0
  1  2  2  0  0  0  0
  1  6  1  0  0  0  0
  2  3  1  0  0  0  0
  3  4  2  0  0  0  0
  4  5  1  0  0  0  0
  4 10  1  0  0  0  0
  5  6  2  0  0  0  0
  5  8  1  0  0  0  0
  6  7  1  0  0  0  0
  8  9  1  0  0  0  0
  9 10  2  0  0  0  0
M  END
>  <CHROM.1>
-6.67930220,-28.72788724,30.80267903,-2.33543387,-0.76963541,0.86131268

>  <Name>
ligand

>  <RI>
0

>  <Rbt.Current_Directory>
/home/itssahil/PROJECTS/Mol_Feturizer/New_Systems/rnas/4LW0

>  <Rbt.Executable>
rbdock ($Id: //depot/dev/client3/rdock/2013.1/src/exe/rbdock.cxx#4 $)

>  <Rbt.Library>
libRbt.so (2013.1, Build901 2013/11/27)

>  <Rbt.Parameter_File>
/export/apps/rDock/src/rDock_2013.1_src/data/scripts/dock_solv.prm

>  <Rbt.Receptor>
prm/blind_docking_100.prm

>  <SCORE>
-8.25697

>  <SCORE.INTER>
-8.25697

>  <SCORE.INTER.CONST>
1

>  <SCORE.INTER.POLAR>
0

>  <SCORE.INTER.ROT>
0

>  <SCORE.INTER.SOLV>
5.55719

>  <SCORE.INTER.VDW>
-10.957

>  <SCORE.INTER.norm>
-0.825697

>  <SCORE.INTRA>
0

>  <SCORE.INTRA.DIHEDRAL>
0

>  <SCORE.INTRA.DIHEDRAL.0>
0

>  <SCORE.INTRA.POLAR>
0

>  <SCORE.INTRA.POLAR.0>
0

>  <SCORE.INTRA.REPUL>
0

>  <SCORE.INTRA.REPUL.0>
0

>  <SCORE.INTRA.SOLV>
0

>  <SCORE.INTRA.SOLV.lig_0>
-23.9151

>  <SCORE.INTRA.VDW>
0

>  <SCORE.INTRA.VDW.0>
0

>  <SCORE.INTRA.norm>
0

>  <SCORE.RESTR>
0

>  <SCORE.RESTR.CAVITY>
0

>  <SCORE.RESTR.norm>
0

>  <SCORE.SYSTEM>
0

>  <SCORE.SYSTEM.CONST>
0

>  <SCORE.SYSTEM.DIHEDRAL>
0

>  <SCORE.SYSTEM.SOLV>
0

>  <SCORE.SYSTEM.norm>
0

>  <SCORE.heavy>
10

>  <SCORE.norm>
-0.825697

>  <RMSD>
13.420

$$$$
ligand
 OpenBabel11021811503D
libRbt.so/2013.1/901 2013/11/27
 10 11  0  0  0  0  0  0  0  0999 V2000
   -7.5047  -29.1999   29.0076 N   0  0  0  0  0  0  0  0  0  0  0  0
   -6.5235  -30.0915   29.1598 C   0  0  0  0  0  0  0  0  0  0  0  0
   -5.6691  -30.2397   30.1798 N   0  0  0  0  0  0  0  0  0  0  0  0
   -5.8969  -29.3073   31.1245 C   0  0  0  0  0  0  0  0  0  0  0  0
   -6.8676  -28.3239   31.1091 C   0  0  0  0  0  0  0  0  0  0  0  0
   -7.7122  -28.2798   29.9821 C   0  0  0  0  0  0  0  0  0  0  0  0
   -8.6892  -27.3705   29.8351 N   0  0  0  0  0  0  0  0  0  0  0  0
   -6.8094  -27.5509   32.2543 N   0  0  0  0  0  0  0  0  0  0  0  0
   -5.8255  -28.0734   32.9376 C   0  0  0  0  0  0  0  0  0  0  0  0
   -5.2241  -29.1320   32.3101 N   0  0  0  0  0  0  0  0  0  0  0  0
  1  2  2  0  0  0  0
  1  6  1  0  0  0  0
  2  3  1  0  0  0  0
  3  4  2  0  0  0  0
  4  5  1  0  0  0  0
  4 10  1  0  0  0  0
  5  6  2  0  0  0  0
  5  8  1  0  0  0  0
  6  7  1  0  0  0  0
  8  9  1  0  0  0  0
  9 10  2  0  0  0  0
M  END
>  <CHROM.1>
-6.68044931,-28.75241382,30.78441533,-2.31871198,-0.69401941,0.94174527

>  <Name>
ligand

>  <RI>
0

>  <Rbt.Current_Directory>
/home/itssahil/PROJECTS/Mol_Feturizer/New_Systems/rnas/4LW0

>  <Rbt.Executable>
rbdock ($Id: //depot/dev/client3/rdock/2013.1/src/exe/rbdock.cxx#4 $)

>  <Rbt.Library>
libRbt.so (2013.1, Build901 2013/11/27)

>  <Rbt.Parameter_File>
/export/apps/rDock/src/rDock_2013.1_src/data/scripts/dock_solv.prm

>  <Rbt.Receptor>
prm/blind_docking_100.prm

>  <SCORE>
-8.24307

>  <SCORE.INTER>
-8.24307

>  <SCORE.INTER.CONST>
1

>  <SCORE.INTER.POLAR>
0

>  <SCORE.INTER.ROT>
0

>  <SCORE.INTER.SOLV>
4.82723

>  <SCORE.INTER.VDW>
-10.7045

>  <SCORE.INTER.norm>
-0.824307

>  <SCORE.INTRA>
0

>  <SCORE.INTRA.DIHEDRAL>
0

>  <SCORE.INTRA.DIHEDRAL.0>
0

>  <SCORE.INTRA.POLAR>
0

>  <SCORE.INTRA.POLAR.0>
0

>  <SCORE.INTRA.REPUL>
0

>  <SCORE.INTRA.REPUL.0>
0

>  <SCORE.INTRA.SOLV>
0

>  <SCORE.INTRA.SOLV.lig_0>
-23.9151

>  <SCORE.INTRA.VDW>
0

>  <SCORE.INTRA.VDW.0>
0

>  <SCORE.INTRA.norm>
0

>  <SCORE.RESTR>
0

>  <SCORE.RESTR.CAVITY>
0

>  <SCORE.RESTR.norm>
0

>  <SCORE.SYSTEM>
0

>  <SCORE.SYSTEM.CONST>
0

>  <SCORE.SYSTEM.DIHEDRAL>
0

>  <SCORE.SYSTEM.SOLV>
0

>  <SCORE.SYSTEM.norm>
0

>  <SCORE.heavy>
10

>  <SCORE.norm>
-0.824307

>  <RMSD>
13.434

$$$$
ligand
 OpenBabel11021811503D
libRbt.so/2013.1/901 2013/11/27
 10 11  0  0  0  0  0  0  0  0999 V2000
   -0.0500   -5.9519   14.9510 N   0  0  0  0  0  0  0  0  0  0  0  0
    1.2662   -5.7334   14.9835 C   0  0  0  0  0  0  0  0  0  0  0  0
    1.9651   -4.9089   15.7735 N   0  0  0  0  0  0  0  0  0  0  0  0
    1.1413   -4.2397   16.6025 C   0  0  0  0  0  0  0  0  0  0  0  0
   -0.2332   -4.3557   16.6855 C   0  0  0  0  0  0  0  0  0  0  0  0
   -0.8501   -5.2669   15.8054 C   0  0  0  0  0  0  0  0  0  0  0  0
   -2.1770   -5.4700   15.7743 N   0  0  0  0  0  0  0  0  0  0  0  0
   -0.7443   -3.5174   17.6594 N   0  0  0  0  0  0  0  0  0  0  0  0
    0.3113   -2.9217   18.1480 C   0  0  0  0  0  0  0  0  0  0  0  0
    1.4824   -3.3040   17.5497 N   0  0  0  0  0  0  0  0  0  0  0  0
  1  2  2  0  0  0  0
  1  6  1  0  0  0  0
  2  3  1  0  0  0  0
  3  4  2  0  0  0  0
  4  5  1  0  0  0  0
  4 10  1  0  0  0  0
  5  6  2  0  0  0  0
  5  8  1  0  0  0  0
  6  7  1  0  0  0  0
  8  9  1  0  0  0  0
  9 10  2  0  0  0  0
M  END
>  <CHROM.1>
0.20227020,-4.57183887,16.38928963,-1.88318149,0.10062307,0.81972008

>  <Name>
ligand

>  <RI>
0

>  <Rbt.Current_Directory>
/home/itssahil/PROJECTS/Mol_Feturizer/New_Systems/rnas/4LW0

>  <Rbt.Executable>
rbdock ($Id: //depot/dev/client3/rdock/2013.1/src/exe/rbdock.cxx#4 $)

>  <Rbt.Library>
libRbt.so (2013.1, Build901 2013/11/27)

>  <Rbt.Parameter_File>
/export/apps/rDock/src/rDock_2013.1_src/data/scripts/dock_solv.prm

>  <Rbt.Receptor>
prm/blind_docking_20.prm

>  <SCORE>
-4.18176

>  <SCORE.INTER>
-4.18176

>  <SCORE.INTER.CONST>
1

>  <SCORE.INTER.POLAR>
0

>  <SCORE.INTER.ROT>
0

>  <SCORE.INTER.SOLV>
2.19842

>  <SCORE.INTER.VDW>
-7.12064

>  <SCORE.INTER.norm>
-0.418176

>  <SCORE.INTRA>
0

>  <SCORE.INTRA.DIHEDRAL>
0

>  <SCORE.INTRA.DIHEDRAL.0>
0

>  <SCORE.INTRA.POLAR>
0

>  <SCORE.INTRA.POLAR.0>
0

>  <SCORE.INTRA.REPUL>
0

>  <SCORE.INTRA.REPUL.0>
0

>  <SCORE.INTRA.SOLV>
0

>  <SCORE.INTRA.SOLV.lig_0>
-23.9151

>  <SCORE.INTRA.VDW>
0

>  <SCORE.INTRA.VDW.0>
0

>  <SCORE.INTRA.norm>
0

>  <SCORE.RESTR>
0

>  <SCORE.RESTR.CAVITY>
0

>  <SCORE.RESTR.norm>
0

>  <SCORE.SYSTEM>
0

>  <SCORE.SYSTEM.CONST>
0

>  <SCORE.SYSTEM.DIHEDRAL>
0

>  <SCORE.SYSTEM.SOLV>
0

>  <SCORE.SYSTEM.norm>
0

>  <SCORE.heavy>
10

>  <SCORE.norm>
-0.418176

>  <RMSD>
18.758

$$$$
ligand
 OpenBabel11021811503D
libRbt.so/2013.1/901 2013/11/27
 10 11  0  0  0  0  0  0  0  0999 V2000
    0.8607   -5.4828   15.0237 N   0  0  0  0  0  0  0  0  0  0  0  0
   -0.3501   -5.9636   15.3133 C   0  0  0  0  0  0  0  0  0  0  0  0
   -1.2055   -5.5763   16.2675 N   0  0  0  0  0  0  0  0  0  0  0  0
   -0.6786   -4.5715   16.9930 C   0  0  0  0  0  0  0  0  0  0  0  0
    0.5542   -3.9724   16.8167 C   0  0  0  0  0  0  0  0  0  0  0  0
    1.3580   -4.4649   15.7694 C   0  0  0  0  0  0  0  0  0  0  0  0
    2.5797   -3.9803   15.4947 N   0  0  0  0  0  0  0  0  0  0  0  0
    0.7549   -2.9670   17.7447 N   0  0  0  0  0  0  0  0  0  0  0  0
   -0.3436   -2.9675   18.4525 C   0  0  0  0  0  0  0  0  0  0  0  0
   -1.2488   -3.9170   18.0587 N   0  0  0  0  0  0  0  0  0  0  0  0
  1  2  2  0  0  0  0
  1  6  1  0  0  0  0
  2  3  1  0  0  0  0
  3  4  2  0  0  0  0
  4  5  1  0  0  0  0
  4 10  1  0  0  0  0
  5  6  2  0  0  0  0
  5  8  1  0  0  0  0
  6  7  1  0  0  0  0
  8  9  1  0  0  0  0
  9 10  2  0  0  0  0
M  END
>  <CHROM.1>
0.23731583,-4.38620318,16.58760694,1.03764682,-0.42161042,-2.33022789

>  <Name>
ligand

>  <RI>
0

>  <Rbt.Current_Directory>
/home/itssahil/PROJECTS/Mol_Feturizer/New_Systems/rnas/4LW0

>  <Rbt.Executable>
rbdock ($Id: //depot/dev/client3/rdock/2013.1/src/exe/rbdock.cxx#4 $)

>  <Rbt.Library>
libRbt.so (2013.1, Build901 2013/11/27)

>  <Rbt.Parameter_File>
/export/apps/rDock/src/rDock_2013.1_src/data/scripts/dock_solv.prm

>  <Rbt.Receptor>
prm/blind_docking_20.prm

>  <SCORE>
-4.10746

>  <SCORE.INTER>
-4.10746

>  <SCORE.INTER.CONST>
1

>  <SCORE.INTER.POLAR>
0

>  <SCORE.INTER.ROT>
0

>  <SCORE.INTER.SOLV>
1.78809

>  <SCORE.INTER.VDW>
-6.93434

>  <SCORE.INTER.norm>
-0.410746

>  <SCORE.INTRA>
0

>  <SCORE.INTRA.DIHEDRAL>
0

>  <SCORE.INTRA.DIHEDRAL.0>
0

>  <SCORE.INTRA.POLAR>
0

>  <SCORE.INTRA.POLAR.0>
0

>  <SCORE.INTRA.REPUL>
0

>  <SCORE.INTRA.REPUL.0>
0

>  <SCORE.INTRA.SOLV>
0

>  <SCORE.INTRA.SOLV.lig_0>
-23.9151

>  <SCORE.INTRA.VDW>
0

>  <SCORE.INTRA.VDW.0>
0

>  <SCORE.INTRA.norm>
0

>  <SCORE.RESTR>
0

>  <SCORE.RESTR.CAVITY>
0

>  <SCORE.RESTR.norm>
0

>  <SCORE.SYSTEM>
0

>  <SCORE.SYSTEM.CONST>
0

>  <SCORE.SYSTEM.DIHEDRAL>
0

>  <SCORE.SYSTEM.SOLV>
0

>  <SCORE.SYSTEM.norm>
0

>  <SCORE.heavy>
10

>  <SCORE.norm>
-0.410746

>  <RMSD>
18.779

$$$$
ligand
 OpenBabel11021811503D
libRbt.so/2013.1/901 2013/11/27
 10 11  0  0  0  0  0  0  0  0999 V2000
    0.9490   -5.5129   14.9629 N   0  0  0  0  0  0  0  0  0  0  0  0
   -0.2677   -6.0222   15.1660 C   0  0  0  0  0  0  0  0  0  0  0  0
   -1.1947   -5.6608   16.0617 N   0  0  0  0  0  0  0  0  0  0  0  0
   -0.7411   -4.6502   16.8276 C   0  0  0  0  0  0  0  0  0  0  0  0
    0.4872   -4.0231   16.7396 C   0  0  0  0  0  0  0  0  0  0  0  0
    1.3714   -4.4900   15.7468 C   0  0  0  0  0  0  0  0  0  0  0  0
    2.5979   -3.9768   15.5593 N   0  0  0  0  0  0  0  0  0  0  0  0
    0.6016   -3.0204   17.6851 N   0  0  0  0  0  0  0  0  0  0  0  0
   -0.5425   -3.0502   18.3161 C   0  0  0  0  0  0  0  0  0  0  0  0
   -1.3972   -4.0163   17.8556 N   0  0  0  0  0  0  0  0  0  0  0  0
  1  2  2  0  0  0  0
  1  6  1  0  0  0  0
  2  3  1  0  0  0  0
  3  4  2  0  0  0  0
  4  5  1  0  0  0  0
  4 10  1  0  0  0  0
  5  6  2  0  0  0  0
  5  8  1  0  0  0  0
  6  7  1  0  0  0  0
  8  9  1  0  0  0  0
  9 10  2  0  0  0  0
M  END
>  <CHROM.1>
0.19599233,-4.44191728,16.48690809,0.96743166,-0.38982544,-2.35123178

>  <Name>
ligand

>  <RI>
0

>  <Rbt.Current_Directory>
/home/itssahil/PROJECTS/Mol_Feturizer/New_Systems/rnas/4LW0

>  <Rbt.Executable>
rbdock ($Id: //depot/dev/client3/rdock/2013.1/src/exe/rbdock.cxx#4 $)

>  <Rbt.Library>
libRbt.so (2013.1, Build901 2013/11/27)

>  <Rbt.Parameter_File>
/export/apps/rDock/src/rDock_2013.1_src/data/scripts/dock_solv.prm

>  <Rbt.Receptor>
prm/blind_docking_20.prm

>  <SCORE>
-4.0568

>  <SCORE.INTER>
-4.0568

>  <SCORE.INTER.CONST>
1

>  <SCORE.INTER.POLAR>
0

>  <SCORE.INTER.ROT>
0

>  <SCORE.INTER.SOLV>
1.84879

>  <SCORE.INTER.VDW>
-6.9208

>  <SCORE.INTER.norm>
-0.40568

>  <SCORE.INTRA>
0

>  <SCORE.INTRA.DIHEDRAL>
0

>  <SCORE.INTRA.DIHEDRAL.0>
0

>  <SCORE.INTRA.POLAR>
0

>  <SCORE.INTRA.POLAR.0>
0

>  <SCORE.INTRA.REPUL>
0

>  <SCORE.INTRA.REPUL.0>
0

>  <SCORE.INTRA.SOLV>
0

>  <SCORE.INTRA.SOLV.lig_0>
-23.9151

>  <SCORE.INTRA.VDW>
0

>  <SCORE.INTRA.VDW.0>
0

>  <SCORE.INTRA.norm>
0

>  <SCORE.RESTR>
0

>  <SCORE.RESTR.CAVITY>
0

>  <SCORE.RESTR.norm>
0

>  <SCORE.SYSTEM>
0

>  <SCORE.SYSTEM.CONST>
0

>  <SCORE.SYSTEM.DIHEDRAL>
0

>  <SCORE.SYSTEM.SOLV>
0

>  <SCORE.SYSTEM.norm>
0

>  <SCORE.heavy>
10

>  <SCORE.norm>
-0.40568

>  <RMSD>
18.783

$$$$
ligand
 OpenBabel11021811503D
libRbt.so/2013.1/901 2013/11/27
 10 11  0  0  0  0  0  0  0  0999 V2000
    0.9453   -5.5230   14.9702 N   0  0  0  0  0  0  0  0  0  0  0  0
   -0.2697   -6.0333   15.1809 C   0  0  0  0  0  0  0  0  0  0  0  0
   -1.1949   -5.6666   16.0764 N   0  0  0  0  0  0  0  0  0  0  0  0
   -0.7413   -4.6488   16.8327 C   0  0  0  0  0  0  0  0  0  0  0  0
    0.4853   -4.0198   16.7361 C   0  0  0  0  0  0  0  0  0  0  0  0
    1.3677   -4.4929   15.7446 C   0  0  0  0  0  0  0  0  0  0  0  0
    2.5925   -3.9785   15.5494 N   0  0  0  0  0  0  0  0  0  0  0  0
    0.6002   -3.0093   17.6731 N   0  0  0  0  0  0  0  0  0  0  0  0
   -0.5420   -3.0364   18.3076 C   0  0  0  0  0  0  0  0  0  0  0  0
   -1.3959   -4.0081   17.8574 N   0  0  0  0  0  0  0  0  0  0  0  0
  1  2  2  0  0  0  0
  1  6  1  0  0  0  0
  2  3  1  0  0  0  0
  3  4  2  0  0  0  0
  4  5  1  0  0  0  0
  4 10  1  0  0  0  0
  5  6  2  0  0  0  0
  5  8  1  0  0  0  0
  6  7  1  0  0  0  0
  8  9  1  0  0  0  0
  9 10  2  0  0  0  0
M  END
>  <CHROM.1>
0.19429236,-4.44130799,16.48764855,0.96798851,-0.39338935,-2.35912189

>  <Name>
ligand

>  <RI>
0

>  <Rbt.Current_Directory>
/home/itssahil/PROJECTS/Mol_Feturizer/New_Systems/rnas/4LW0

>  <Rbt.Executable>
rbdock ($Id: //depot/dev/client3/rdock/2013.1/src/exe/rbdock.cxx#4 $)

>  <Rbt.Library>
libRbt.so (2013.1, Build901 2013/11/27)

>  <Rbt.Parameter_File>
/export/apps/rDock/src/rDock_2013.1_src/data/scripts/dock_solv.prm

>  <Rbt.Receptor>
prm/blind_docking_20.prm

>  <SCORE>
-4.05871

>  <SCORE.INTER>
-4.05871

>  <SCORE.INTER.CONST>
1

>  <SCORE.INTER.POLAR>
0

>  <SCORE.INTER.ROT>
0

>  <SCORE.INTER.SOLV>
1.8751

>  <SCORE.INTER.VDW>
-6.93084

>  <SCORE.INTER.norm>
-0.405871

>  <SCORE.INTRA>
0

>  <SCORE.INTRA.DIHEDRAL>
0

>  <SCORE.INTRA.DIHEDRAL.0>
0

>  <SCORE.INTRA.POLAR>
0

>  <SCORE.INTRA.POLAR.0>
0

>  <SCORE.INTRA.REPUL>
0

>  <SCORE.INTRA.REPUL.0>
0

>  <SCORE.INTRA.SOLV>
0

>  <SCORE.INTRA.SOLV.lig_0>
-23.9151

>  <SCORE.INTRA.VDW>
0

>  <SCORE.INTRA.VDW.0>
0

>  <SCORE.INTRA.norm>
0

>  <SCORE.RESTR>
0

>  <SCORE.RESTR.CAVITY>
0

>  <SCORE.RESTR.norm>
0

>  <SCORE.SYSTEM>
0

>  <SCORE.SYSTEM.CONST>
0

>  <SCORE.SYSTEM.DIHEDRAL>
0

>  <SCORE.SYSTEM.SOLV>
0

>  <SCORE.SYSTEM.norm>
0

>  <SCORE.heavy>
10

>  <SCORE.norm>
-0.405871

>  <RMSD>
18.783

$$$$
ligand
 OpenBabel11021811503D
libRbt.so/2013.1/901 2013/11/27
 10 11  0  0  0  0  0  0  0  0999 V2000
    0.9491   -5.5143   14.9743 N   0  0  0  0  0  0  0  0  0  0  0  0
   -0.2656   -6.0241   15.1881 C   0  0  0  0  0  0  0  0  0  0  0  0
   -1.1883   -5.6571   16.0860 N   0  0  0  0  0  0  0  0  0  0  0  0
   -0.7322   -4.6397   16.8414 C   0  0  0  0  0  0  0  0  0  0  0  0
    0.4945   -4.0113   16.7418 C   0  0  0  0  0  0  0  0  0  0  0  0
    1.3740   -4.4846   15.7479 C   0  0  0  0  0  0  0  0  0  0  0  0
    2.5987   -3.9708   15.5497 N   0  0  0  0  0  0  0  0  0  0  0  0
    0.6123   -3.0011   17.6788 N   0  0  0  0  0  0  0  0  0  0  0  0
   -0.5283   -3.0278   18.3162 C   0  0  0  0  0  0  0  0  0  0  0  0
   -1.3838   -3.9989   17.8680 N   0  0  0  0  0  0  0  0  0  0  0  0
  1  2  2  0  0  0  0
  1  6  1  0  0  0  0
  2  3  1  0  0  0  0
  3  4  2  0  0  0  0
  4  5  1  0  0  0  0
  4 10  1  0  0  0  0
  5  6  2  0  0  0  0
  5  8  1  0  0  0  0
  6  7  1  0  0  0  0
  8  9  1  0  0  0  0
  9 10  2  0  0  0  0
M  END
>  <CHROM.1>
0.20260537,-4.43263740,16.49399763,0.97033816,-0.39486244,-2.35798664

>  <Name>
ligand

>  <RI>
0

>  <Rbt.Current_Directory>
/home/itssahil/PROJECTS/Mol_Feturizer/New_Systems/rnas/4LW0

>  <Rbt.Executable>
rbdock ($Id: //depot/dev/client3/rdock/2013.1/src/exe/rbdock.cxx#4 $)

>  <Rbt.Library>
libRbt.so (2013.1, Build901 2013/11/27)

>  <Rbt.Parameter_File>
/export/apps/rDock/src/rDock_2013.1_src/data/scripts/dock_solv.prm

>  <Rbt.Receptor>
prm/blind_docking_20.prm

>  <SCORE>
-4.06096

>  <SCORE.INTER>
-4.06096

>  <SCORE.INTER.CONST>
1

>  <SCORE.INTER.POLAR>
0

>  <SCORE.INTER.ROT>
0

>  <SCORE.INTER.SOLV>
1.85725

>  <SCORE.INTER.VDW>
-6.92639

>  <SCORE.INTER.norm>
-0.406096

>  <SCORE.INTRA>
0

>  <SCORE.INTRA.DIHEDRAL>
0

>  <SCORE.INTRA.DIHEDRAL.0>
0

>  <SCORE.INTRA.POLAR>
0

>  <SCORE.INTRA.POLAR.0>
0

>  <SCORE.INTRA.REPUL>
0

>  <SCORE.INTRA.REPUL.0>
0

>  <SCORE.INTRA.SOLV>
0

>  <SCORE.INTRA.SOLV.lig_0>
-23.9151

>  <SCORE.INTRA.VDW>
0

>  <SCORE.INTRA.VDW.0>
0

>  <SCORE.INTRA.norm>
0

>  <SCORE.RESTR>
0

>  <SCORE.RESTR.CAVITY>
0

>  <SCORE.RESTR.norm>
0

>  <SCORE.SYSTEM>
0

>  <SCORE.SYSTEM.CONST>
0

>  <SCORE.SYSTEM.DIHEDRAL>
0

>  <SCORE.SYSTEM.SOLV>
0

>  <SCORE.SYSTEM.norm>
0

>  <SCORE.heavy>
10

>  <SCORE.norm>
-0.406096

>  <RMSD>
18.786

$$$$
ligand
 OpenBabel11021811503D
libRbt.so/2013.1/901 2013/11/27
 10 11  0  0  0  0  0  0  0  0999 V2000
    0.8775   -5.4738   15.0394 N   0  0  0  0  0  0  0  0  0  0  0  0
   -0.3375   -5.9503   15.3187 C   0  0  0  0  0  0  0  0  0  0  0  0
   -1.2008   -5.5575   16.2635 N   0  0  0  0  0  0  0  0  0  0  0  0
   -0.6780   -4.5520   16.9911 C   0  0  0  0  0  0  0  0  0  0  0  0
    0.5582   -3.9571   16.8248 C   0  0  0  0  0  0  0  0  0  0  0  0
    1.3705   -4.4551   15.7868 C   0  0  0  0  0  0  0  0  0  0  0  0
    2.5963   -3.9749   15.5224 N   0  0  0  0  0  0  0  0  0  0  0  0
    0.7529   -2.9494   17.7516 N   0  0  0  0  0  0  0  0  0  0  0  0
   -0.3524   -2.9446   18.4488 C   0  0  0  0  0  0  0  0  0  0  0  0
   -1.2565   -3.8927   18.0492 N   0  0  0  0  0  0  0  0  0  0  0  0
  1  2  2  0  0  0  0
  1  6  1  0  0  0  0
  2  3  1  0  0  0  0
  3  4  2  0  0  0  0
  4  5  1  0  0  0  0
  4 10  1  0  0  0  0
  5  6  2  0  0  0  0
  5  8  1  0  0  0  0
  6  7  1  0  0  0  0
  8  9  1  0  0  0  0
  9 10  2  0  0  0  0
M  END
>  <CHROM.1>
0.24228886,-4.37066242,16.59393336,1.03223141,-0.41283634,-2.33545247

>  <Name>
ligand

>  <RI>
0

>  <Rbt.Current_Directory>
/home/itssahil/PROJECTS/Mol_Feturizer/New_Systems/rnas/4LW0

>  <Rbt.Executable>
rbdock ($Id: //depot/dev/client3/rdock/2013.1/src/exe/rbdock.cxx#4 $)

>  <Rbt.Library>
libRbt.so (2013.1, Build901 2013/11/27)

>  <Rbt.Parameter_File>
/export/apps/rDock/src/rDock_2013.1_src/data/scripts/dock_solv.prm

>  <Rbt.Receptor>
prm/blind_docking_20.prm

>  <SCORE>
-4.09191

>  <SCORE.INTER>
-4.09191

>  <SCORE.INTER.CONST>
1

>  <SCORE.INTER.POLAR>
0

>  <SCORE.INTER.ROT>
0

>  <SCORE.INTER.SOLV>
1.75527

>  <SCORE.INTER.VDW>
-6.91303

>  <SCORE.INTER.norm>
-0.409191

>  <SCORE.INTRA>
0

>  <SCORE.INTRA.DIHEDRAL>
0

>  <SCORE.INTRA.DIHEDRAL.0>
0

>  <SCORE.INTRA.POLAR>
0

>  <SCORE.INTRA.POLAR.0>
0

>  <SCORE.INTRA.REPUL>
0

>  <SCORE.INTRA.REPUL.0>
0

>  <SCORE.INTRA.SOLV>
0

>  <SCORE.INTRA.SOLV.lig_0>
-23.9151

>  <SCORE.INTRA.VDW>
0

>  <SCORE.INTRA.VDW.0>
0

>  <SCORE.INTRA.norm>
0

>  <SCORE.RESTR>
0

>  <SCORE.RESTR.CAVITY>
0

>  <SCORE.RESTR.norm>
0

>  <SCORE.SYSTEM>
0

>  <SCORE.SYSTEM.CONST>
0

>  <SCORE.SYSTEM.DIHEDRAL>
0

>  <SCORE.SYSTEM.SOLV>
0

>  <SCORE.SYSTEM.norm>
0

>  <SCORE.heavy>
10

>  <SCORE.norm>
-0.409191

>  <RMSD>
18.789

$$$$
ligand
 OpenBabel11021811503D
libRbt.so/2013.1/901 2013/11/27
 10 11  0  0  0  0  0  0  0  0999 V2000
   -0.0696   -5.8764   14.9969 N   0  0  0  0  0  0  0  0  0  0  0  0
    1.2328   -5.5910   15.0546 C   0  0  0  0  0  0  0  0  0  0  0  0
    1.8750   -4.7411   15.8656 N   0  0  0  0  0  0  0  0  0  0  0  0
    1.0040   -4.1252   16.6876 C   0  0  0  0  0  0  0  0  0  0  0  0
   -0.3639   -4.3127   16.7456 C   0  0  0  0  0  0  0  0  0  0  0  0
   -0.9181   -5.2438   15.8449 C   0  0  0  0  0  0  0  0  0  0  0  0
   -2.2321   -5.5144   15.7886 N   0  0  0  0  0  0  0  0  0  0  0  0
   -0.9336   -3.5134   17.7197 N   0  0  0  0  0  0  0  0  0  0  0  0
    0.0815   -2.8701   18.2331 C   0  0  0  0  0  0  0  0  0  0  0  0
    1.2806   -3.1846   17.6509 N   0  0  0  0  0  0  0  0  0  0  0  0
  1  2  2  0  0  0  0
  1  6  1  0  0  0  0
  2  3  1  0  0  0  0
  3  4  2  0  0  0  0
  4  5  1  0  0  0  0
  4 10  1  0  0  0  0
  5  6  2  0  0  0  0
  5  8  1  0  0  0  0
  6  7  1  0  0  0  0
  8  9  1  0  0  0  0
  9 10  2  0  0  0  0
M  END
>  <CHROM.1>
0.08709655,-4.50252574,16.45458398,-1.83538501,0.12684481,0.82581746

>  <Name>
ligand

>  <RI>
0

>  <Rbt.Current_Directory>
/home/itssahil/PROJECTS/Mol_Feturizer/New_Systems/rnas/4LW0

>  <Rbt.Executable>
rbdock ($Id: //depot/dev/client3/rdock/2013.1/src/exe/rbdock.cxx#4 $)

>  <Rbt.Library>
libRbt.so (2013.1, Build901 2013/11/27)

>  <Rbt.Parameter_File>
/export/apps/rDock/src/rDock_2013.1_src/data/scripts/dock_solv.prm

>  <Rbt.Receptor>
prm/blind_docking_20.prm

>  <SCORE>
-4.13359

>  <SCORE.INTER>
-4.13359

>  <SCORE.INTER.CONST>
1

>  <SCORE.INTER.POLAR>
0

>  <SCORE.INTER.ROT>
0

>  <SCORE.INTER.SOLV>
2.0556

>  <SCORE.INTER.VDW>
-7.04093

>  <SCORE.INTER.norm>
-0.413359

>  <SCORE.INTRA>
0

>  <SCORE.INTRA.DIHEDRAL>
0

>  <SCORE.INTRA.DIHEDRAL.0>
0

>  <SCORE.INTRA.POLAR>
0

>  <SCORE.INTRA.POLAR.0>
0

>  <SCORE.INTRA.REPUL>
0

>  <SCORE.INTRA.REPUL.0>
0

>  <SCORE.INTRA.SOLV>
0

>  <SCORE.INTRA.SOLV.lig_0>
-23.9151

>  <SCORE.INTRA.VDW>
0

>  <SCORE.INTRA.VDW.0>
0

>  <SCORE.INTRA.norm>
0

>  <SCORE.RESTR>
0

>  <SCORE.RESTR.CAVITY>
0

>  <SCORE.RESTR.norm>
0

>  <SCORE.SYSTEM>
0

>  <SCORE.SYSTEM.CONST>
0

>  <SCORE.SYSTEM.DIHEDRAL>
0

>  <SCORE.SYSTEM.SOLV>
0

>  <SCORE.SYSTEM.norm>
0

>  <SCORE.heavy>
10

>  <SCORE.norm>
-0.413359

>  <RMSD>
18.789

$$$$
ligand
 OpenBabel11021811503D
libRbt.so/2013.1/901 2013/11/27
 10 11  0  0  0  0  0  0  0  0999 V2000
    0.8742   -5.4731   14.9946 N   0  0  0  0  0  0  0  0  0  0  0  0
   -0.3287   -5.9642   15.2995 C   0  0  0  0  0  0  0  0  0  0  0  0
   -1.1753   -5.5835   16.2642 N   0  0  0  0  0  0  0  0  0  0  0  0
   -0.6481   -4.5738   16.9826 C   0  0  0  0  0  0  0  0  0  0  0  0
    0.5772   -3.9643   16.7905 C   0  0  0  0  0  0  0  0  0  0  0  0
    1.3720   -4.4505   15.7335 C   0  0  0  0  0  0  0  0  0  0  0  0
    2.5860   -3.9556   15.4433 N   0  0  0  0  0  0  0  0  0  0  0  0
    0.7809   -2.9566   17.7154 N   0  0  0  0  0  0  0  0  0  0  0  0
   -0.3087   -2.9661   18.4369 C   0  0  0  0  0  0  0  0  0  0  0  0
   -1.2105   -3.9236   18.0549 N   0  0  0  0  0  0  0  0  0  0  0  0
  1  2  2  0  0  0  0
  1  6  1  0  0  0  0
  2  3  1  0  0  0  0
  3  4  2  0  0  0  0
  4  5  1  0  0  0  0
  4 10  1  0  0  0  0
  5  6  2  0  0  0  0
  5  8  1  0  0  0  0
  6  7  1  0  0  0  0
  8  9  1  0  0  0  0
  9 10  2  0  0  0  0
M  END
>  <CHROM.1>
0.26105649,-4.38092744,16.56562041,1.04112459,-0.43645053,-2.32936155

>  <Name>
ligand

>  <RI>
0

>  <Rbt.Current_Directory>
/home/itssahil/PROJECTS/Mol_Feturizer/New_Systems/rnas/4LW0

>  <Rbt.Executable>
rbdock ($Id: //depot/dev/client3/rdock/2013.1/src/exe/rbdock.cxx#4 $)

>  <Rbt.Library>
libRbt.so (2013.1, Build901 2013/11/27)

>  <Rbt.Parameter_File>
/export/apps/rDock/src/rDock_2013.1_src/data/scripts/dock_solv.prm

>  <Rbt.Receptor>
prm/blind_docking_20.prm

>  <SCORE>
-4.0927

>  <SCORE.INTER>
-4.0927

>  <SCORE.INTER.CONST>
1

>  <SCORE.INTER.POLAR>
0

>  <SCORE.INTER.ROT>
0

>  <SCORE.INTER.SOLV>
1.80754

>  <SCORE.INTER.VDW>
-6.93098

>  <SCORE.INTER.norm>
-0.40927

>  <SCORE.INTRA>
0

>  <SCORE.INTRA.DIHEDRAL>
0

>  <SCORE.INTRA.DIHEDRAL.0>
0

>  <SCORE.INTRA.POLAR>
0

>  <SCORE.INTRA.POLAR.0>
0

>  <SCORE.INTRA.REPUL>
0

>  <SCORE.INTRA.REPUL.0>
0

>  <SCORE.INTRA.SOLV>
0

>  <SCORE.INTRA.SOLV.lig_0>
-23.9151

>  <SCORE.INTRA.VDW>
0

>  <SCORE.INTRA.VDW.0>
0

>  <SCORE.INTRA.norm>
0

>  <SCORE.RESTR>
0

>  <SCORE.RESTR.CAVITY>
0

>  <SCORE.RESTR.norm>
0

>  <SCORE.SYSTEM>
0

>  <SCORE.SYSTEM.CONST>
0

>  <SCORE.SYSTEM.DIHEDRAL>
0

>  <SCORE.SYSTEM.SOLV>
0

>  <SCORE.SYSTEM.norm>
0

>  <SCORE.heavy>
10

>  <SCORE.norm>
-0.40927

>  <RMSD>
18.791

$$$$
ligand
 OpenBabel11021811503D
libRbt.so/2013.1/901 2013/11/27
 10 11  0  0  0  0  0  0  0  0999 V2000
    0.0288   -5.8790   14.9418 N   0  0  0  0  0  0  0  0  0  0  0  0
    1.3415   -5.6473   15.0075 C   0  0  0  0  0  0  0  0  0  0  0  0
    2.0131   -4.8249   15.8230 N   0  0  0  0  0  0  0  0  0  0  0  0
    1.1632   -4.1741   16.6402 C   0  0  0  0  0  0  0  0  0  0  0  0
   -0.2116   -4.3054   16.6899 C   0  0  0  0  0  0  0  0  0  0  0  0
   -0.7981   -5.2125   15.7852 C   0  0  0  0  0  0  0  0  0  0  0  0
   -2.1218   -5.4290   15.7208 N   0  0  0  0  0  0  0  0  0  0  0  0
   -0.7540   -3.4839   17.6612 N   0  0  0  0  0  0  0  0  0  0  0  0
    0.2836   -2.8830   18.1811 C   0  0  0  0  0  0  0  0  0  0  0  0
    1.4723   -3.2462   17.6058 N   0  0  0  0  0  0  0  0  0  0  0  0
  1  2  2  0  0  0  0
  1  6  1  0  0  0  0
  2  3  1  0  0  0  0
  3  4  2  0  0  0  0
  4  5  1  0  0  0  0
  4 10  1  0  0  0  0
  5  6  2  0  0  0  0
  5  8  1  0  0  0  0
  6  7  1  0  0  0  0
  8  9  1  0  0  0  0
  9 10  2  0  0  0  0
M  END
>  <CHROM.1>
0.23295067,-4.51343454,16.40142675,-1.85886937,0.09254776,0.82901419

>  <Name>
ligand

>  <RI>
0

>  <Rbt.Current_Directory>
/home/itssahil/PROJECTS/Mol_Feturizer/New_Systems/rnas/4LW0

>  <Rbt.Executable>
rbdock ($Id: //depot/dev/client3/rdock/2013.1/src/exe/rbdock.cxx#4 $)

>  <Rbt.Library>
libRbt.so (2013.1, Build901 2013/11/27)

>  <Rbt.Parameter_File>
/export/apps/rDock/src/rDock_2013.1_src/data/scripts/dock_solv.prm

>  <Rbt.Receptor>
prm/blind_docking_20.prm

>  <SCORE>
-4.2121

>  <SCORE.INTER>
-4.2121

>  <SCORE.INTER.CONST>
1

>  <SCORE.INTER.POLAR>
0

>  <SCORE.INTER.ROT>
0

>  <SCORE.INTER.SOLV>
2.13573

>  <SCORE.INTER.VDW>
-7.11998

>  <SCORE.INTER.norm>
-0.42121

>  <SCORE.INTRA>
0

>  <SCORE.INTRA.DIHEDRAL>
0

>  <SCORE.INTRA.DIHEDRAL.0>
0

>  <SCORE.INTRA.POLAR>
0

>  <SCORE.INTRA.POLAR.0>
0

>  <SCORE.INTRA.REPUL>
0

>  <SCORE.INTRA.REPUL.0>
0

>  <SCORE.INTRA.SOLV>
0

>  <SCORE.INTRA.SOLV.lig_0>
-23.9151

>  <SCORE.INTRA.VDW>
0

>  <SCORE.INTRA.VDW.0>
0

>  <SCORE.INTRA.norm>
0

>  <SCORE.RESTR>
0

>  <SCORE.RESTR.CAVITY>
0

>  <SCORE.RESTR.norm>
0

>  <SCORE.SYSTEM>
0

>  <SCORE.SYSTEM.CONST>
0

>  <SCORE.SYSTEM.DIHEDRAL>
0

>  <SCORE.SYSTEM.SOLV>
0

>  <SCORE.SYSTEM.norm>
0

>  <SCORE.heavy>
10

>  <SCORE.norm>
-0.42121

>  <RMSD>
18.793

$$$$
ligand
 OpenBabel11021811503D
libRbt.so/2013.1/901 2013/11/27
 10 11  0  0  0  0  0  0  0  0999 V2000
    0.0390   -5.8833   14.9411 N   0  0  0  0  0  0  0  0  0  0  0  0
    1.3518   -5.6545   15.0121 C   0  0  0  0  0  0  0  0  0  0  0  0
    2.0218   -4.8316   15.8284 N   0  0  0  0  0  0  0  0  0  0  0  0
    1.1698   -4.1767   16.6401 C   0  0  0  0  0  0  0  0  0  0  0  0
   -0.2055   -4.3045   16.6839 C   0  0  0  0  0  0  0  0  0  0  0  0
   -0.7902   -5.2126   15.7790 C   0  0  0  0  0  0  0  0  0  0  0  0
   -2.1140   -5.4261   15.7093 N   0  0  0  0  0  0  0  0  0  0  0  0
   -0.7502   -3.4792   17.6506 N   0  0  0  0  0  0  0  0  0  0  0  0
    0.2864   -2.8794   18.1736 C   0  0  0  0  0  0  0  0  0  0  0  0
    1.4768   -3.2469   17.6047 N   0  0  0  0  0  0  0  0  0  0  0  0
  1  2  2  0  0  0  0
  1  6  1  0  0  0  0
  2  3  1  0  0  0  0
  3  4  2  0  0  0  0
  4  5  1  0  0  0  0
  4 10  1  0  0  0  0
  5  6  2  0  0  0  0
  5  8  1  0  0  0  0
  6  7  1  0  0  0  0
  8  9  1  0  0  0  0
  9 10  2  0  0  0  0
M  END
>  <CHROM.1>
0.23984113,-4.51440125,16.39803749,-1.85719014,0.08776848,0.82623957

>  <Name>
ligand

>  <RI>
0

>  <Rbt.Current_Directory>
/home/itssahil/PROJECTS/Mol_Feturizer/New_Systems/rnas/4LW0

>  <Rbt.Executable>
rbdock ($Id: //depot/dev/client3/rdock/2013.1/src/exe/rbdock.cxx#4 $)

>  <Rbt.Library>
libRbt.so (2013.1, Build901 2013/11/27)

>  <Rbt.Parameter_File>
/export/apps/rDock/src/rDock_2013.1_src/data/scripts/dock_solv.prm

>  <Rbt.Receptor>
prm/blind_docking_20.prm

>  <SCORE>
-4.21256

>  <SCORE.INTER>
-4.21256

>  <SCORE.INTER.CONST>
1

>  <SCORE.INTER.POLAR>
0

>  <SCORE.INTER.ROT>
0

>  <SCORE.INTER.SOLV>
2.14597

>  <SCORE.INTER.VDW>
-7.1237

>  <SCORE.INTER.norm>
-0.421256

>  <SCORE.INTRA>
0

>  <SCORE.INTRA.DIHEDRAL>
0

>  <SCORE.INTRA.DIHEDRAL.0>
0

>  <SCORE.INTRA.POLAR>
0

>  <SCORE.INTRA.POLAR.0>
0

>  <SCORE.INTRA.REPUL>
0

>  <SCORE.INTRA.REPUL.0>
0

>  <SCORE.INTRA.SOLV>
0

>  <SCORE.INTRA.SOLV.lig_0>
-23.9151

>  <SCORE.INTRA.VDW>
0

>  <SCORE.INTRA.VDW.0>
0

>  <SCORE.INTRA.norm>
0

>  <SCORE.RESTR>
0

>  <SCORE.RESTR.CAVITY>
0

>  <SCORE.RESTR.norm>
0

>  <SCORE.SYSTEM>
0

>  <SCORE.SYSTEM.CONST>
0

>  <SCORE.SYSTEM.DIHEDRAL>
0

>  <SCORE.SYSTEM.SOLV>
0

>  <SCORE.SYSTEM.norm>
0

>  <SCORE.heavy>
10

>  <SCORE.norm>
-0.421256

>  <RMSD>
18.793

$$$$
ligand
 OpenBabel11021811503D
libRbt.so/2013.1/901 2013/11/27
 10 11  0  0  0  0  0  0  0  0999 V2000
    0.0317   -5.8753   14.9395 N   0  0  0  0  0  0  0  0  0  0  0  0
    1.3431   -5.6360   15.0030 C   0  0  0  0  0  0  0  0  0  0  0  0
    2.0116   -4.8116   15.8190 N   0  0  0  0  0  0  0  0  0  0  0  0
    1.1596   -4.1676   16.6394 C   0  0  0  0  0  0  0  0  0  0  0  0
   -0.2142   -4.3070   16.6916 C   0  0  0  0  0  0  0  0  0  0  0  0
   -0.7974   -5.2155   15.7860 C   0  0  0  0  0  0  0  0  0  0  0  0
   -2.1198   -5.4395   15.7239 N   0  0  0  0  0  0  0  0  0  0  0  0
   -0.7594   -3.4908   17.6658 N   0  0  0  0  0  0  0  0  0  0  0  0
    0.2757   -2.8851   18.1849 C   0  0  0  0  0  0  0  0  0  0  0  0
    1.4653   -3.2400   17.6064 N   0  0  0  0  0  0  0  0  0  0  0  0
  1  2  2  0  0  0  0
  1  6  1  0  0  0  0
  2  3  1  0  0  0  0
  3  4  2  0  0  0  0
  4  5  1  0  0  0  0
  4 10  1  0  0  0  0
  5  6  2  0  0  0  0
  5  8  1  0  0  0  0
  6  7  1  0  0  0  0
  8  9  1  0  0  0  0
  9 10  2  0  0  0  0
M  END
>  <CHROM.1>
0.23089964,-4.51178761,16.40174212,-1.85644565,0.09825316,0.83102562

>  <Name>
ligand

>  <RI>
0

>  <Rbt.Current_Directory>
/home/itssahil/PROJECTS/Mol_Feturizer/New_Systems/rnas/4LW0

>  <Rbt.Executable>
rbdock ($Id: //depot/dev/client3/rdock/2013.1/src/exe/rbdock.cxx#4 $)

>  <Rbt.Library>
libRbt.so (2013.1, Build901 2013/11/27)

>  <Rbt.Parameter_File>
/export/apps/rDock/src/rDock_2013.1_src/data/scripts/dock_solv.prm

>  <Rbt.Receptor>
prm/blind_docking_20.prm

>  <SCORE>
-4.21101

>  <SCORE.INTER>
-4.21101

>  <SCORE.INTER.CONST>
1

>  <SCORE.INTER.POLAR>
0

>  <SCORE.INTER.ROT>
0

>  <SCORE.INTER.SOLV>
2.13737

>  <SCORE.INTER.VDW>
-7.11979

>  <SCORE.INTER.norm>
-0.421101

>  <SCORE.INTRA>
0

>  <SCORE.INTRA.DIHEDRAL>
0

>  <SCORE.INTRA.DIHEDRAL.0>
0

>  <SCORE.INTRA.POLAR>
0

>  <SCORE.INTRA.POLAR.0>
0

>  <SCORE.INTRA.REPUL>
0

>  <SCORE.INTRA.REPUL.0>
0

>  <SCORE.INTRA.SOLV>
0

>  <SCORE.INTRA.SOLV.lig_0>
-23.9151

>  <SCORE.INTRA.VDW>
0

>  <SCORE.INTRA.VDW.0>
0

>  <SCORE.INTRA.norm>
0

>  <SCORE.RESTR>
0

>  <SCORE.RESTR.CAVITY>
0

>  <SCORE.RESTR.norm>
0

>  <SCORE.SYSTEM>
0

>  <SCORE.SYSTEM.CONST>
0

>  <SCORE.SYSTEM.DIHEDRAL>
0

>  <SCORE.SYSTEM.SOLV>
0

>  <SCORE.SYSTEM.norm>
0

>  <SCORE.heavy>
10

>  <SCORE.norm>
-0.421101

>  <RMSD>
18.794

$$$$
ligand
 OpenBabel11021811503D
libRbt.so/2013.1/901 2013/11/27
 10 11  0  0  0  0  0  0  0  0999 V2000
    0.0460   -5.8786   14.9279 N   0  0  0  0  0  0  0  0  0  0  0  0
    1.3603   -5.6597   15.0042 C   0  0  0  0  0  0  0  0  0  0  0  0
    2.0331   -4.8430   15.8244 N   0  0  0  0  0  0  0  0  0  0  0  0
    1.1829   -4.1832   16.6340 C   0  0  0  0  0  0  0  0  0  0  0  0
   -0.1934   -4.3010   16.6724 C   0  0  0  0  0  0  0  0  0  0  0  0
   -0.7813   -5.2033   15.7637 C   0  0  0  0  0  0  0  0  0  0  0  0
   -2.1064   -5.4069   15.6887 N   0  0  0  0  0  0  0  0  0  0  0  0
   -0.7358   -3.4733   17.6384 N   0  0  0  0  0  0  0  0  0  0  0  0
    0.3033   -2.8820   18.1663 C   0  0  0  0  0  0  0  0  0  0  0  0
    1.4931   -3.2573   17.6012 N   0  0  0  0  0  0  0  0  0  0  0  0
  1  2  2  0  0  0  0
  1  6  1  0  0  0  0
  2  3  1  0  0  0  0
  3  4  2  0  0  0  0
  4  5  1  0  0  0  0
  4 10  1  0  0  0  0
  5  6  2  0  0  0  0
  5  8  1  0  0  0  0
  6  7  1  0  0  0  0
  8  9  1  0  0  0  0
  9 10  2  0  0  0  0
M  END
>  <CHROM.1>
0.25141039,-4.51365288,16.38782366,-1.85938899,0.07979327,0.82809336

>  <Name>
ligand

>  <RI>
0

>  <Rbt.Current_Directory>
/home/itssahil/PROJECTS/Mol_Feturizer/New_Systems/rnas/4LW0

>  <Rbt.Executable>
rbdock ($Id: //depot/dev/client3/rdock/2013.1/src/exe/rbdock.cxx#4 $)

>  <Rbt.Library>
libRbt.so (2013.1, Build901 2013/11/27)

>  <Rbt.Parameter_File>
/export/apps/rDock/src/rDock_2013.1_src/data/scripts/dock_solv.prm

>  <Rbt.Receptor>
prm/blind_docking_20.prm

>  <SCORE>
-4.21193

>  <SCORE.INTER>
-4.21193

>  <SCORE.INTER.CONST>
1

>  <SCORE.INTER.POLAR>
0

>  <SCORE.INTER.ROT>
0

>  <SCORE.INTER.SOLV>
2.12931

>  <SCORE.INTER.VDW>
-7.11772

>  <SCORE.INTER.norm>
-0.421193

>  <SCORE.INTRA>
0

>  <SCORE.INTRA.DIHEDRAL>
0

>  <SCORE.INTRA.DIHEDRAL.0>
0

>  <SCORE.INTRA.POLAR>
0

>  <SCORE.INTRA.POLAR.0>
0

>  <SCORE.INTRA.REPUL>
0

>  <SCORE.INTRA.REPUL.0>
0

>  <SCORE.INTRA.SOLV>
0

>  <SCORE.INTRA.SOLV.lig_0>
-23.9151

>  <SCORE.INTRA.VDW>
0

>  <SCORE.INTRA.VDW.0>
0

>  <SCORE.INTRA.norm>
0

>  <SCORE.RESTR>
0

>  <SCORE.RESTR.CAVITY>
0

>  <SCORE.RESTR.norm>
0

>  <SCORE.SYSTEM>
0

>  <SCORE.SYSTEM.CONST>
0

>  <SCORE.SYSTEM.DIHEDRAL>
0

>  <SCORE.SYSTEM.SOLV>
0

>  <SCORE.SYSTEM.norm>
0

>  <SCORE.heavy>
10

>  <SCORE.norm>
-0.421193

>  <RMSD>
18.798

$$$$
ligand
 OpenBabel11021811503D
libRbt.so/2013.1/901 2013/11/27
 10 11  0  0  0  0  0  0  0  0999 V2000
    0.8845   -5.4698   15.0301 N   0  0  0  0  0  0  0  0  0  0  0  0
   -0.3367   -5.9433   15.2858 C   0  0  0  0  0  0  0  0  0  0  0  0
   -1.2155   -5.5514   16.2167 N   0  0  0  0  0  0  0  0  0  0  0  0
   -0.7023   -4.5507   16.9575 C   0  0  0  0  0  0  0  0  0  0  0  0
    0.5386   -3.9593   16.8157 C   0  0  0  0  0  0  0  0  0  0  0  0
    1.3676   -4.4558   15.7902 C   0  0  0  0  0  0  0  0  0  0  0  0
    2.5994   -3.9786   15.5496 N   0  0  0  0  0  0  0  0  0  0  0  0
    0.7201   -2.9560   17.7500 N   0  0  0  0  0  0  0  0  0  0  0  0
   -0.3974   -2.9503   18.4274 C   0  0  0  0  0  0  0  0  0  0  0  0
   -1.2974   -3.8937   18.0080 N   0  0  0  0  0  0  0  0  0  0  0  0
  1  2  2  0  0  0  0
  1  6  1  0  0  0  0
  2  3  1  0  0  0  0
  3  4  2  0  0  0  0
  4  5  1  0  0  0  0
  4 10  1  0  0  0  0
  5  6  2  0  0  0  0
  5  8  1  0  0  0  0
  6  7  1  0  0  0  0
  8  9  1  0  0  0  0
  9 10  2  0  0  0  0
M  END
>  <CHROM.1>
0.22545335,-4.37079000,16.57755142,1.02078979,-0.39816568,-2.33589243

>  <Name>
ligand

>  <RI>
0

>  <Rbt.Current_Directory>
/home/itssahil/PROJECTS/Mol_Feturizer/New_Systems/rnas/4LW0

>  <Rbt.Executable>
rbdock ($Id: //depot/dev/client3/rdock/2013.1/src/exe/rbdock.cxx#4 $)

>  <Rbt.Library>
libRbt.so (2013.1, Build901 2013/11/27)

>  <Rbt.Parameter_File>
/export/apps/rDock/src/rDock_2013.1_src/data/scripts/dock_solv.prm

>  <Rbt.Receptor>
prm/blind_docking_20.prm

>  <SCORE>
-4.08602

>  <SCORE.INTER>
-4.08602

>  <SCORE.INTER.CONST>
1

>  <SCORE.INTER.POLAR>
0

>  <SCORE.INTER.ROT>
0

>  <SCORE.INTER.SOLV>
1.7284

>  <SCORE.INTER.VDW>
-6.90015

>  <SCORE.INTER.norm>
-0.408602

>  <SCORE.INTRA>
0

>  <SCORE.INTRA.DIHEDRAL>
0

>  <SCORE.INTRA.DIHEDRAL.0>
0

>  <SCORE.INTRA.POLAR>
0

>  <SCORE.INTRA.POLAR.0>
0

>  <SCORE.INTRA.REPUL>
0

>  <SCORE.INTRA.REPUL.0>
0

>  <SCORE.INTRA.SOLV>
0

>  <SCORE.INTRA.SOLV.lig_0>
-23.9151

>  <SCORE.INTRA.VDW>
0

>  <SCORE.INTRA.VDW.0>
0

>  <SCORE.INTRA.norm>
0

>  <SCORE.RESTR>
0

>  <SCORE.RESTR.CAVITY>
0

>  <SCORE.RESTR.norm>
0

>  <SCORE.SYSTEM>
0

>  <SCORE.SYSTEM.CONST>
0

>  <SCORE.SYSTEM.DIHEDRAL>
0

>  <SCORE.SYSTEM.SOLV>
0

>  <SCORE.SYSTEM.norm>
0

>  <SCORE.heavy>
10

>  <SCORE.norm>
-0.408602

>  <RMSD>
18.798

$$$$
ligand
 OpenBabel11021811503D
libRbt.so/2013.1/901 2013/11/27
 10 11  0  0  0  0  0  0  0  0999 V2000
    0.8839   -5.4629   15.0066 N   0  0  0  0  0  0  0  0  0  0  0  0
   -0.3336   -5.9412   15.2707 C   0  0  0  0  0  0  0  0  0  0  0  0
   -1.2047   -5.5575   16.2122 N   0  0  0  0  0  0  0  0  0  0  0  0
   -0.6873   -4.5599   16.9543 C   0  0  0  0  0  0  0  0  0  0  0  0
    0.5506   -3.9643   16.8046 C   0  0  0  0  0  0  0  0  0  0  0  0
    1.3713   -4.4522   15.7684 C   0  0  0  0  0  0  0  0  0  0  0  0
    2.5996   -3.9702   15.5193 N   0  0  0  0  0  0  0  0  0  0  0  0
    0.7382   -2.9662   17.7433 N   0  0  0  0  0  0  0  0  0  0  0  0
   -0.3730   -2.9678   18.4312 C   0  0  0  0  0  0  0  0  0  0  0  0
   -1.2743   -3.9110   18.0143 N   0  0  0  0  0  0  0  0  0  0  0  0
  1  2  2  0  0  0  0
  1  6  1  0  0  0  0
  2  3  1  0  0  0  0
  3  4  2  0  0  0  0
  4  5  1  0  0  0  0
  4 10  1  0  0  0  0
  5  6  2  0  0  0  0
  5  8  1  0  0  0  0
  6  7  1  0  0  0  0
  8  9  1  0  0  0  0
  9 10  2  0  0  0  0
M  END
>  <CHROM.1>
0.23639501,-4.37519602,16.56685068,1.02610573,-0.40654943,-2.32766817

>  <Name>
ligand

>  <RI>
0

>  <Rbt.Current_Directory>
/home/itssahil/PROJECTS/Mol_Feturizer/New_Systems/rnas/4LW0

>  <Rbt.Executable>
rbdock ($Id: //depot/dev/client3/rdock/2013.1/src/exe/rbdock.cxx#4 $)

>  <Rbt.Library>
libRbt.so (2013.1, Build901 2013/11/27)

>  <Rbt.Parameter_File>
/export/apps/rDock/src/rDock_2013.1_src/data/scripts/dock_solv.prm

>  <Rbt.Receptor>
prm/blind_docking_20.prm

>  <SCORE>
-4.11234

>  <SCORE.INTER>
-4.11234

>  <SCORE.INTER.CONST>
1

>  <SCORE.INTER.POLAR>
0

>  <SCORE.INTER.ROT>
0

>  <SCORE.INTER.SOLV>
1.73008

>  <SCORE.INTER.VDW>
-6.91826

>  <SCORE.INTER.norm>
-0.411234

>  <SCORE.INTRA>
0

>  <SCORE.INTRA.DIHEDRAL>
0

>  <SCORE.INTRA.DIHEDRAL.0>
0

>  <SCORE.INTRA.POLAR>
0

>  <SCORE.INTRA.POLAR.0>
0

>  <SCORE.INTRA.REPUL>
0

>  <SCORE.INTRA.REPUL.0>
0

>  <SCORE.INTRA.SOLV>
0

>  <SCORE.INTRA.SOLV.lig_0>
-23.9151

>  <SCORE.INTRA.VDW>
0

>  <SCORE.INTRA.VDW.0>
0

>  <SCORE.INTRA.norm>
0

>  <SCORE.RESTR>
0

>  <SCORE.RESTR.CAVITY>
0

>  <SCORE.RESTR.norm>
0

>  <SCORE.SYSTEM>
0

>  <SCORE.SYSTEM.CONST>
0

>  <SCORE.SYSTEM.DIHEDRAL>
0

>  <SCORE.SYSTEM.SOLV>
0

>  <SCORE.SYSTEM.norm>
0

>  <SCORE.heavy>
10

>  <SCORE.norm>
-0.411234

>  <RMSD>
18.799

$$$$
ligand
 OpenBabel11021811503D
libRbt.so/2013.1/901 2013/11/27
 10 11  0  0  0  0  0  0  0  0999 V2000
   -0.0033   -5.8544   14.9624 N   0  0  0  0  0  0  0  0  0  0  0  0
    1.3002   -5.5753   15.0272 C   0  0  0  0  0  0  0  0  0  0  0  0
    1.9431   -4.7349   15.8474 N   0  0  0  0  0  0  0  0  0  0  0  0
    1.0719   -4.1218   16.6712 C   0  0  0  0  0  0  0  0  0  0  0  0
   -0.2970   -4.3036   16.7227 C   0  0  0  0  0  0  0  0  0  0  0  0
   -0.8521   -5.2248   15.8124 C   0  0  0  0  0  0  0  0  0  0  0  0
   -2.1671   -5.4891   15.7492 N   0  0  0  0  0  0  0  0  0  0  0  0
   -0.8668   -3.5097   17.7012 N   0  0  0  0  0  0  0  0  0  0  0  0
    0.1493   -2.8751   18.2235 C   0  0  0  0  0  0  0  0  0  0  0  0
    1.3492   -3.1903   17.6431 N   0  0  0  0  0  0  0  0  0  0  0  0
  1  2  2  0  0  0  0
  1  6  1  0  0  0  0
  2  3  1  0  0  0  0
  3  4  2  0  0  0  0
  4  5  1  0  0  0  0
  4 10  1  0  0  0  0
  5  6  2  0  0  0  0
  5  8  1  0  0  0  0
  6  7  1  0  0  0  0
  8  9  1  0  0  0  0
  9 10  2  0  0  0  0
M  END
>  <CHROM.1>
0.15417013,-4.49309920,16.43177777,-1.83570206,0.12106458,0.83398861

>  <Name>
ligand

>  <RI>
0

>  <Rbt.Current_Directory>
/home/itssahil/PROJECTS/Mol_Feturizer/New_Systems/rnas/4LW0

>  <Rbt.Executable>
rbdock ($Id: //depot/dev/client3/rdock/2013.1/src/exe/rbdock.cxx#4 $)

>  <Rbt.Library>
libRbt.so (2013.1, Build901 2013/11/27)

>  <Rbt.Parameter_File>
/export/apps/rDock/src/rDock_2013.1_src/data/scripts/dock_solv.prm

>  <Rbt.Receptor>
prm/blind_docking_20.prm

>  <SCORE>
-4.18829

>  <SCORE.INTER>
-4.18829

>  <SCORE.INTER.CONST>
1

>  <SCORE.INTER.POLAR>
0

>  <SCORE.INTER.ROT>
0

>  <SCORE.INTER.SOLV>
2.07927

>  <SCORE.INTER.VDW>
-7.08529

>  <SCORE.INTER.norm>
-0.418829

>  <SCORE.INTRA>
0

>  <SCORE.INTRA.DIHEDRAL>
0

>  <SCORE.INTRA.DIHEDRAL.0>
0

>  <SCORE.INTRA.POLAR>
0

>  <SCORE.INTRA.POLAR.0>
0

>  <SCORE.INTRA.REPUL>
0

>  <SCORE.INTRA.REPUL.0>
0

>  <SCORE.INTRA.SOLV>
0

>  <SCORE.INTRA.SOLV.lig_0>
-23.9151

>  <SCORE.INTRA.VDW>
0

>  <SCORE.INTRA.VDW.0>
0

>  <SCORE.INTRA.norm>
0

>  <SCORE.RESTR>
0

>  <SCORE.RESTR.CAVITY>
0

>  <SCORE.RESTR.norm>
0

>  <SCORE.SYSTEM>
0

>  <SCORE.SYSTEM.CONST>
0

>  <SCORE.SYSTEM.DIHEDRAL>
0

>  <SCORE.SYSTEM.SOLV>
0

>  <SCORE.SYSTEM.norm>
0

>  <SCORE.heavy>
10

>  <SCORE.norm>
-0.418829

>  <RMSD>
18.800

$$$$
ligand
 OpenBabel11021811503D
libRbt.so/2013.1/901 2013/11/27
 10 11  0  0  0  0  0  0  0  0999 V2000
    0.0086   -5.8556   14.9581 N   0  0  0  0  0  0  0  0  0  0  0  0
    1.3118   -5.5784   15.0343 C   0  0  0  0  0  0  0  0  0  0  0  0
    1.9484   -4.7374   15.8588 N   0  0  0  0  0  0  0  0  0  0  0  0
    1.0706   -4.1212   16.6733 C   0  0  0  0  0  0  0  0  0  0  0  0
   -0.2990   -4.3008   16.7124 C   0  0  0  0  0  0  0  0  0  0  0  0
   -0.8471   -5.2231   15.7989 C   0  0  0  0  0  0  0  0  0  0  0  0
   -2.1618   -5.4855   15.7240 N   0  0  0  0  0  0  0  0  0  0  0  0
   -0.8766   -3.5041   17.6841 N   0  0  0  0  0  0  0  0  0  0  0  0
    0.1356   -2.8701   18.2144 C   0  0  0  0  0  0  0  0  0  0  0  0
    1.3403   -3.1882   17.6458 N   0  0  0  0  0  0  0  0  0  0  0  0
  1  2  2  0  0  0  0
  1  6  1  0  0  0  0
  2  3  1  0  0  0  0
  3  4  2  0  0  0  0
  4  5  1  0  0  0  0
  4 10  1  0  0  0  0
  5  6  2  0  0  0  0
  5  8  1  0  0  0  0
  6  7  1  0  0  0  0
  8  9  1  0  0  0  0
  9 10  2  0  0  0  0
M  END
>  <CHROM.1>
0.15453012,-4.49163838,16.42611039,-1.82985602,0.11369196,0.83129734

>  <Name>
ligand

>  <RI>
0

>  <Rbt.Current_Directory>
/home/itssahil/PROJECTS/Mol_Feturizer/New_Systems/rnas/4LW0

>  <Rbt.Executable>
rbdock ($Id: //depot/dev/client3/rdock/2013.1/src/exe/rbdock.cxx#4 $)

>  <Rbt.Library>
libRbt.so (2013.1, Build901 2013/11/27)

>  <Rbt.Parameter_File>
/export/apps/rDock/src/rDock_2013.1_src/data/scripts/dock_solv.prm

>  <Rbt.Receptor>
prm/blind_docking_20.prm

>  <SCORE>
-4.18603

>  <SCORE.INTER>
-4.18603

>  <SCORE.INTER.CONST>
1

>  <SCORE.INTER.POLAR>
0

>  <SCORE.INTER.ROT>
0

>  <SCORE.INTER.SOLV>
2.07784

>  <SCORE.INTER.VDW>
-7.0833

>  <SCORE.INTER.norm>
-0.418603

>  <SCORE.INTRA>
0

>  <SCORE.INTRA.DIHEDRAL>
0

>  <SCORE.INTRA.DIHEDRAL.0>
0

>  <SCORE.INTRA.POLAR>
0

>  <SCORE.INTRA.POLAR.0>
0

>  <SCORE.INTRA.REPUL>
0

>  <SCORE.INTRA.REPUL.0>
0

>  <SCORE.INTRA.SOLV>
0

>  <SCORE.INTRA.SOLV.lig_0>
-23.9151

>  <SCORE.INTRA.VDW>
0

>  <SCORE.INTRA.VDW.0>
0

>  <SCORE.INTRA.norm>
0

>  <SCORE.RESTR>
0

>  <SCORE.RESTR.CAVITY>
0

>  <SCORE.RESTR.norm>
0

>  <SCORE.SYSTEM>
0

>  <SCORE.SYSTEM.CONST>
0

>  <SCORE.SYSTEM.DIHEDRAL>
0

>  <SCORE.SYSTEM.SOLV>
0

>  <SCORE.SYSTEM.norm>
0

>  <SCORE.heavy>
10

>  <SCORE.norm>
-0.418603

>  <RMSD>
18.803

$$$$
ligand
 OpenBabel11021811503D
libRbt.so/2013.1/901 2013/11/27
 10 11  0  0  0  0  0  0  0  0999 V2000
    0.0701   -5.8704   14.9162 N   0  0  0  0  0  0  0  0  0  0  0  0
    1.3849   -5.6566   14.9981 C   0  0  0  0  0  0  0  0  0  0  0  0
    2.0576   -4.8438   15.8222 N   0  0  0  0  0  0  0  0  0  0  0  0
    1.2067   -4.1819   16.6294 C   0  0  0  0  0  0  0  0  0  0  0  0
   -0.1702   -4.2944   16.6621 C   0  0  0  0  0  0  0  0  0  0  0  0
   -0.7580   -5.1931   15.7498 C   0  0  0  0  0  0  0  0  0  0  0  0
   -2.0835   -5.3914   15.6692 N   0  0  0  0  0  0  0  0  0  0  0  0
   -0.7132   -3.4660   17.6273 N   0  0  0  0  0  0  0  0  0  0  0  0
    0.3260   -2.8796   18.1602 C   0  0  0  0  0  0  0  0  0  0  0  0
    1.5166   -3.2586   17.5993 N   0  0  0  0  0  0  0  0  0  0  0  0
  1  2  2  0  0  0  0
  1  6  1  0  0  0  0
  2  3  1  0  0  0  0
  3  4  2  0  0  0  0
  4  5  1  0  0  0  0
  4 10  1  0  0  0  0
  5  6  2  0  0  0  0
  5  8  1  0  0  0  0
  6  7  1  0  0  0  0
  8  9  1  0  0  0  0
  9 10  2  0  0  0  0
M  END
>  <CHROM.1>
0.27494146,-4.50837721,16.37904783,-1.85906116,0.07424338,0.82955320

>  <Name>
ligand

>  <RI>
0

>  <Rbt.Current_Directory>
/home/itssahil/PROJECTS/Mol_Feturizer/New_Systems/rnas/4LW0

>  <Rbt.Executable>
rbdock ($Id: //depot/dev/client3/rdock/2013.1/src/exe/rbdock.cxx#4 $)

>  <Rbt.Library>
libRbt.so (2013.1, Build901 2013/11/27)

>  <Rbt.Parameter_File>
/export/apps/rDock/src/rDock_2013.1_src/data/scripts/dock_solv.prm

>  <Rbt.Receptor>
prm/blind_docking_20.prm

>  <SCORE>
-4.21026

>  <SCORE.INTER>
-4.21026

>  <SCORE.INTER.CONST>
1

>  <SCORE.INTER.POLAR>
0

>  <SCORE.INTER.ROT>
0

>  <SCORE.INTER.SOLV>
2.12887

>  <SCORE.INTER.VDW>
-7.11646

>  <SCORE.INTER.norm>
-0.421026

>  <SCORE.INTRA>
0

>  <SCORE.INTRA.DIHEDRAL>
0

>  <SCORE.INTRA.DIHEDRAL.0>
0

>  <SCORE.INTRA.POLAR>
0

>  <SCORE.INTRA.POLAR.0>
0

>  <SCORE.INTRA.REPUL>
0

>  <SCORE.INTRA.REPUL.0>
0

>  <SCORE.INTRA.SOLV>
0

>  <SCORE.INTRA.SOLV.lig_0>
-23.9151

>  <SCORE.INTRA.VDW>
0

>  <SCORE.INTRA.VDW.0>
0

>  <SCORE.INTRA.norm>
0

>  <SCORE.RESTR>
0

>  <SCORE.RESTR.CAVITY>
0

>  <SCORE.RESTR.norm>
0

>  <SCORE.SYSTEM>
0

>  <SCORE.SYSTEM.CONST>
0

>  <SCORE.SYSTEM.DIHEDRAL>
0

>  <SCORE.SYSTEM.SOLV>
0

>  <SCORE.SYSTEM.norm>
0

>  <SCORE.heavy>
10

>  <SCORE.norm>
-0.421026

>  <RMSD>
18.804

$$$$
ligand
 OpenBabel11021811503D
libRbt.so/2013.1/901 2013/11/27
 10 11  0  0  0  0  0  0  0  0999 V2000
    0.0532   -5.8648   14.9476 N   0  0  0  0  0  0  0  0  0  0  0  0
    1.3552   -5.5898   15.0492 C   0  0  0  0  0  0  0  0  0  0  0  0
    1.9765   -4.7455   15.8819 N   0  0  0  0  0  0  0  0  0  0  0  0
    1.0834   -4.1228   16.6746 C   0  0  0  0  0  0  0  0  0  0  0  0
   -0.2872   -4.2993   16.6864 C   0  0  0  0  0  0  0  0  0  0  0  0
   -0.8183   -5.2256   15.7670 C   0  0  0  0  0  0  0  0  0  0  0  0
   -2.1318   -5.4857   15.6664 N   0  0  0  0  0  0  0  0  0  0  0  0
   -0.8830   -3.4959   17.6413 N   0  0  0  0  0  0  0  0  0  0  0  0
    0.1194   -2.8610   18.1889 C   0  0  0  0  0  0  0  0  0  0  0  0
    1.3349   -3.1848   17.6472 N   0  0  0  0  0  0  0  0  0  0  0  0
  1  2  2  0  0  0  0
  1  6  1  0  0  0  0
  2  3  1  0  0  0  0
  3  4  2  0  0  0  0
  4  5  1  0  0  0  0
  4 10  1  0  0  0  0
  5  6  2  0  0  0  0
  5  8  1  0  0  0  0
  6  7  1  0  0  0  0
  8  9  1  0  0  0  0
  9 10  2  0  0  0  0
M  END
>  <CHROM.1>
0.17177687,-4.49272635,16.41059577,-1.81600016,0.09811658,0.82415025

>  <Name>
ligand

>  <RI>
0

>  <Rbt.Current_Directory>
/home/itssahil/PROJECTS/Mol_Feturizer/New_Systems/rnas/4LW0

>  <Rbt.Executable>
rbdock ($Id: //depot/dev/client3/rdock/2013.1/src/exe/rbdock.cxx#4 $)

>  <Rbt.Library>
libRbt.so (2013.1, Build901 2013/11/27)

>  <Rbt.Parameter_File>
/export/apps/rDock/src/rDock_2013.1_src/data/scripts/dock_solv.prm

>  <Rbt.Receptor>
prm/blind_docking_20.prm

>  <SCORE>
-4.20707

>  <SCORE.INTER>
-4.20707

>  <SCORE.INTER.CONST>
1

>  <SCORE.INTER.POLAR>
0

>  <SCORE.INTER.ROT>
0

>  <SCORE.INTER.SOLV>
2.10402

>  <SCORE.INTER.VDW>
-7.10605

>  <SCORE.INTER.norm>
-0.420707

>  <SCORE.INTRA>
0

>  <SCORE.INTRA.DIHEDRAL>
0

>  <SCORE.INTRA.DIHEDRAL.0>
0

>  <SCORE.INTRA.POLAR>
0

>  <SCORE.INTRA.POLAR.0>
0

>  <SCORE.INTRA.REPUL>
0

>  <SCORE.INTRA.REPUL.0>
0

>  <SCORE.INTRA.SOLV>
0

>  <SCORE.INTRA.SOLV.lig_0>
-23.9151

>  <SCORE.INTRA.VDW>
0

>  <SCORE.INTRA.VDW.0>
0

>  <SCORE.INTRA.norm>
0

>  <SCORE.RESTR>
0

>  <SCORE.RESTR.CAVITY>
0

>  <SCORE.RESTR.norm>
0

>  <SCORE.SYSTEM>
0

>  <SCORE.SYSTEM.CONST>
0

>  <SCORE.SYSTEM.DIHEDRAL>
0

>  <SCORE.SYSTEM.SOLV>
0

>  <SCORE.SYSTEM.norm>
0

>  <SCORE.heavy>
10

>  <SCORE.norm>
-0.420707

>  <RMSD>
18.805

$$$$
ligand
 OpenBabel11021811503D
libRbt.so/2013.1/901 2013/11/27
 10 11  0  0  0  0  0  0  0  0999 V2000
    0.0214   -5.8489   14.9434 N   0  0  0  0  0  0  0  0  0  0  0  0
    1.3242   -5.5698   15.0202 C   0  0  0  0  0  0  0  0  0  0  0  0
    1.9598   -4.7314   15.8481 N   0  0  0  0  0  0  0  0  0  0  0  0
    1.0814   -4.1204   16.6658 C   0  0  0  0  0  0  0  0  0  0  0  0
   -0.2879   -4.3025   16.7048 C   0  0  0  0  0  0  0  0  0  0  0  0
   -0.8349   -5.2216   15.7875 C   0  0  0  0  0  0  0  0  0  0  0  0
   -2.1492   -5.4859   15.7121 N   0  0  0  0  0  0  0  0  0  0  0  0
   -0.8664   -3.5112   17.6803 N   0  0  0  0  0  0  0  0  0  0  0  0
    0.1450   -2.8778   18.2130 C   0  0  0  0  0  0  0  0  0  0  0  0
    1.3500   -3.1913   17.6424 N   0  0  0  0  0  0  0  0  0  0  0  0
  1  2  2  0  0  0  0
  1  6  1  0  0  0  0
  2  3  1  0  0  0  0
  3  4  2  0  0  0  0
  4  5  1  0  0  0  0
  4 10  1  0  0  0  0
  5  6  2  0  0  0  0
  5  8  1  0  0  0  0
  6  7  1  0  0  0  0
  8  9  1  0  0  0  0
  9 10  2  0  0  0  0
M  END
>  <CHROM.1>
0.16580687,-4.49124405,16.41741896,-1.82908316,0.11531699,0.83569480

>  <Name>
ligand

>  <RI>
0

>  <Rbt.Current_Directory>
/home/itssahil/PROJECTS/Mol_Feturizer/New_Systems/rnas/4LW0

>  <Rbt.Executable>
rbdock ($Id: //depot/dev/client3/rdock/2013.1/src/exe/rbdock.cxx#4 $)

>  <Rbt.Library>
libRbt.so (2013.1, Build901 2013/11/27)

>  <Rbt.Parameter_File>
/export/apps/rDock/src/rDock_2013.1_src/data/scripts/dock_solv.prm

>  <Rbt.Receptor>
prm/blind_docking_20.prm

>  <SCORE>
-4.18937

>  <SCORE.INTER>
-4.18937

>  <SCORE.INTER.CONST>
1

>  <SCORE.INTER.POLAR>
0

>  <SCORE.INTER.ROT>
0

>  <SCORE.INTER.SOLV>
2.073

>  <SCORE.INTER.VDW>
-7.08391

>  <SCORE.INTER.norm>
-0.418937

>  <SCORE.INTRA>
0

>  <SCORE.INTRA.DIHEDRAL>
0

>  <SCORE.INTRA.DIHEDRAL.0>
0

>  <SCORE.INTRA.POLAR>
0

>  <SCORE.INTRA.POLAR.0>
0

>  <SCORE.INTRA.REPUL>
0

>  <SCORE.INTRA.REPUL.0>
0

>  <SCORE.INTRA.SOLV>
0

>  <SCORE.INTRA.SOLV.lig_0>
-23.9151

>  <SCORE.INTRA.VDW>
0

>  <SCORE.INTRA.VDW.0>
0

>  <SCORE.INTRA.norm>
0

>  <SCORE.RESTR>
0

>  <SCORE.RESTR.CAVITY>
0

>  <SCORE.RESTR.norm>
0

>  <SCORE.SYSTEM>
0

>  <SCORE.SYSTEM.CONST>
0

>  <SCORE.SYSTEM.DIHEDRAL>
0

>  <SCORE.SYSTEM.SOLV>
0

>  <SCORE.SYSTEM.norm>
0

>  <SCORE.heavy>
10

>  <SCORE.norm>
-0.418937

>  <RMSD>
18.806

$$$$
ligand
 OpenBabel11021811503D
libRbt.so/2013.1/901 2013/11/27
 10 11  0  0  0  0  0  0  0  0999 V2000
    0.0540   -5.8654   14.9501 N   0  0  0  0  0  0  0  0  0  0  0  0
    1.3562   -5.5907   15.0507 C   0  0  0  0  0  0  0  0  0  0  0  0
    1.9782   -4.7455   15.8820 N   0  0  0  0  0  0  0  0  0  0  0  0
    1.0858   -4.1217   16.6744 C   0  0  0  0  0  0  0  0  0  0  0  0
   -0.2848   -4.2978   16.6873 C   0  0  0  0  0  0  0  0  0  0  0  0
   -0.8167   -5.2250   15.7693 C   0  0  0  0  0  0  0  0  0  0  0  0
   -2.1304   -5.4848   15.6698 N   0  0  0  0  0  0  0  0  0  0  0  0
   -0.8798   -3.4931   17.6417 N   0  0  0  0  0  0  0  0  0  0  0  0
    0.1231   -2.8578   18.1879 C   0  0  0  0  0  0  0  0  0  0  0  0
    1.3382   -3.1827   17.6458 N   0  0  0  0  0  0  0  0  0  0  0  0
  1  2  2  0  0  0  0
  1  6  1  0  0  0  0
  2  3  1  0  0  0  0
  3  4  2  0  0  0  0
  4  5  1  0  0  0  0
  4 10  1  0  0  0  0
  5  6  2  0  0  0  0
  5  8  1  0  0  0  0
  6  7  1  0  0  0  0
  8  9  1  0  0  0  0
  9 10  2  0  0  0  0
M  END
>  <CHROM.1>
0.17392417,-4.49165464,16.41144101,-1.81665316,0.09831077,0.82304571

>  <Name>
ligand

>  <RI>
0

>  <Rbt.Current_Directory>
/home/itssahil/PROJECTS/Mol_Feturizer/New_Systems/rnas/4LW0

>  <Rbt.Executable>
rbdock ($Id: //depot/dev/client3/rdock/2013.1/src/exe/rbdock.cxx#4 $)

>  <Rbt.Library>
libRbt.so (2013.1, Build901 2013/11/27)

>  <Rbt.Parameter_File>
/export/apps/rDock/src/rDock_2013.1_src/data/scripts/dock_solv.prm

>  <Rbt.Receptor>
prm/blind_docking_20.prm

>  <SCORE>
-4.20465

>  <SCORE.INTER>
-4.20465

>  <SCORE.INTER.CONST>
1

>  <SCORE.INTER.POLAR>
0

>  <SCORE.INTER.ROT>
0

>  <SCORE.INTER.SOLV>
2.11002

>  <SCORE.INTER.VDW>
-7.10644

>  <SCORE.INTER.norm>
-0.420465

>  <SCORE.INTRA>
0

>  <SCORE.INTRA.DIHEDRAL>
0

>  <SCORE.INTRA.DIHEDRAL.0>
0

>  <SCORE.INTRA.POLAR>
0

>  <SCORE.INTRA.POLAR.0>
0

>  <SCORE.INTRA.REPUL>
0

>  <SCORE.INTRA.REPUL.0>
0

>  <SCORE.INTRA.SOLV>
0

>  <SCORE.INTRA.SOLV.lig_0>
-23.9151

>  <SCORE.INTRA.VDW>
0

>  <SCORE.INTRA.VDW.0>
0

>  <SCORE.INTRA.norm>
0

>  <SCORE.RESTR>
0

>  <SCORE.RESTR.CAVITY>
0

>  <SCORE.RESTR.norm>
0

>  <SCORE.SYSTEM>
0

>  <SCORE.SYSTEM.CONST>
0

>  <SCORE.SYSTEM.DIHEDRAL>
0

>  <SCORE.SYSTEM.SOLV>
0

>  <SCORE.SYSTEM.norm>
0

>  <SCORE.heavy>
10

>  <SCORE.norm>
-0.420465

>  <RMSD>
18.806

$$$$
ligand
 OpenBabel11021811503D
libRbt.so/2013.1/901 2013/11/27
 10 11  0  0  0  0  0  0  0  0999 V2000
    0.0996   -5.8807   14.9066 N   0  0  0  0  0  0  0  0  0  0  0  0
    1.4120   -5.6635   15.0147 C   0  0  0  0  0  0  0  0  0  0  0  0
    2.0655   -4.8437   15.8473 N   0  0  0  0  0  0  0  0  0  0  0  0
    1.1965   -4.1783   16.6319 C   0  0  0  0  0  0  0  0  0  0  0  0
   -0.1806   -4.2936   16.6364 C   0  0  0  0  0  0  0  0  0  0  0  0
   -0.7472   -5.1996   15.7180 C   0  0  0  0  0  0  0  0  0  0  0  0
   -2.0703   -5.4015   15.6108 N   0  0  0  0  0  0  0  0  0  0  0  0
   -0.7455   -3.4600   17.5843 N   0  0  0  0  0  0  0  0  0  0  0  0
    0.2811   -2.8677   18.1350 C   0  0  0  0  0  0  0  0  0  0  0  0
    1.4840   -3.2479   17.6018 N   0  0  0  0  0  0  0  0  0  0  0  0
  1  2  2  0  0  0  0
  1  6  1  0  0  0  0
  2  3  1  0  0  0  0
  3  4  2  0  0  0  0
  4  5  1  0  0  0  0
  4 10  1  0  0  0  0
  5  6  2  0  0  0  0
  5  8  1  0  0  0  0
  6  7  1  0  0  0  0
  8  9  1  0  0  0  0
  9 10  2  0  0  0  0
M  END
>  <CHROM.1>
0.27084360,-4.50850434,16.36416997,-1.84210835,0.06153360,0.82169136

>  <Name>
ligand

>  <RI>
0

>  <Rbt.Current_Directory>
/home/itssahil/PROJECTS/Mol_Feturizer/New_Systems/rnas/4LW0

>  <Rbt.Executable>
rbdock ($Id: //depot/dev/client3/rdock/2013.1/src/exe/rbdock.cxx#4 $)

>  <Rbt.Library>
libRbt.so (2013.1, Build901 2013/11/27)

>  <Rbt.Parameter_File>
/export/apps/rDock/src/rDock_2013.1_src/data/scripts/dock_solv.prm

>  <Rbt.Receptor>
prm/blind_docking_20.prm

>  <SCORE>
-4.19813

>  <SCORE.INTER>
-4.19813

>  <SCORE.INTER.CONST>
1

>  <SCORE.INTER.POLAR>
0

>  <SCORE.INTER.ROT>
0

>  <SCORE.INTER.SOLV>
2.13348

>  <SCORE.INTER.VDW>
-7.10991

>  <SCORE.INTER.norm>
-0.419813

>  <SCORE.INTRA>
0

>  <SCORE.INTRA.DIHEDRAL>
0

>  <SCORE.INTRA.DIHEDRAL.0>
0

>  <SCORE.INTRA.POLAR>
0

>  <SCORE.INTRA.POLAR.0>
0

>  <SCORE.INTRA.REPUL>
0

>  <SCORE.INTRA.REPUL.0>
0

>  <SCORE.INTRA.SOLV>
0

>  <SCORE.INTRA.SOLV.lig_0>
-23.9151

>  <SCORE.INTRA.VDW>
0

>  <SCORE.INTRA.VDW.0>
0

>  <SCORE.INTRA.norm>
0

>  <SCORE.RESTR>
0

>  <SCORE.RESTR.CAVITY>
0

>  <SCORE.RESTR.norm>
0

>  <SCORE.SYSTEM>
0

>  <SCORE.SYSTEM.CONST>
0

>  <SCORE.SYSTEM.DIHEDRAL>
0

>  <SCORE.SYSTEM.SOLV>
0

>  <SCORE.SYSTEM.norm>
0

>  <SCORE.heavy>
10

>  <SCORE.norm>
-0.419813

>  <RMSD>
18.808

$$$$
ligand
 OpenBabel11021811503D
libRbt.so/2013.1/901 2013/11/27
 10 11  0  0  0  0  0  0  0  0999 V2000
    0.0573   -5.8592   14.9426 N   0  0  0  0  0  0  0  0  0  0  0  0
    1.3603   -5.5870   15.0393 C   0  0  0  0  0  0  0  0  0  0  0  0
    1.9866   -4.7445   15.8701 N   0  0  0  0  0  0  0  0  0  0  0  0
    1.0979   -4.1207   16.6668 C   0  0  0  0  0  0  0  0  0  0  0  0
   -0.2729   -4.2944   16.6840 C   0  0  0  0  0  0  0  0  0  0  0  0
   -0.8096   -5.2189   15.7660 C   0  0  0  0  0  0  0  0  0  0  0  0
   -2.1240   -5.4762   15.6704 N   0  0  0  0  0  0  0  0  0  0  0  0
   -0.8633   -3.4905   17.6419 N   0  0  0  0  0  0  0  0  0  0  0  0
    0.1426   -2.8580   18.1860 C   0  0  0  0  0  0  0  0  0  0  0  0
    1.3553   -3.1840   17.6391 N   0  0  0  0  0  0  0  0  0  0  0  0
  1  2  2  0  0  0  0
  1  6  1  0  0  0  0
  2  3  1  0  0  0  0
  3  4  2  0  0  0  0
  4  5  1  0  0  0  0
  4 10  1  0  0  0  0
  5  6  2  0  0  0  0
  5  8  1  0  0  0  0
  6  7  1  0  0  0  0
  8  9  1  0  0  0  0
  9 10  2  0  0  0  0
M  END
>  <CHROM.1>
0.18454618,-4.48852212,16.40618478,-1.82033449,0.09933459,0.82534500

>  <Name>
ligand

>  <RI>
0

>  <Rbt.Current_Directory>
/home/itssahil/PROJECTS/Mol_Feturizer/New_Systems/rnas/4LW0

>  <Rbt.Executable>
rbdock ($Id: //depot/dev/client3/rdock/2013.1/src/exe/rbdock.cxx#4 $)

>  <Rbt.Library>
libRbt.so (2013.1, Build901 2013/11/27)

>  <Rbt.Parameter_File>
/export/apps/rDock/src/rDock_2013.1_src/data/scripts/dock_solv.prm

>  <Rbt.Receptor>
prm/blind_docking_20.prm

>  <SCORE>
-4.20532

>  <SCORE.INTER>
-4.20532

>  <SCORE.INTER.CONST>
1

>  <SCORE.INTER.POLAR>
0

>  <SCORE.INTER.ROT>
0

>  <SCORE.INTER.SOLV>
2.10657

>  <SCORE.INTER.VDW>
-7.10574

>  <SCORE.INTER.norm>
-0.420532

>  <SCORE.INTRA>
0

>  <SCORE.INTRA.DIHEDRAL>
0

>  <SCORE.INTRA.DIHEDRAL.0>
0

>  <SCORE.INTRA.POLAR>
0

>  <SCORE.INTRA.POLAR.0>
0

>  <SCORE.INTRA.REPUL>
0

>  <SCORE.INTRA.REPUL.0>
0

>  <SCORE.INTRA.SOLV>
0

>  <SCORE.INTRA.SOLV.lig_0>
-23.9151

>  <SCORE.INTRA.VDW>
0

>  <SCORE.INTRA.VDW.0>
0

>  <SCORE.INTRA.norm>
0

>  <SCORE.RESTR>
0

>  <SCORE.RESTR.CAVITY>
0

>  <SCORE.RESTR.norm>
0

>  <SCORE.SYSTEM>
0

>  <SCORE.SYSTEM.CONST>
0

>  <SCORE.SYSTEM.DIHEDRAL>
0

>  <SCORE.SYSTEM.SOLV>
0

>  <SCORE.SYSTEM.norm>
0

>  <SCORE.heavy>
10

>  <SCORE.norm>
-0.420532

>  <RMSD>
18.811

$$$$
ligand
 OpenBabel11021811503D
libRbt.so/2013.1/901 2013/11/27
 10 11  0  0  0  0  0  0  0  0999 V2000
    0.0325   -5.8681   14.9530 N   0  0  0  0  0  0  0  0  0  0  0  0
    1.3363   -5.5951   15.0341 C   0  0  0  0  0  0  0  0  0  0  0  0
    1.9713   -4.7478   15.8533 N   0  0  0  0  0  0  0  0  0  0  0  0
    1.0911   -4.1194   16.6558 C   0  0  0  0  0  0  0  0  0  0  0  0
   -0.2794   -4.2933   16.6886 C   0  0  0  0  0  0  0  0  0  0  0  0
   -0.8257   -5.2231   15.7818 C   0  0  0  0  0  0  0  0  0  0  0  0
   -2.1410   -5.4812   15.7018 N   0  0  0  0  0  0  0  0  0  0  0  0
   -0.8597   -3.4838   17.6481 N   0  0  0  0  0  0  0  0  0  0  0  0
    0.1519   -2.8481   18.1777 C   0  0  0  0  0  0  0  0  0  0  0  0
    1.3587   -3.1771   17.6198 N   0  0  0  0  0  0  0  0  0  0  0  0
  1  2  2  0  0  0  0
  1  6  1  0  0  0  0
  2  3  1  0  0  0  0
  3  4  2  0  0  0  0
  4  5  1  0  0  0  0
  4 10  1  0  0  0  0
  5  6  2  0  0  0  0
  5  8  1  0  0  0  0
  6  7  1  0  0  0  0
  8  9  1  0  0  0  0
  9 10  2  0  0  0  0
M  END
>  <CHROM.1>
0.17505322,-4.48890856,16.40709886,-1.82810975,0.10671761,0.82033319

>  <Name>
ligand

>  <RI>
0

>  <Rbt.Current_Directory>
/home/itssahil/PROJECTS/Mol_Feturizer/New_Systems/rnas/4LW0

>  <Rbt.Executable>
rbdock ($Id: //depot/dev/client3/rdock/2013.1/src/exe/rbdock.cxx#4 $)

>  <Rbt.Library>
libRbt.so (2013.1, Build901 2013/11/27)

>  <Rbt.Parameter_File>
/export/apps/rDock/src/rDock_2013.1_src/data/scripts/dock_solv.prm

>  <Rbt.Receptor>
prm/blind_docking_20.prm

>  <SCORE>
-4.19075

>  <SCORE.INTER>
-4.19075

>  <SCORE.INTER.CONST>
1

>  <SCORE.INTER.POLAR>
0

>  <SCORE.INTER.ROT>
0

>  <SCORE.INTER.SOLV>
2.12346

>  <SCORE.INTER.VDW>
-7.10165

>  <SCORE.INTER.norm>
-0.419075

>  <SCORE.INTRA>
0

>  <SCORE.INTRA.DIHEDRAL>
0

>  <SCORE.INTRA.DIHEDRAL.0>
0

>  <SCORE.INTRA.POLAR>
0

>  <SCORE.INTRA.POLAR.0>
0

>  <SCORE.INTRA.REPUL>
0

>  <SCORE.INTRA.REPUL.0>
0

>  <SCORE.INTRA.SOLV>
0

>  <SCORE.INTRA.SOLV.lig_0>
-23.9151

>  <SCORE.INTRA.VDW>
0

>  <SCORE.INTRA.VDW.0>
0

>  <SCORE.INTRA.norm>
0

>  <SCORE.RESTR>
0

>  <SCORE.RESTR.CAVITY>
0

>  <SCORE.RESTR.norm>
0

>  <SCORE.SYSTEM>
0

>  <SCORE.SYSTEM.CONST>
0

>  <SCORE.SYSTEM.DIHEDRAL>
0

>  <SCORE.SYSTEM.SOLV>
0

>  <SCORE.SYSTEM.norm>
0

>  <SCORE.heavy>
10

>  <SCORE.norm>
-0.419075

>  <RMSD>
18.813

$$$$
ligand
 OpenBabel11021811503D
libRbt.so/2013.1/901 2013/11/27
 10 11  0  0  0  0  0  0  0  0999 V2000
    0.0389   -5.8537   14.9469 N   0  0  0  0  0  0  0  0  0  0  0  0
    1.3433   -5.5852   15.0336 C   0  0  0  0  0  0  0  0  0  0  0  0
    1.9784   -4.7446   15.8597 N   0  0  0  0  0  0  0  0  0  0  0  0
    1.0976   -4.1184   16.6633 C   0  0  0  0  0  0  0  0  0  0  0  0
   -0.2735   -4.2883   16.6910 C   0  0  0  0  0  0  0  0  0  0  0  0
   -0.8198   -5.2111   15.7770 C   0  0  0  0  0  0  0  0  0  0  0  0
   -2.1357   -5.4647   15.6915 N   0  0  0  0  0  0  0  0  0  0  0  0
   -0.8542   -3.4829   17.6536 N   0  0  0  0  0  0  0  0  0  0  0  0
    0.1576   -2.8533   18.1900 C   0  0  0  0  0  0  0  0  0  0  0  0
    1.3651   -3.1826   17.6337 N   0  0  0  0  0  0  0  0  0  0  0  0
  1  2  2  0  0  0  0
  1  6  1  0  0  0  0
  2  3  1  0  0  0  0
  3  4  2  0  0  0  0
  4  5  1  0  0  0  0
  4 10  1  0  0  0  0
  5  6  2  0  0  0  0
  5  8  1  0  0  0  0
  6  7  1  0  0  0  0
  8  9  1  0  0  0  0
  9 10  2  0  0  0  0
M  END
>  <CHROM.1>
0.18124105,-4.48363291,16.40965409,-1.82795646,0.10247772,0.82628318

>  <Name>
ligand

>  <RI>
0

>  <Rbt.Current_Directory>
/home/itssahil/PROJECTS/Mol_Feturizer/New_Systems/rnas/4LW0

>  <Rbt.Executable>
rbdock ($Id: //depot/dev/client3/rdock/2013.1/src/exe/rbdock.cxx#4 $)

>  <Rbt.Library>
libRbt.so (2013.1, Build901 2013/11/27)

>  <Rbt.Parameter_File>
/export/apps/rDock/src/rDock_2013.1_src/data/scripts/dock_solv.prm

>  <Rbt.Receptor>
prm/blind_docking_20.prm

>  <SCORE>
-4.1974

>  <SCORE.INTER>
-4.1974

>  <SCORE.INTER.CONST>
1

>  <SCORE.INTER.POLAR>
0

>  <SCORE.INTER.ROT>
0

>  <SCORE.INTER.SOLV>
2.09547

>  <SCORE.INTER.VDW>
-7.09675

>  <SCORE.INTER.norm>
-0.41974

>  <SCORE.INTRA>
0

>  <SCORE.INTRA.DIHEDRAL>
0

>  <SCORE.INTRA.DIHEDRAL.0>
0

>  <SCORE.INTRA.POLAR>
0

>  <SCORE.INTRA.POLAR.0>
0

>  <SCORE.INTRA.REPUL>
0

>  <SCORE.INTRA.REPUL.0>
0

>  <SCORE.INTRA.SOLV>
0

>  <SCORE.INTRA.SOLV.lig_0>
-23.9151

>  <SCORE.INTRA.VDW>
0

>  <SCORE.INTRA.VDW.0>
0

>  <SCORE.INTRA.norm>
0

>  <SCORE.RESTR>
0

>  <SCORE.RESTR.CAVITY>
0

>  <SCORE.RESTR.norm>
0

>  <SCORE.SYSTEM>
0

>  <SCORE.SYSTEM.CONST>
0

>  <SCORE.SYSTEM.DIHEDRAL>
0

>  <SCORE.SYSTEM.SOLV>
0

>  <SCORE.SYSTEM.norm>
0

>  <SCORE.heavy>
10

>  <SCORE.norm>
-0.41974

>  <RMSD>
18.815

$$$$
ligand
 OpenBabel11021811503D
libRbt.so/2013.1/901 2013/11/27
 10 11  0  0  0  0  0  0  0  0999 V2000
   -0.8249   -3.5560   17.5205 N   0  0  0  0  0  0  0  0  0  0  0  0
    0.3488   -3.0432   17.8952 C   0  0  0  0  0  0  0  0  0  0  0  0
    1.5752   -3.3175   17.4336 N   0  0  0  0  0  0  0  0  0  0  0  0
    1.5176   -4.2623   16.4756 C   0  0  0  0  0  0  0  0  0  0  0  0
    0.3857   -4.8847   15.9847 C   0  0  0  0  0  0  0  0  0  0  0  0
   -0.8476   -4.4999   16.5469 C   0  0  0  0  0  0  0  0  0  0  0  0
   -2.0215   -5.0314   16.1692 N   0  0  0  0  0  0  0  0  0  0  0  0
    0.7097   -5.7975   14.9976 N   0  0  0  0  0  0  0  0  0  0  0  0
    2.0101   -5.7103   14.9023 C   0  0  0  0  0  0  0  0  0  0  0  0
    2.5641   -4.8089   15.7719 N   0  0  0  0  0  0  0  0  0  0  0  0
  1  2  2  0  0  0  0
  1  6  1  0  0  0  0
  2  3  1  0  0  0  0
  3  4  2  0  0  0  0
  4  5  1  0  0  0  0
  4 10  1  0  0  0  0
  5  6  2  0  0  0  0
  5  8  1  0  0  0  0
  6  7  1  0  0  0  0
  8  9  1  0  0  0  0
  9 10  2  0  0  0  0
M  END
>  <CHROM.1>
0.53090395,-4.49202344,16.37041269,-2.50131814,-0.09531987,-2.34028787

>  <Name>
ligand

>  <RI>
0

>  <Rbt.Current_Directory>
/home/itssahil/PROJECTS/Mol_Feturizer/New_Systems/rnas/4LW0

>  <Rbt.Executable>
rbdock ($Id: //depot/dev/client3/rdock/2013.1/src/exe/rbdock.cxx#4 $)

>  <Rbt.Library>
libRbt.so (2013.1, Build901 2013/11/27)

>  <Rbt.Parameter_File>
/export/apps/rDock/src/rDock_2013.1_src/data/scripts/dock_solv.prm

>  <Rbt.Receptor>
prm/blind_docking_20.prm

>  <SCORE>
-4.00681

>  <SCORE.INTER>
-4.00681

>  <SCORE.INTER.CONST>
1

>  <SCORE.INTER.POLAR>
0

>  <SCORE.INTER.ROT>
0

>  <SCORE.INTER.SOLV>
2.71954

>  <SCORE.INTER.VDW>
-7.17772

>  <SCORE.INTER.norm>
-0.400681

>  <SCORE.INTRA>
0

>  <SCORE.INTRA.DIHEDRAL>
0

>  <SCORE.INTRA.DIHEDRAL.0>
0

>  <SCORE.INTRA.POLAR>
0

>  <SCORE.INTRA.POLAR.0>
0

>  <SCORE.INTRA.REPUL>
0

>  <SCORE.INTRA.REPUL.0>
0

>  <SCORE.INTRA.SOLV>
0

>  <SCORE.INTRA.SOLV.lig_0>
-23.9151

>  <SCORE.INTRA.VDW>
0

>  <SCORE.INTRA.VDW.0>
0

>  <SCORE.INTRA.norm>
0

>  <SCORE.RESTR>
0

>  <SCORE.RESTR.CAVITY>
0

>  <SCORE.RESTR.norm>
0

>  <SCORE.SYSTEM>
0

>  <SCORE.SYSTEM.CONST>
0

>  <SCORE.SYSTEM.DIHEDRAL>
0

>  <SCORE.SYSTEM.SOLV>
0

>  <SCORE.SYSTEM.norm>
0

>  <SCORE.heavy>
10

>  <SCORE.norm>
-0.400681

>  <RMSD>
18.828

$$$$
ligand
 OpenBabel11021811503D
libRbt.so/2013.1/901 2013/11/27
 10 11  0  0  0  0  0  0  0  0999 V2000
    0.9218   -5.4834   14.9330 N   0  0  0  0  0  0  0  0  0  0  0  0
   -0.2867   -5.9854   15.1947 C   0  0  0  0  0  0  0  0  0  0  0  0
   -1.1737   -5.6083   16.1239 N   0  0  0  0  0  0  0  0  0  0  0  0
   -0.6848   -4.5889   16.8558 C   0  0  0  0  0  0  0  0  0  0  0  0
    0.5406   -3.9677   16.7070 C   0  0  0  0  0  0  0  0  0  0  0  0
    1.3803   -4.4514   15.6842 C   0  0  0  0  0  0  0  0  0  0  0  0
    2.5994   -3.9453   15.4376 N   0  0  0  0  0  0  0  0  0  0  0  0
    0.6982   -2.9526   17.6329 N   0  0  0  0  0  0  0  0  0  0  0  0
   -0.4181   -2.9696   18.3122 C   0  0  0  0  0  0  0  0  0  0  0  0
   -1.2946   -3.9387   17.9019 N   0  0  0  0  0  0  0  0  0  0  0  0
  1  2  2  0  0  0  0
  1  6  1  0  0  0  0
  2  3  1  0  0  0  0
  3  4  2  0  0  0  0
  4  5  1  0  0  0  0
  4 10  1  0  0  0  0
  5  6  2  0  0  0  0
  5  8  1  0  0  0  0
  6  7  1  0  0  0  0
  8  9  1  0  0  0  0
  9 10  2  0  0  0  0
M  END
>  <CHROM.1>
0.23761288,-4.38884694,16.47275646,1.00289059,-0.41731564,-2.35105891

>  <Name>
ligand

>  <RI>
0

>  <Rbt.Current_Directory>
/home/itssahil/PROJECTS/Mol_Feturizer/New_Systems/rnas/4LW0

>  <Rbt.Executable>
rbdock ($Id: //depot/dev/client3/rdock/2013.1/src/exe/rbdock.cxx#4 $)

>  <Rbt.Library>
libRbt.so (2013.1, Build901 2013/11/27)

>  <Rbt.Parameter_File>
/export/apps/rDock/src/rDock_2013.1_src/data/scripts/dock_solv.prm

>  <Rbt.Receptor>
prm/blind_docking_20.prm

>  <SCORE>
-4.04247

>  <SCORE.INTER>
-4.04247

>  <SCORE.INTER.CONST>
1

>  <SCORE.INTER.POLAR>
0

>  <SCORE.INTER.ROT>
0

>  <SCORE.INTER.SOLV>
1.8606

>  <SCORE.INTER.VDW>
-6.91518

>  <SCORE.INTER.norm>
-0.404247

>  <SCORE.INTRA>
0

>  <SCORE.INTRA.DIHEDRAL>
0

>  <SCORE.INTRA.DIHEDRAL.0>
0

>  <SCORE.INTRA.POLAR>
0

>  <SCORE.INTRA.POLAR.0>
0

>  <SCORE.INTRA.REPUL>
0

>  <SCORE.INTRA.REPUL.0>
0

>  <SCORE.INTRA.SOLV>
0

>  <SCORE.INTRA.SOLV.lig_0>
-23.9151

>  <SCORE.INTRA.VDW>
0

>  <SCORE.INTRA.VDW.0>
0

>  <SCORE.INTRA.norm>
0

>  <SCORE.RESTR>
0

>  <SCORE.RESTR.CAVITY>
0

>  <SCORE.RESTR.norm>
0

>  <SCORE.SYSTEM>
0

>  <SCORE.SYSTEM.CONST>
0

>  <SCORE.SYSTEM.DIHEDRAL>
0

>  <SCORE.SYSTEM.SOLV>
0

>  <SCORE.SYSTEM.norm>
0

>  <SCORE.heavy>
10

>  <SCORE.norm>
-0.404247

>  <RMSD>
18.831

$$$$
ligand
 OpenBabel11021811503D
libRbt.so/2013.1/901 2013/11/27
 10 11  0  0  0  0  0  0  0  0999 V2000
   -0.8338   -3.5761   17.5053 N   0  0  0  0  0  0  0  0  0  0  0  0
    0.3303   -3.0342   17.8691 C   0  0  0  0  0  0  0  0  0  0  0  0
    1.5601   -3.2864   17.4039 N   0  0  0  0  0  0  0  0  0  0  0  0
    1.5184   -4.2416   16.4554 C   0  0  0  0  0  0  0  0  0  0  0  0
    0.3980   -4.8933   15.9764 C   0  0  0  0  0  0  0  0  0  0  0  0
   -0.8407   -4.5298   16.5411 C   0  0  0  0  0  0  0  0  0  0  0  0
   -2.0046   -5.0903   16.1746 N   0  0  0  0  0  0  0  0  0  0  0  0
    0.7369   -5.8085   14.9966 N   0  0  0  0  0  0  0  0  0  0  0  0
    2.0347   -5.6941   14.8939 C   0  0  0  0  0  0  0  0  0  0  0  0
    2.5731   -4.7723   15.7519 N   0  0  0  0  0  0  0  0  0  0  0  0
  1  2  2  0  0  0  0
  1  6  1  0  0  0  0
  2  3  1  0  0  0  0
  3  4  2  0  0  0  0
  4  5  1  0  0  0  0
  4 10  1  0  0  0  0
  5  6  2  0  0  0  0
  5  8  1  0  0  0  0
  6  7  1  0  0  0  0
  8  9  1  0  0  0  0
  9 10  2  0  0  0  0
M  END
>  <CHROM.1>
0.53643498,-4.49374192,16.35753931,-2.51303245,-0.11429589,-2.35132144

>  <Name>
ligand

>  <RI>
0

>  <Rbt.Current_Directory>
/home/itssahil/PROJECTS/Mol_Feturizer/New_Systems/rnas/4LW0

>  <Rbt.Executable>
rbdock ($Id: //depot/dev/client3/rdock/2013.1/src/exe/rbdock.cxx#4 $)

>  <Rbt.Library>
libRbt.so (2013.1, Build901 2013/11/27)

>  <Rbt.Parameter_File>
/export/apps/rDock/src/rDock_2013.1_src/data/scripts/dock_solv.prm

>  <Rbt.Receptor>
prm/blind_docking_20.prm

>  <SCORE>
-4.03452

>  <SCORE.INTER>
-4.03452

>  <SCORE.INTER.CONST>
1

>  <SCORE.INTER.POLAR>
0

>  <SCORE.INTER.ROT>
0

>  <SCORE.INTER.SOLV>
2.71082

>  <SCORE.INTER.VDW>
-7.19329

>  <SCORE.INTER.norm>
-0.403452

>  <SCORE.INTRA>
0

>  <SCORE.INTRA.DIHEDRAL>
0

>  <SCORE.INTRA.DIHEDRAL.0>
0

>  <SCORE.INTRA.POLAR>
0

>  <SCORE.INTRA.POLAR.0>
0

>  <SCORE.INTRA.REPUL>
0

>  <SCORE.INTRA.REPUL.0>
0

>  <SCORE.INTRA.SOLV>
0

>  <SCORE.INTRA.SOLV.lig_0>
-23.9151

>  <SCORE.INTRA.VDW>
0

>  <SCORE.INTRA.VDW.0>
0

>  <SCORE.INTRA.norm>
0

>  <SCORE.RESTR>
0

>  <SCORE.RESTR.CAVITY>
0

>  <SCORE.RESTR.norm>
0

>  <SCORE.SYSTEM>
0

>  <SCORE.SYSTEM.CONST>
0

>  <SCORE.SYSTEM.DIHEDRAL>
0

>  <SCORE.SYSTEM.SOLV>
0

>  <SCORE.SYSTEM.norm>
0

>  <SCORE.heavy>
10

>  <SCORE.norm>
-0.403452

>  <RMSD>
18.834

$$$$
ligand
 OpenBabel11021811503D
libRbt.so/2013.1/901 2013/11/27
 10 11  0  0  0  0  0  0  0  0999 V2000
   -0.8154   -3.5360   17.4729 N   0  0  0  0  0  0  0  0  0  0  0  0
    0.3563   -3.0236   17.8544 C   0  0  0  0  0  0  0  0  0  0  0  0
    1.5864   -3.3077   17.4088 N   0  0  0  0  0  0  0  0  0  0  0  0
    1.5351   -4.2629   16.4608 C   0  0  0  0  0  0  0  0  0  0  0  0
    0.4060   -4.8864   15.9648 C   0  0  0  0  0  0  0  0  0  0  0  0
   -0.8317   -4.4906   16.5097 C   0  0  0  0  0  0  0  0  0  0  0  0
   -2.0036   -5.0217   16.1256 N   0  0  0  0  0  0  0  0  0  0  0  0
    0.7367   -5.8114   14.9914 N   0  0  0  0  0  0  0  0  0  0  0  0
    2.0384   -5.7303   14.9089 C   0  0  0  0  0  0  0  0  0  0  0  0
    2.5868   -4.8214   15.7743 N   0  0  0  0  0  0  0  0  0  0  0  0
  1  2  2  0  0  0  0
  1  6  1  0  0  0  0
  2  3  1  0  0  0  0
  3  4  2  0  0  0  0
  4  5  1  0  0  0  0
  4 10  1  0  0  0  0
  5  6  2  0  0  0  0
  5  8  1  0  0  0  0
  6  7  1  0  0  0  0
  8  9  1  0  0  0  0
  9 10  2  0  0  0  0
M  END
>  <CHROM.1>
0.54866072,-4.48998879,16.34772216,-2.50613472,-0.08512399,-2.35184618

>  <Name>
ligand

>  <RI>
0

>  <Rbt.Current_Directory>
/home/itssahil/PROJECTS/Mol_Feturizer/New_Systems/rnas/4LW0

>  <Rbt.Executable>
rbdock ($Id: //depot/dev/client3/rdock/2013.1/src/exe/rbdock.cxx#4 $)

>  <Rbt.Library>
libRbt.so (2013.1, Build901 2013/11/27)

>  <Rbt.Parameter_File>
/export/apps/rDock/src/rDock_2013.1_src/data/scripts/dock_solv.prm

>  <Rbt.Receptor>
prm/blind_docking_20.prm

>  <SCORE>
-4.02439

>  <SCORE.INTER>
-4.02439

>  <SCORE.INTER.CONST>
1

>  <SCORE.INTER.POLAR>
0

>  <SCORE.INTER.ROT>
0

>  <SCORE.INTER.SOLV>
2.75188

>  <SCORE.INTER.VDW>
-7.20022

>  <SCORE.INTER.norm>
-0.402439

>  <SCORE.INTRA>
0

>  <SCORE.INTRA.DIHEDRAL>
0

>  <SCORE.INTRA.DIHEDRAL.0>
0

>  <SCORE.INTRA.POLAR>
0

>  <SCORE.INTRA.POLAR.0>
0

>  <SCORE.INTRA.REPUL>
0

>  <SCORE.INTRA.REPUL.0>
0

>  <SCORE.INTRA.SOLV>
0

>  <SCORE.INTRA.SOLV.lig_0>
-23.9151

>  <SCORE.INTRA.VDW>
0

>  <SCORE.INTRA.VDW.0>
0

>  <SCORE.INTRA.norm>
0

>  <SCORE.RESTR>
0

>  <SCORE.RESTR.CAVITY>
0

>  <SCORE.RESTR.norm>
0

>  <SCORE.SYSTEM>
0

>  <SCORE.SYSTEM.CONST>
0

>  <SCORE.SYSTEM.DIHEDRAL>
0

>  <SCORE.SYSTEM.SOLV>
0

>  <SCORE.SYSTEM.norm>
0

>  <SCORE.heavy>
10

>  <SCORE.norm>
-0.402439

>  <RMSD>
18.839

$$$$
ligand
 OpenBabel11021811503D
libRbt.so/2013.1/901 2013/11/27
 10 11  0  0  0  0  0  0  0  0999 V2000
   -0.8543   -3.5447   17.4863 N   0  0  0  0  0  0  0  0  0  0  0  0
    0.3158   -3.0231   17.8604 C   0  0  0  0  0  0  0  0  0  0  0  0
    1.5451   -3.2968   17.4063 N   0  0  0  0  0  0  0  0  0  0  0  0
    1.4953   -4.2514   16.4576 C   0  0  0  0  0  0  0  0  0  0  0  0
    0.3679   -4.8836   15.9686 C   0  0  0  0  0  0  0  0  0  0  0  0
   -0.8693   -4.4984   16.5221 C   0  0  0  0  0  0  0  0  0  0  0  0
   -2.0394   -5.0386   16.1453 N   0  0  0  0  0  0  0  0  0  0  0  0
    0.6996   -5.8048   14.9920 N   0  0  0  0  0  0  0  0  0  0  0  0
    2.0000   -5.7130   14.9008 C   0  0  0  0  0  0  0  0  0  0  0  0
    2.5468   -4.8006   15.7635 N   0  0  0  0  0  0  0  0  0  0  0  0
  1  2  2  0  0  0  0
  1  6  1  0  0  0  0
  2  3  1  0  0  0  0
  3  4  2  0  0  0  0
  4  5  1  0  0  0  0
  4 10  1  0  0  0  0
  5  6  2  0  0  0  0
  5  8  1  0  0  0  0
  6  7  1  0  0  0  0
  8  9  1  0  0  0  0
  9 10  2  0  0  0  0
M  END
>  <CHROM.1>
0.50992028,-4.48638329,16.35093565,-2.50709268,-0.09563307,-2.35086744

>  <Name>
ligand

>  <RI>
0

>  <Rbt.Current_Directory>
/home/itssahil/PROJECTS/Mol_Feturizer/New_Systems/rnas/4LW0

>  <Rbt.Executable>
rbdock ($Id: //depot/dev/client3/rdock/2013.1/src/exe/rbdock.cxx#4 $)

>  <Rbt.Library>
libRbt.so (2013.1, Build901 2013/11/27)

>  <Rbt.Parameter_File>
/export/apps/rDock/src/rDock_2013.1_src/data/scripts/dock_solv.prm

>  <Rbt.Receptor>
prm/blind_docking_20.prm

>  <SCORE>
-4.05566

>  <SCORE.INTER>
-4.05566

>  <SCORE.INTER.CONST>
1

>  <SCORE.INTER.POLAR>
0

>  <SCORE.INTER.ROT>
0

>  <SCORE.INTER.SOLV>
2.72574

>  <SCORE.INTER.VDW>
-7.21235

>  <SCORE.INTER.norm>
-0.405566

>  <SCORE.INTRA>
0

>  <SCORE.INTRA.DIHEDRAL>
0

>  <SCORE.INTRA.DIHEDRAL.0>
0

>  <SCORE.INTRA.POLAR>
0

>  <SCORE.INTRA.POLAR.0>
0

>  <SCORE.INTRA.REPUL>
0

>  <SCORE.INTRA.REPUL.0>
0

>  <SCORE.INTRA.SOLV>
0

>  <SCORE.INTRA.SOLV.lig_0>
-23.9151

>  <SCORE.INTRA.VDW>
0

>  <SCORE.INTRA.VDW.0>
0

>  <SCORE.INTRA.norm>
0

>  <SCORE.RESTR>
0

>  <SCORE.RESTR.CAVITY>
0

>  <SCORE.RESTR.norm>
0

>  <SCORE.SYSTEM>
0

>  <SCORE.SYSTEM.CONST>
0

>  <SCORE.SYSTEM.DIHEDRAL>
0

>  <SCORE.SYSTEM.SOLV>
0

>  <SCORE.SYSTEM.norm>
0

>  <SCORE.heavy>
10

>  <SCORE.norm>
-0.405566

>  <RMSD>
18.844

$$$$
ligand
 OpenBabel11021811503D
libRbt.so/2013.1/901 2013/11/27
 10 11  0  0  0  0  0  0  0  0999 V2000
   -1.0323   -3.6714   17.2324 N   0  0  0  0  0  0  0  0  0  0  0  0
    0.0715   -3.1183   17.7389 C   0  0  0  0  0  0  0  0  0  0  0  0
    1.3516   -3.3445   17.4187 N   0  0  0  0  0  0  0  0  0  0  0  0
    1.4381   -4.2845   16.4582 C   0  0  0  0  0  0  0  0  0  0  0  0
    0.3929   -4.9449   15.8407 C   0  0  0  0  0  0  0  0  0  0  0  0
   -0.9096   -4.6092   16.2603 C   0  0  0  0  0  0  0  0  0  0  0  0
   -2.0126   -5.1809   15.7508 N   0  0  0  0  0  0  0  0  0  0  0  0
    0.8603   -5.8387   14.8947 N   0  0  0  0  0  0  0  0  0  0  0  0
    2.1590   -5.7034   14.9476 C   0  0  0  0  0  0  0  0  0  0  0  0
    2.5771   -4.7878   15.8765 N   0  0  0  0  0  0  0  0  0  0  0  0
  1  2  2  0  0  0  0
  1  6  1  0  0  0  0
  2  3  1  0  0  0  0
  3  4  2  0  0  0  0
  4  5  1  0  0  0  0
  4 10  1  0  0  0  0
  5  6  2  0  0  0  0
  5  8  1  0  0  0  0
  6  7  1  0  0  0  0
  8  9  1  0  0  0  0
  9 10  2  0  0  0  0
M  END
>  <CHROM.1>
0.47879648,-4.54960485,16.24132847,-2.60881180,-0.04266715,-2.34333822

>  <Name>
ligand

>  <RI>
0

>  <Rbt.Current_Directory>
/home/itssahil/PROJECTS/Mol_Feturizer/New_Systems/rnas/4LW0

>  <Rbt.Executable>
rbdock ($Id: //depot/dev/client3/rdock/2013.1/src/exe/rbdock.cxx#4 $)

>  <Rbt.Library>
libRbt.so (2013.1, Build901 2013/11/27)

>  <Rbt.Parameter_File>
/export/apps/rDock/src/rDock_2013.1_src/data/scripts/dock_solv.prm

>  <Rbt.Receptor>
prm/blind_docking_20.prm

>  <SCORE>
-4.0495

>  <SCORE.INTER>
-4.0495

>  <SCORE.INTER.CONST>
1

>  <SCORE.INTER.POLAR>
0

>  <SCORE.INTER.ROT>
0

>  <SCORE.INTER.SOLV>
2.54447

>  <SCORE.INTER.VDW>
-7.14783

>  <SCORE.INTER.norm>
-0.40495

>  <SCORE.INTRA>
0

>  <SCORE.INTRA.DIHEDRAL>
0

>  <SCORE.INTRA.DIHEDRAL.0>
0

>  <SCORE.INTRA.POLAR>
0

>  <SCORE.INTRA.POLAR.0>
0

>  <SCORE.INTRA.REPUL>
0

>  <SCORE.INTRA.REPUL.0>
0

>  <SCORE.INTRA.SOLV>
0

>  <SCORE.INTRA.SOLV.lig_0>
-23.9151

>  <SCORE.INTRA.VDW>
0

>  <SCORE.INTRA.VDW.0>
0

>  <SCORE.INTRA.norm>
0

>  <SCORE.RESTR>
0

>  <SCORE.RESTR.CAVITY>
0

>  <SCORE.RESTR.norm>
0

>  <SCORE.SYSTEM>
0

>  <SCORE.SYSTEM.CONST>
0

>  <SCORE.SYSTEM.DIHEDRAL>
0

>  <SCORE.SYSTEM.SOLV>
0

>  <SCORE.SYSTEM.norm>
0

>  <SCORE.heavy>
10

>  <SCORE.norm>
-0.40495

>  <RMSD>
18.847

$$$$
ligand
 OpenBabel11021811503D
libRbt.so/2013.1/901 2013/11/27
 10 11  0  0  0  0  0  0  0  0999 V2000
   -0.8591   -3.5437   17.4827 N   0  0  0  0  0  0  0  0  0  0  0  0
    0.3106   -3.0228   17.8589 C   0  0  0  0  0  0  0  0  0  0  0  0
    1.5405   -3.2964   17.4062 N   0  0  0  0  0  0  0  0  0  0  0  0
    1.4917   -4.2500   16.4566 C   0  0  0  0  0  0  0  0  0  0  0  0
    0.3649   -4.8814   15.9654 C   0  0  0  0  0  0  0  0  0  0  0  0
   -0.8730   -4.4964   16.5176 C   0  0  0  0  0  0  0  0  0  0  0  0
   -2.0427   -5.0360   16.1386 N   0  0  0  0  0  0  0  0  0  0  0  0
    0.6977   -5.8017   14.9883 N   0  0  0  0  0  0  0  0  0  0  0  0
    1.9983   -5.7102   14.8991 C   0  0  0  0  0  0  0  0  0  0  0  0
    2.5441   -4.7987   15.7634 N   0  0  0  0  0  0  0  0  0  0  0  0
  1  2  2  0  0  0  0
  1  6  1  0  0  0  0
  2  3  1  0  0  0  0
  3  4  2  0  0  0  0
  4  5  1  0  0  0  0
  4 10  1  0  0  0  0
  5  6  2  0  0  0  0
  5  8  1  0  0  0  0
  6  7  1  0  0  0  0
  8  9  1  0  0  0  0
  9 10  2  0  0  0  0
M  END
>  <CHROM.1>
0.50647119,-4.48462452,16.34830555,-2.50790905,-0.09447443,-2.34996849

>  <Name>
ligand

>  <RI>
0

>  <Rbt.Current_Directory>
/home/itssahil/PROJECTS/Mol_Feturizer/New_Systems/rnas/4LW0

>  <Rbt.Executable>
rbdock ($Id: //depot/dev/client3/rdock/2013.1/src/exe/rbdock.cxx#4 $)

>  <Rbt.Library>
libRbt.so (2013.1, Build901 2013/11/27)

>  <Rbt.Parameter_File>
/export/apps/rDock/src/rDock_2013.1_src/data/scripts/dock_solv.prm

>  <Rbt.Receptor>
prm/blind_docking_20.prm

>  <SCORE>
-4.0549

>  <SCORE.INTER>
-4.0549

>  <SCORE.INTER.CONST>
1

>  <SCORE.INTER.POLAR>
0

>  <SCORE.INTER.ROT>
0

>  <SCORE.INTER.SOLV>
2.72063

>  <SCORE.INTER.VDW>
-7.21015

>  <SCORE.INTER.norm>
-0.40549

>  <SCORE.INTRA>
0

>  <SCORE.INTRA.DIHEDRAL>
0

>  <SCORE.INTRA.DIHEDRAL.0>
0

>  <SCORE.INTRA.POLAR>
0

>  <SCORE.INTRA.POLAR.0>
0

>  <SCORE.INTRA.REPUL>
0

>  <SCORE.INTRA.REPUL.0>
0

>  <SCORE.INTRA.SOLV>
0

>  <SCORE.INTRA.SOLV.lig_0>
-23.9151

>  <SCORE.INTRA.VDW>
0

>  <SCORE.INTRA.VDW.0>
0

>  <SCORE.INTRA.norm>
0

>  <SCORE.RESTR>
0

>  <SCORE.RESTR.CAVITY>
0

>  <SCORE.RESTR.norm>
0

>  <SCORE.SYSTEM>
0

>  <SCORE.SYSTEM.CONST>
0

>  <SCORE.SYSTEM.DIHEDRAL>
0

>  <SCORE.SYSTEM.SOLV>
0

>  <SCORE.SYSTEM.norm>
0

>  <SCORE.heavy>
10

>  <SCORE.norm>
-0.40549

>  <RMSD>
18.847

$$$$
ligand
 OpenBabel11021811503D
libRbt.so/2013.1/901 2013/11/27
 10 11  0  0  0  0  0  0  0  0999 V2000
   -0.8515   -3.5458   17.4688 N   0  0  0  0  0  0  0  0  0  0  0  0
    0.3151   -3.0238   17.8531 C   0  0  0  0  0  0  0  0  0  0  0  0
    1.5483   -3.2965   17.4090 N   0  0  0  0  0  0  0  0  0  0  0  0
    1.5070   -4.2505   16.4594 C   0  0  0  0  0  0  0  0  0  0  0  0
    0.3841   -4.8830   15.9606 C   0  0  0  0  0  0  0  0  0  0  0  0
   -0.8579   -4.4989   16.5040 C   0  0  0  0  0  0  0  0  0  0  0  0
   -2.0245   -5.0395   16.1171 N   0  0  0  0  0  0  0  0  0  0  0  0
    0.7245   -5.8035   14.9863 N   0  0  0  0  0  0  0  0  0  0  0  0
    2.0256   -5.7110   14.9060 C   0  0  0  0  0  0  0  0  0  0  0  0
    2.5646   -4.7987   15.7738 N   0  0  0  0  0  0  0  0  0  0  0  0
  1  2  2  0  0  0  0
  1  6  1  0  0  0  0
  2  3  1  0  0  0  0
  3  4  2  0  0  0  0
  4  5  1  0  0  0  0
  4 10  1  0  0  0  0
  5  6  2  0  0  0  0
  5  8  1  0  0  0  0
  6  7  1  0  0  0  0
  8  9  1  0  0  0  0
  9 10  2  0  0  0  0
M  END
>  <CHROM.1>
0.52270647,-4.48601665,16.34437909,-2.51346265,-0.09015436,-2.35086756

>  <Name>
ligand

>  <RI>
0

>  <Rbt.Current_Directory>
/home/itssahil/PROJECTS/Mol_Feturizer/New_Systems/rnas/4LW0

>  <Rbt.Executable>
rbdock ($Id: //depot/dev/client3/rdock/2013.1/src/exe/rbdock.cxx#4 $)

>  <Rbt.Library>
libRbt.so (2013.1, Build901 2013/11/27)

>  <Rbt.Parameter_File>
/export/apps/rDock/src/rDock_2013.1_src/data/scripts/dock_solv.prm

>  <Rbt.Receptor>
prm/blind_docking_20.prm

>  <SCORE>
-4.05706

>  <SCORE.INTER>
-4.05706

>  <SCORE.INTER.CONST>
1

>  <SCORE.INTER.POLAR>
0

>  <SCORE.INTER.ROT>
0

>  <SCORE.INTER.SOLV>
2.72142

>  <SCORE.INTER.VDW>
-7.21185

>  <SCORE.INTER.norm>
-0.405706

>  <SCORE.INTRA>
0

>  <SCORE.INTRA.DIHEDRAL>
0

>  <SCORE.INTRA.DIHEDRAL.0>
0

>  <SCORE.INTRA.POLAR>
0

>  <SCORE.INTRA.POLAR.0>
0

>  <SCORE.INTRA.REPUL>
0

>  <SCORE.INTRA.REPUL.0>
0

>  <SCORE.INTRA.SOLV>
0

>  <SCORE.INTRA.SOLV.lig_0>
-23.9151

>  <SCORE.INTRA.VDW>
0

>  <SCORE.INTRA.VDW.0>
0

>  <SCORE.INTRA.norm>
0

>  <SCORE.RESTR>
0

>  <SCORE.RESTR.CAVITY>
0

>  <SCORE.RESTR.norm>
0

>  <SCORE.SYSTEM>
0

>  <SCORE.SYSTEM.CONST>
0

>  <SCORE.SYSTEM.DIHEDRAL>
0

>  <SCORE.SYSTEM.SOLV>
0

>  <SCORE.SYSTEM.norm>
0

>  <SCORE.heavy>
10

>  <SCORE.norm>
-0.405706

>  <RMSD>
18.847

$$$$
ligand
 OpenBabel11021811503D
libRbt.so/2013.1/901 2013/11/27
 10 11  0  0  0  0  0  0  0  0999 V2000
   -0.9654   -3.6059   17.2564 N   0  0  0  0  0  0  0  0  0  0  0  0
    0.1563   -3.0612   17.7318 C   0  0  0  0  0  0  0  0  0  0  0  0
    1.4266   -3.3168   17.3952 N   0  0  0  0  0  0  0  0  0  0  0  0
    1.4804   -4.2792   16.4547 C   0  0  0  0  0  0  0  0  0  0  0  0
    0.4136   -4.9347   15.8698 C   0  0  0  0  0  0  0  0  0  0  0  0
   -0.8756   -4.5670   16.3037 C   0  0  0  0  0  0  0  0  0  0  0  0
   -1.9968   -5.1303   15.8257 N   0  0  0  0  0  0  0  0  0  0  0  0
    0.8492   -5.8573   14.9363 N   0  0  0  0  0  0  0  0  0  0  0  0
    2.1508   -5.7436   14.9643 C   0  0  0  0  0  0  0  0  0  0  0  0
    2.6004   -4.8152   15.8654 N   0  0  0  0  0  0  0  0  0  0  0  0
  1  2  2  0  0  0  0
  1  6  1  0  0  0  0
  2  3  1  0  0  0  0
  3  4  2  0  0  0  0
  4  5  1  0  0  0  0
  4 10  1  0  0  0  0
  5  6  2  0  0  0  0
  5  8  1  0  0  0  0
  6  7  1  0  0  0  0
  8  9  1  0  0  0  0
  9 10  2  0  0  0  0
M  END
>  <CHROM.1>
0.51312131,-4.53219758,16.25997547,-2.58447682,-0.04236223,-2.36454667

>  <Name>
ligand

>  <RI>
0

>  <Rbt.Current_Directory>
/home/itssahil/PROJECTS/Mol_Feturizer/New_Systems/rnas/4LW0

>  <Rbt.Executable>
rbdock ($Id: //depot/dev/client3/rdock/2013.1/src/exe/rbdock.cxx#4 $)

>  <Rbt.Library>
libRbt.so (2013.1, Build901 2013/11/27)

>  <Rbt.Parameter_File>
/export/apps/rDock/src/rDock_2013.1_src/data/scripts/dock_solv.prm

>  <Rbt.Receptor>
prm/blind_docking_20.prm

>  <SCORE>
-3.99391

>  <SCORE.INTER>
-3.99391

>  <SCORE.INTER.CONST>
1

>  <SCORE.INTER.POLAR>
0

>  <SCORE.INTER.ROT>
0

>  <SCORE.INTER.SOLV>
2.64976

>  <SCORE.INTER.VDW>
-7.14586

>  <SCORE.INTER.norm>
-0.399391

>  <SCORE.INTRA>
0

>  <SCORE.INTRA.DIHEDRAL>
0

>  <SCORE.INTRA.DIHEDRAL.0>
0

>  <SCORE.INTRA.POLAR>
0

>  <SCORE.INTRA.POLAR.0>
0

>  <SCORE.INTRA.REPUL>
0

>  <SCORE.INTRA.REPUL.0>
0

>  <SCORE.INTRA.SOLV>
0

>  <SCORE.INTRA.SOLV.lig_0>
-23.9151

>  <SCORE.INTRA.VDW>
0

>  <SCORE.INTRA.VDW.0>
0

>  <SCORE.INTRA.norm>
0

>  <SCORE.RESTR>
0

>  <SCORE.RESTR.CAVITY>
0

>  <SCORE.RESTR.norm>
0

>  <SCORE.SYSTEM>
0

>  <SCORE.SYSTEM.CONST>
0

>  <SCORE.SYSTEM.DIHEDRAL>
0

>  <SCORE.SYSTEM.SOLV>
0

>  <SCORE.SYSTEM.norm>
0

>  <SCORE.heavy>
10

>  <SCORE.norm>
-0.399391

>  <RMSD>
18.849

$$$$
ligand
 OpenBabel11021811503D
libRbt.so/2013.1/901 2013/11/27
 10 11  0  0  0  0  0  0  0  0999 V2000
   -0.8424   -3.5463   17.4714 N   0  0  0  0  0  0  0  0  0  0  0  0
    0.3234   -3.0191   17.8507 C   0  0  0  0  0  0  0  0  0  0  0  0
    1.5561   -3.2876   17.4027 N   0  0  0  0  0  0  0  0  0  0  0  0
    1.5152   -4.2432   16.4547 C   0  0  0  0  0  0  0  0  0  0  0  0
    0.3931   -4.8810   15.9609 C   0  0  0  0  0  0  0  0  0  0  0  0
   -0.8484   -4.5009   16.5081 C   0  0  0  0  0  0  0  0  0  0  0  0
   -2.0142   -5.0468   16.1262 N   0  0  0  0  0  0  0  0  0  0  0  0
    0.7337   -5.8015   14.9867 N   0  0  0  0  0  0  0  0  0  0  0  0
    2.0341   -5.7040   14.9018 C   0  0  0  0  0  0  0  0  0  0  0  0
    2.5726   -4.7883   15.7663 N   0  0  0  0  0  0  0  0  0  0  0  0
  1  2  2  0  0  0  0
  1  6  1  0  0  0  0
  2  3  1  0  0  0  0
  3  4  2  0  0  0  0
  4  5  1  0  0  0  0
  4 10  1  0  0  0  0
  5  6  2  0  0  0  0
  5  8  1  0  0  0  0
  6  7  1  0  0  0  0
  8  9  1  0  0  0  0
  9 10  2  0  0  0  0
M  END
>  <CHROM.1>
0.53149890,-4.48279565,16.34355114,-2.51375055,-0.09546263,-2.35243286

>  <Name>
ligand

>  <RI>
0

>  <Rbt.Current_Directory>
/home/itssahil/PROJECTS/Mol_Feturizer/New_Systems/rnas/4LW0

>  <Rbt.Executable>
rbdock ($Id: //depot/dev/client3/rdock/2013.1/src/exe/rbdock.cxx#4 $)

>  <Rbt.Library>
libRbt.so (2013.1, Build901 2013/11/27)

>  <Rbt.Parameter_File>
/export/apps/rDock/src/rDock_2013.1_src/data/scripts/dock_solv.prm

>  <Rbt.Receptor>
prm/blind_docking_20.prm

>  <SCORE>
-4.05525

>  <SCORE.INTER>
-4.05525

>  <SCORE.INTER.CONST>
1

>  <SCORE.INTER.POLAR>
0

>  <SCORE.INTER.ROT>
0

>  <SCORE.INTER.SOLV>
2.72102

>  <SCORE.INTER.VDW>
-7.21051

>  <SCORE.INTER.norm>
-0.405525

>  <SCORE.INTRA>
0

>  <SCORE.INTRA.DIHEDRAL>
0

>  <SCORE.INTRA.DIHEDRAL.0>
0

>  <SCORE.INTRA.POLAR>
0

>  <SCORE.INTRA.POLAR.0>
0

>  <SCORE.INTRA.REPUL>
0

>  <SCORE.INTRA.REPUL.0>
0

>  <SCORE.INTRA.SOLV>
0

>  <SCORE.INTRA.SOLV.lig_0>
-23.9151

>  <SCORE.INTRA.VDW>
0

>  <SCORE.INTRA.VDW.0>
0

>  <SCORE.INTRA.norm>
0

>  <SCORE.RESTR>
0

>  <SCORE.RESTR.CAVITY>
0

>  <SCORE.RESTR.norm>
0

>  <SCORE.SYSTEM>
0

>  <SCORE.SYSTEM.CONST>
0

>  <SCORE.SYSTEM.DIHEDRAL>
0

>  <SCORE.SYSTEM.SOLV>
0

>  <SCORE.SYSTEM.norm>
0

>  <SCORE.heavy>
10

>  <SCORE.norm>
-0.405525

>  <RMSD>
18.849

$$$$
ligand
 OpenBabel11021811503D
libRbt.so/2013.1/901 2013/11/27
 10 11  0  0  0  0  0  0  0  0999 V2000
   -0.8471   -3.5491   17.4675 N   0  0  0  0  0  0  0  0  0  0  0  0
    0.3196   -3.0231   17.8459 C   0  0  0  0  0  0  0  0  0  0  0  0
    1.5516   -3.2919   17.3961 N   0  0  0  0  0  0  0  0  0  0  0  0
    1.5089   -4.2465   16.4471 C   0  0  0  0  0  0  0  0  0  0  0  0
    0.3857   -4.8830   15.9540 C   0  0  0  0  0  0  0  0  0  0  0  0
   -0.8549   -4.5027   16.5032 C   0  0  0  0  0  0  0  0  0  0  0  0
   -2.0216   -5.0473   16.1221 N   0  0  0  0  0  0  0  0  0  0  0  0
    0.7244   -5.8027   14.9784 N   0  0  0  0  0  0  0  0  0  0  0  0
    2.0248   -5.7060   14.8919 C   0  0  0  0  0  0  0  0  0  0  0  0
    2.5650   -4.7915   15.7567 N   0  0  0  0  0  0  0  0  0  0  0  0
  1  2  2  0  0  0  0
  1  6  1  0  0  0  0
  2  3  1  0  0  0  0
  3  4  2  0  0  0  0
  4  5  1  0  0  0  0
  4 10  1  0  0  0  0
  5  6  2  0  0  0  0
  5  8  1  0  0  0  0
  6  7  1  0  0  0  0
  8  9  1  0  0  0  0
  9 10  2  0  0  0  0
M  END
>  <CHROM.1>
0.52480962,-4.48530918,16.33690195,-2.51236714,-0.09587747,-2.35121709

>  <Name>
ligand

>  <RI>
0

>  <Rbt.Current_Directory>
/home/itssahil/PROJECTS/Mol_Feturizer/New_Systems/rnas/4LW0

>  <Rbt.Executable>
rbdock ($Id: //depot/dev/client3/rdock/2013.1/src/exe/rbdock.cxx#4 $)

>  <Rbt.Library>
libRbt.so (2013.1, Build901 2013/11/27)

>  <Rbt.Parameter_File>
/export/apps/rDock/src/rDock_2013.1_src/data/scripts/dock_solv.prm

>  <Rbt.Receptor>
prm/blind_docking_20.prm

>  <SCORE>
-4.05492

>  <SCORE.INTER>
-4.05492

>  <SCORE.INTER.CONST>
1

>  <SCORE.INTER.POLAR>
0

>  <SCORE.INTER.ROT>
0

>  <SCORE.INTER.SOLV>
2.71886

>  <SCORE.INTER.VDW>
-7.20957

>  <SCORE.INTER.norm>
-0.405492

>  <SCORE.INTRA>
0

>  <SCORE.INTRA.DIHEDRAL>
0

>  <SCORE.INTRA.DIHEDRAL.0>
0

>  <SCORE.INTRA.POLAR>
0

>  <SCORE.INTRA.POLAR.0>
0

>  <SCORE.INTRA.REPUL>
0

>  <SCORE.INTRA.REPUL.0>
0

>  <SCORE.INTRA.SOLV>
0

>  <SCORE.INTRA.SOLV.lig_0>
-23.9151

>  <SCORE.INTRA.VDW>
0

>  <SCORE.INTRA.VDW.0>
0

>  <SCORE.INTRA.norm>
0

>  <SCORE.RESTR>
0

>  <SCORE.RESTR.CAVITY>
0

>  <SCORE.RESTR.norm>
0

>  <SCORE.SYSTEM>
0

>  <SCORE.SYSTEM.CONST>
0

>  <SCORE.SYSTEM.DIHEDRAL>
0

>  <SCORE.SYSTEM.SOLV>
0

>  <SCORE.SYSTEM.norm>
0

>  <SCORE.heavy>
10

>  <SCORE.norm>
-0.405492

>  <RMSD>
18.851

$$$$
ligand
 OpenBabel11021811503D
libRbt.so/2013.1/901 2013/11/27
 10 11  0  0  0  0  0  0  0  0999 V2000
   -0.8487   -3.5503   17.4677 N   0  0  0  0  0  0  0  0  0  0  0  0
    0.3173   -3.0257   17.8501 C   0  0  0  0  0  0  0  0  0  0  0  0
    1.5501   -3.2931   17.4017 N   0  0  0  0  0  0  0  0  0  0  0  0
    1.5090   -4.2445   16.4494 C   0  0  0  0  0  0  0  0  0  0  0  0
    0.3868   -4.8792   15.9520 C   0  0  0  0  0  0  0  0  0  0  0  0
   -0.8549   -4.5006   16.5002 C   0  0  0  0  0  0  0  0  0  0  0  0
   -2.0209   -5.0439   16.1151 N   0  0  0  0  0  0  0  0  0  0  0  0
    0.7272   -5.7957   14.9740 N   0  0  0  0  0  0  0  0  0  0  0  0
    2.0278   -5.6987   14.8903 C   0  0  0  0  0  0  0  0  0  0  0  0
    2.5664   -4.7873   15.7592 N   0  0  0  0  0  0  0  0  0  0  0  0
  1  2  2  0  0  0  0
  1  6  1  0  0  0  0
  2  3  1  0  0  0  0
  3  4  2  0  0  0  0
  4  5  1  0  0  0  0
  4 10  1  0  0  0  0
  5  6  2  0  0  0  0
  5  8  1  0  0  0  0
  6  7  1  0  0  0  0
  8  9  1  0  0  0  0
  9 10  2  0  0  0  0
M  END
>  <CHROM.1>
0.52518357,-4.48282711,16.33654533,-2.51364603,-0.09447915,-2.34795498

>  <Name>
ligand

>  <RI>
0

>  <Rbt.Current_Directory>
/home/itssahil/PROJECTS/Mol_Feturizer/New_Systems/rnas/4LW0

>  <Rbt.Executable>
rbdock ($Id: //depot/dev/client3/rdock/2013.1/src/exe/rbdock.cxx#4 $)

>  <Rbt.Library>
libRbt.so (2013.1, Build901 2013/11/27)

>  <Rbt.Parameter_File>
/export/apps/rDock/src/rDock_2013.1_src/data/scripts/dock_solv.prm

>  <Rbt.Receptor>
prm/blind_docking_20.prm

>  <SCORE>
-4.05609

>  <SCORE.INTER>
-4.05609

>  <SCORE.INTER.CONST>
1

>  <SCORE.INTER.POLAR>
0

>  <SCORE.INTER.ROT>
0

>  <SCORE.INTER.SOLV>
2.70774

>  <SCORE.INTER.VDW>
-7.20664

>  <SCORE.INTER.norm>
-0.405609

>  <SCORE.INTRA>
0

>  <SCORE.INTRA.DIHEDRAL>
0

>  <SCORE.INTRA.DIHEDRAL.0>
0

>  <SCORE.INTRA.POLAR>
0

>  <SCORE.INTRA.POLAR.0>
0

>  <SCORE.INTRA.REPUL>
0

>  <SCORE.INTRA.REPUL.0>
0

>  <SCORE.INTRA.SOLV>
0

>  <SCORE.INTRA.SOLV.lig_0>
-23.9151

>  <SCORE.INTRA.VDW>
0

>  <SCORE.INTRA.VDW.0>
0

>  <SCORE.INTRA.norm>
0

>  <SCORE.RESTR>
0

>  <SCORE.RESTR.CAVITY>
0

>  <SCORE.RESTR.norm>
0

>  <SCORE.SYSTEM>
0

>  <SCORE.SYSTEM.CONST>
0

>  <SCORE.SYSTEM.DIHEDRAL>
0

>  <SCORE.SYSTEM.SOLV>
0

>  <SCORE.SYSTEM.norm>
0

>  <SCORE.heavy>
10

>  <SCORE.norm>
-0.405609

>  <RMSD>
18.853

$$$$
ligand
 OpenBabel11021811503D
libRbt.so/2013.1/901 2013/11/27
 10 11  0  0  0  0  0  0  0  0999 V2000
   -0.7477   -3.4469   17.6742 N   0  0  0  0  0  0  0  0  0  0  0  0
    0.4509   -2.9332   17.9577 C   0  0  0  0  0  0  0  0  0  0  0  0
    1.6420   -3.2245   17.4202 N   0  0  0  0  0  0  0  0  0  0  0  0
    1.5155   -4.1891   16.4889 C   0  0  0  0  0  0  0  0  0  0  0  0
    0.3502   -4.8151   16.0892 C   0  0  0  0  0  0  0  0  0  0  0  0
   -0.8406   -4.4111   16.7250 C   0  0  0  0  0  0  0  0  0  0  0  0
   -2.0397   -4.9435   16.4391 N   0  0  0  0  0  0  0  0  0  0  0  0
    0.6025   -5.7505   15.1024 N   0  0  0  0  0  0  0  0  0  0  0  0
    1.8939   -5.6732   14.9176 C   0  0  0  0  0  0  0  0  0  0  0  0
    2.5095   -4.7567   15.7281 N   0  0  0  0  0  0  0  0  0  0  0  0
  1  2  2  0  0  0  0
  1  6  1  0  0  0  0
  2  3  1  0  0  0  0
  3  4  2  0  0  0  0
  4  5  1  0  0  0  0
  4 10  1  0  0  0  0
  5  6  2  0  0  0  0
  5  8  1  0  0  0  0
  6  7  1  0  0  0  0
  8  9  1  0  0  0  0
  9 10  2  0  0  0  0
M  END
>  <CHROM.1>
0.52286655,-4.41516182,16.45566179,-2.44905384,-0.13907060,-2.35561902

>  <Name>
ligand

>  <RI>
0

>  <Rbt.Current_Directory>
/home/itssahil/PROJECTS/Mol_Feturizer/New_Systems/rnas/4LW0

>  <Rbt.Executable>
rbdock ($Id: //depot/dev/client3/rdock/2013.1/src/exe/rbdock.cxx#4 $)

>  <Rbt.Library>
libRbt.so (2013.1, Build901 2013/11/27)

>  <Rbt.Parameter_File>
/export/apps/rDock/src/rDock_2013.1_src/data/scripts/dock_solv.prm

>  <Rbt.Receptor>
prm/blind_docking_20.prm

>  <SCORE>
-4.00707

>  <SCORE.INTER>
-4.00707

>  <SCORE.INTER.CONST>
1

>  <SCORE.INTER.POLAR>
0

>  <SCORE.INTER.ROT>
0

>  <SCORE.INTER.SOLV>
2.84491

>  <SCORE.INTER.VDW>
-7.21968

>  <SCORE.INTER.norm>
-0.400707

>  <SCORE.INTRA>
0

>  <SCORE.INTRA.DIHEDRAL>
0

>  <SCORE.INTRA.DIHEDRAL.0>
0

>  <SCORE.INTRA.POLAR>
0

>  <SCORE.INTRA.POLAR.0>
0

>  <SCORE.INTRA.REPUL>
0

>  <SCORE.INTRA.REPUL.0>
0

>  <SCORE.INTRA.SOLV>
0

>  <SCORE.INTRA.SOLV.lig_0>
-23.9151

>  <SCORE.INTRA.VDW>
0

>  <SCORE.INTRA.VDW.0>
0

>  <SCORE.INTRA.norm>
0

>  <SCORE.RESTR>
0

>  <SCORE.RESTR.CAVITY>
0

>  <SCORE.RESTR.norm>
0

>  <SCORE.SYSTEM>
0

>  <SCORE.SYSTEM.CONST>
0

>  <SCORE.SYSTEM.DIHEDRAL>
0

>  <SCORE.SYSTEM.SOLV>
0

>  <SCORE.SYSTEM.norm>
0

>  <SCORE.heavy>
10

>  <SCORE.norm>
-0.400707

>  <RMSD>
18.853

$$$$
ligand
 OpenBabel11021811503D
libRbt.so/2013.1/901 2013/11/27
 10 11  0  0  0  0  0  0  0  0999 V2000
   -0.8400   -3.5457   17.4713 N   0  0  0  0  0  0  0  0  0  0  0  0
    0.3263   -3.0198   17.8509 C   0  0  0  0  0  0  0  0  0  0  0  0
    1.5586   -3.2878   17.4014 N   0  0  0  0  0  0  0  0  0  0  0  0
    1.5167   -4.2414   16.4514 C   0  0  0  0  0  0  0  0  0  0  0  0
    0.3940   -4.8776   15.9569 C   0  0  0  0  0  0  0  0  0  0  0  0
   -0.8471   -4.4982   16.5059 C   0  0  0  0  0  0  0  0  0  0  0  0
   -2.0134   -5.0428   16.1236 N   0  0  0  0  0  0  0  0  0  0  0  0
    0.7335   -5.7962   14.9805 N   0  0  0  0  0  0  0  0  0  0  0  0
    2.0339   -5.6989   14.8948 C   0  0  0  0  0  0  0  0  0  0  0  0
    2.5733   -4.7853   15.7609 N   0  0  0  0  0  0  0  0  0  0  0  0
  1  2  2  0  0  0  0
  1  6  1  0  0  0  0
  2  3  1  0  0  0  0
  3  4  2  0  0  0  0
  4  5  1  0  0  0  0
  4 10  1  0  0  0  0
  5  6  2  0  0  0  0
  5  8  1  0  0  0  0
  6  7  1  0  0  0  0
  8  9  1  0  0  0  0
  9 10  2  0  0  0  0
M  END
>  <CHROM.1>
0.53276312,-4.48030197,16.34035533,-2.51295809,-0.09568608,-2.35016892

>  <Name>
ligand

>  <RI>
0

>  <Rbt.Current_Directory>
/home/itssahil/PROJECTS/Mol_Feturizer/New_Systems/rnas/4LW0

>  <Rbt.Executable>
rbdock ($Id: //depot/dev/client3/rdock/2013.1/src/exe/rbdock.cxx#4 $)

>  <Rbt.Library>
libRbt.so (2013.1, Build901 2013/11/27)

>  <Rbt.Parameter_File>
/export/apps/rDock/src/rDock_2013.1_src/data/scripts/dock_solv.prm

>  <Rbt.Receptor>
prm/blind_docking_20.prm

>  <SCORE>
-4.05537

>  <SCORE.INTER>
-4.05537

>  <SCORE.INTER.CONST>
1

>  <SCORE.INTER.POLAR>
0

>  <SCORE.INTER.ROT>
0

>  <SCORE.INTER.SOLV>
2.71509

>  <SCORE.INTER.VDW>
-7.20861

>  <SCORE.INTER.norm>
-0.405537

>  <SCORE.INTRA>
0

>  <SCORE.INTRA.DIHEDRAL>
0

>  <SCORE.INTRA.DIHEDRAL.0>
0

>  <SCORE.INTRA.POLAR>
0

>  <SCORE.INTRA.POLAR.0>
0

>  <SCORE.INTRA.REPUL>
0

>  <SCORE.INTRA.REPUL.0>
0

>  <SCORE.INTRA.SOLV>
0

>  <SCORE.INTRA.SOLV.lig_0>
-23.9151

>  <SCORE.INTRA.VDW>
0

>  <SCORE.INTRA.VDW.0>
0

>  <SCORE.INTRA.norm>
0

>  <SCORE.RESTR>
0

>  <SCORE.RESTR.CAVITY>
0

>  <SCORE.RESTR.norm>
0

>  <SCORE.SYSTEM>
0

>  <SCORE.SYSTEM.CONST>
0

>  <SCORE.SYSTEM.DIHEDRAL>
0

>  <SCORE.SYSTEM.SOLV>
0

>  <SCORE.SYSTEM.norm>
0

>  <SCORE.heavy>
10

>  <SCORE.norm>
-0.405537

>  <RMSD>
18.853

$$$$
ligand
 OpenBabel11021811503D
libRbt.so/2013.1/901 2013/11/27
 10 11  0  0  0  0  0  0  0  0999 V2000
   -0.8337   -3.5389   17.4756 N   0  0  0  0  0  0  0  0  0  0  0  0
    0.3337   -3.0144   17.8537 C   0  0  0  0  0  0  0  0  0  0  0  0
    1.5651   -3.2841   17.4028 N   0  0  0  0  0  0  0  0  0  0  0  0
    1.5208   -4.2377   16.4530 C   0  0  0  0  0  0  0  0  0  0  0  0
    0.3967   -4.8726   15.9600 C   0  0  0  0  0  0  0  0  0  0  0  0
   -0.8432   -4.4916   16.5104 C   0  0  0  0  0  0  0  0  0  0  0  0
   -2.0106   -5.0348   16.1296 N   0  0  0  0  0  0  0  0  0  0  0  0
    0.7339   -5.7918   14.9834 N   0  0  0  0  0  0  0  0  0  0  0  0
    2.0343   -5.6963   14.8961 C   0  0  0  0  0  0  0  0  0  0  0  0
    2.5759   -4.7831   15.7614 N   0  0  0  0  0  0  0  0  0  0  0  0
  1  2  2  0  0  0  0
  1  6  1  0  0  0  0
  2  3  1  0  0  0  0
  3  4  2  0  0  0  0
  4  5  1  0  0  0  0
  4 10  1  0  0  0  0
  5  6  2  0  0  0  0
  5  8  1  0  0  0  0
  6  7  1  0  0  0  0
  8  9  1  0  0  0  0
  9 10  2  0  0  0  0
M  END
>  <CHROM.1>
0.53644466,-4.47545754,16.34318895,-2.51119798,-0.09563702,-2.35018443

>  <Name>
ligand

>  <RI>
0

>  <Rbt.Current_Directory>
/home/itssahil/PROJECTS/Mol_Feturizer/New_Systems/rnas/4LW0

>  <Rbt.Executable>
rbdock ($Id: //depot/dev/client3/rdock/2013.1/src/exe/rbdock.cxx#4 $)

>  <Rbt.Library>
libRbt.so (2013.1, Build901 2013/11/27)

>  <Rbt.Parameter_File>
/export/apps/rDock/src/rDock_2013.1_src/data/scripts/dock_solv.prm

>  <Rbt.Receptor>
prm/blind_docking_20.prm

>  <SCORE>
-4.05379

>  <SCORE.INTER>
-4.05379

>  <SCORE.INTER.CONST>
1

>  <SCORE.INTER.POLAR>
0

>  <SCORE.INTER.ROT>
0

>  <SCORE.INTER.SOLV>
2.71731

>  <SCORE.INTER.VDW>
-7.2083

>  <SCORE.INTER.norm>
-0.405379

>  <SCORE.INTRA>
0

>  <SCORE.INTRA.DIHEDRAL>
0

>  <SCORE.INTRA.DIHEDRAL.0>
0

>  <SCORE.INTRA.POLAR>
0

>  <SCORE.INTRA.POLAR.0>
0

>  <SCORE.INTRA.REPUL>
0

>  <SCORE.INTRA.REPUL.0>
0

>  <SCORE.INTRA.SOLV>
0

>  <SCORE.INTRA.SOLV.lig_0>
-23.9151

>  <SCORE.INTRA.VDW>
0

>  <SCORE.INTRA.VDW.0>
0

>  <SCORE.INTRA.norm>
0

>  <SCORE.RESTR>
0

>  <SCORE.RESTR.CAVITY>
0

>  <SCORE.RESTR.norm>
0

>  <SCORE.SYSTEM>
0

>  <SCORE.SYSTEM.CONST>
0

>  <SCORE.SYSTEM.DIHEDRAL>
0

>  <SCORE.SYSTEM.SOLV>
0

>  <SCORE.SYSTEM.norm>
0

>  <SCORE.heavy>
10

>  <SCORE.norm>
-0.405379

>  <RMSD>
18.855

$$$$
ligand
 OpenBabel11021811503D
libRbt.so/2013.1/901 2013/11/27
 10 11  0  0  0  0  0  0  0  0999 V2000
   -1.0233   -3.6666   17.2266 N   0  0  0  0  0  0  0  0  0  0  0  0
    0.0805   -3.1093   17.7289 C   0  0  0  0  0  0  0  0  0  0  0  0
    1.3603   -3.3328   17.4057 N   0  0  0  0  0  0  0  0  0  0  0  0
    1.4467   -4.2748   16.4472 C   0  0  0  0  0  0  0  0  0  0  0  0
    0.4016   -4.9394   15.8340 C   0  0  0  0  0  0  0  0  0  0  0  0
   -0.9007   -4.6062   16.2564 C   0  0  0  0  0  0  0  0  0  0  0  0
   -2.0035   -5.1821   15.7512 N   0  0  0  0  0  0  0  0  0  0  0  0
    0.8688   -5.8341   14.8887 N   0  0  0  0  0  0  0  0  0  0  0  0
    2.1673   -5.6951   14.9378 C   0  0  0  0  0  0  0  0  0  0  0  0
    2.5854   -4.7764   15.8635 N   0  0  0  0  0  0  0  0  0  0  0  0
  1  2  2  0  0  0  0
  1  6  1  0  0  0  0
  2  3  1  0  0  0  0
  3  4  2  0  0  0  0
  4  5  1  0  0  0  0
  4 10  1  0  0  0  0
  5  6  2  0  0  0  0
  5  8  1  0  0  0  0
  6  7  1  0  0  0  0
  8  9  1  0  0  0  0
  9 10  2  0  0  0  0
M  END
>  <CHROM.1>
0.48752193,-4.54296500,16.23349879,-2.60874747,-0.04650058,-2.34561707

>  <Name>
ligand

>  <RI>
0

>  <Rbt.Current_Directory>
/home/itssahil/PROJECTS/Mol_Feturizer/New_Systems/rnas/4LW0

>  <Rbt.Executable>
rbdock ($Id: //depot/dev/client3/rdock/2013.1/src/exe/rbdock.cxx#4 $)

>  <Rbt.Library>
libRbt.so (2013.1, Build901 2013/11/27)

>  <Rbt.Parameter_File>
/export/apps/rDock/src/rDock_2013.1_src/data/scripts/dock_solv.prm

>  <Rbt.Receptor>
prm/blind_docking_20.prm

>  <SCORE>
-4.05094

>  <SCORE.INTER>
-4.05094

>  <SCORE.INTER.CONST>
1

>  <SCORE.INTER.POLAR>
0

>  <SCORE.INTER.ROT>
0

>  <SCORE.INTER.SOLV>
2.5405

>  <SCORE.INTER.VDW>
-7.14746

>  <SCORE.INTER.norm>
-0.405094

>  <SCORE.INTRA>
0

>  <SCORE.INTRA.DIHEDRAL>
0

>  <SCORE.INTRA.DIHEDRAL.0>
0

>  <SCORE.INTRA.POLAR>
0

>  <SCORE.INTRA.POLAR.0>
0

>  <SCORE.INTRA.REPUL>
0

>  <SCORE.INTRA.REPUL.0>
0

>  <SCORE.INTRA.SOLV>
0

>  <SCORE.INTRA.SOLV.lig_0>
-23.9151

>  <SCORE.INTRA.VDW>
0

>  <SCORE.INTRA.VDW.0>
0

>  <SCORE.INTRA.norm>
0

>  <SCORE.RESTR>
0

>  <SCORE.RESTR.CAVITY>
0

>  <SCORE.RESTR.norm>
0

>  <SCORE.SYSTEM>
0

>  <SCORE.SYSTEM.CONST>
0

>  <SCORE.SYSTEM.DIHEDRAL>
0

>  <SCORE.SYSTEM.SOLV>
0

>  <SCORE.SYSTEM.norm>
0

>  <SCORE.heavy>
10

>  <SCORE.norm>
-0.405094

>  <RMSD>
18.856

$$$$
ligand
 OpenBabel11021811503D
libRbt.so/2013.1/901 2013/11/27
 10 11  0  0  0  0  0  0  0  0999 V2000
   -1.0249   -3.6680   17.2261 N   0  0  0  0  0  0  0  0  0  0  0  0
    0.0760   -3.1118   17.7357 C   0  0  0  0  0  0  0  0  0  0  0  0
    1.3576   -3.3336   17.4182 N   0  0  0  0  0  0  0  0  0  0  0  0
    1.4492   -4.2727   16.4572 C   0  0  0  0  0  0  0  0  0  0  0  0
    0.4076   -4.9359   15.8368 C   0  0  0  0  0  0  0  0  0  0  0  0
   -0.8970   -4.6046   16.2537 C   0  0  0  0  0  0  0  0  0  0  0  0
   -1.9970   -5.1794   15.7412 N   0  0  0  0  0  0  0  0  0  0  0  0
    0.8799   -5.8275   14.8912 N   0  0  0  0  0  0  0  0  0  0  0  0
    2.1781   -5.6881   14.9472 C   0  0  0  0  0  0  0  0  0  0  0  0
    2.5911   -4.7720   15.8778 N   0  0  0  0  0  0  0  0  0  0  0  0
  1  2  2  0  0  0  0
  1  6  1  0  0  0  0
  2  3  1  0  0  0  0
  3  4  2  0  0  0  0
  4  5  1  0  0  0  0
  4 10  1  0  0  0  0
  5  6  2  0  0  0  0
  5  8  1  0  0  0  0
  6  7  1  0  0  0  0
  8  9  1  0  0  0  0
  9 10  2  0  0  0  0
M  END
>  <CHROM.1>
0.49125865,-4.54063504,16.23793957,-2.61266757,-0.04331589,-2.34273394

>  <Name>
ligand

>  <RI>
0

>  <Rbt.Current_Directory>
/home/itssahil/PROJECTS/Mol_Feturizer/New_Systems/rnas/4LW0

>  <Rbt.Executable>
rbdock ($Id: //depot/dev/client3/rdock/2013.1/src/exe/rbdock.cxx#4 $)

>  <Rbt.Library>
libRbt.so (2013.1, Build901 2013/11/27)

>  <Rbt.Parameter_File>
/export/apps/rDock/src/rDock_2013.1_src/data/scripts/dock_solv.prm

>  <Rbt.Receptor>
prm/blind_docking_20.prm

>  <SCORE>
-4.05514

>  <SCORE.INTER>
-4.05514

>  <SCORE.INTER.CONST>
1

>  <SCORE.INTER.POLAR>
0

>  <SCORE.INTER.ROT>
0

>  <SCORE.INTER.SOLV>
2.5255

>  <SCORE.INTER.VDW>
-7.14526

>  <SCORE.INTER.norm>
-0.405514

>  <SCORE.INTRA>
0

>  <SCORE.INTRA.DIHEDRAL>
0

>  <SCORE.INTRA.DIHEDRAL.0>
0

>  <SCORE.INTRA.POLAR>
0

>  <SCORE.INTRA.POLAR.0>
0

>  <SCORE.INTRA.REPUL>
0

>  <SCORE.INTRA.REPUL.0>
0

>  <SCORE.INTRA.SOLV>
0

>  <SCORE.INTRA.SOLV.lig_0>
-23.9151

>  <SCORE.INTRA.VDW>
0

>  <SCORE.INTRA.VDW.0>
0

>  <SCORE.INTRA.norm>
0

>  <SCORE.RESTR>
0

>  <SCORE.RESTR.CAVITY>
0

>  <SCORE.RESTR.norm>
0

>  <SCORE.SYSTEM>
0

>  <SCORE.SYSTEM.CONST>
0

>  <SCORE.SYSTEM.DIHEDRAL>
0

>  <SCORE.SYSTEM.SOLV>
0

>  <SCORE.SYSTEM.norm>
0

>  <SCORE.heavy>
10

>  <SCORE.norm>
-0.405514

>  <RMSD>
18.856

$$$$
ligand
 OpenBabel11021811503D
libRbt.so/2013.1/901 2013/11/27
 10 11  0  0  0  0  0  0  0  0999 V2000
   -1.0215   -3.6599   17.2112 N   0  0  0  0  0  0  0  0  0  0  0  0
    0.0823   -3.1014   17.7121 C   0  0  0  0  0  0  0  0  0  0  0  0
    1.3624   -3.3298   17.3933 N   0  0  0  0  0  0  0  0  0  0  0  0
    1.4489   -4.2787   16.4415 C   0  0  0  0  0  0  0  0  0  0  0  0
    0.4038   -4.9454   15.8307 C   0  0  0  0  0  0  0  0  0  0  0  0
   -0.8987   -4.6065   16.2478 C   0  0  0  0  0  0  0  0  0  0  0  0
   -2.0016   -5.1836   15.7442 N   0  0  0  0  0  0  0  0  0  0  0  0
    0.8712   -5.8477   14.8927 N   0  0  0  0  0  0  0  0  0  0  0  0
    2.1699   -5.7110   14.9438 C   0  0  0  0  0  0  0  0  0  0  0  0
    2.5879   -4.7867   15.8640 N   0  0  0  0  0  0  0  0  0  0  0  0
  1  2  2  0  0  0  0
  1  6  1  0  0  0  0
  2  3  1  0  0  0  0
  3  4  2  0  0  0  0
  4  5  1  0  0  0  0
  4 10  1  0  0  0  0
  5  6  2  0  0  0  0
  5  8  1  0  0  0  0
  6  7  1  0  0  0  0
  8  9  1  0  0  0  0
  9 10  2  0  0  0  0
M  END
>  <CHROM.1>
0.48966935,-4.54633202,16.22758596,-2.60886911,-0.04343530,-2.35261433

>  <Name>
ligand

>  <RI>
0

>  <Rbt.Current_Directory>
/home/itssahil/PROJECTS/Mol_Feturizer/New_Systems/rnas/4LW0

>  <Rbt.Executable>
rbdock ($Id: //depot/dev/client3/rdock/2013.1/src/exe/rbdock.cxx#4 $)

>  <Rbt.Library>
libRbt.so (2013.1, Build901 2013/11/27)

>  <Rbt.Parameter_File>
/export/apps/rDock/src/rDock_2013.1_src/data/scripts/dock_solv.prm

>  <Rbt.Receptor>
prm/blind_docking_20.prm

>  <SCORE>
-4.04525

>  <SCORE.INTER>
-4.04525

>  <SCORE.INTER.CONST>
1

>  <SCORE.INTER.POLAR>
0

>  <SCORE.INTER.ROT>
0

>  <SCORE.INTER.SOLV>
2.56099

>  <SCORE.INTER.VDW>
-7.1505

>  <SCORE.INTER.norm>
-0.404525

>  <SCORE.INTRA>
0

>  <SCORE.INTRA.DIHEDRAL>
0

>  <SCORE.INTRA.DIHEDRAL.0>
0

>  <SCORE.INTRA.POLAR>
0

>  <SCORE.INTRA.POLAR.0>
0

>  <SCORE.INTRA.REPUL>
0

>  <SCORE.INTRA.REPUL.0>
0

>  <SCORE.INTRA.SOLV>
0

>  <SCORE.INTRA.SOLV.lig_0>
-23.9151

>  <SCORE.INTRA.VDW>
0

>  <SCORE.INTRA.VDW.0>
0

>  <SCORE.INTRA.norm>
0

>  <SCORE.RESTR>
0

>  <SCORE.RESTR.CAVITY>
0

>  <SCORE.RESTR.norm>
0

>  <SCORE.SYSTEM>
0

>  <SCORE.SYSTEM.CONST>
0

>  <SCORE.SYSTEM.DIHEDRAL>
0

>  <SCORE.SYSTEM.SOLV>
0

>  <SCORE.SYSTEM.norm>
0

>  <SCORE.heavy>
10

>  <SCORE.norm>
-0.404525

>  <RMSD>
18.856

$$$$
ligand
 OpenBabel11021811503D
libRbt.so/2013.1/901 2013/11/27
 10 11  0  0  0  0  0  0  0  0999 V2000
   -0.8366   -3.5419   17.4710 N   0  0  0  0  0  0  0  0  0  0  0  0
    0.3260   -3.0196   17.8665 C   0  0  0  0  0  0  0  0  0  0  0  0
    1.5626   -3.2844   17.4271 N   0  0  0  0  0  0  0  0  0  0  0  0
    1.5298   -4.2299   16.4687 C   0  0  0  0  0  0  0  0  0  0  0  0
    0.4119   -4.8615   15.9578 C   0  0  0  0  0  0  0  0  0  0  0  0
   -0.8344   -4.4862   16.4976 C   0  0  0  0  0  0  0  0  0  0  0  0
   -1.9971   -5.0271   16.0991 N   0  0  0  0  0  0  0  0  0  0  0  0
    0.7608   -5.7720   14.9772 N   0  0  0  0  0  0  0  0  0  0  0  0
    2.0620   -5.6746   14.9052 C   0  0  0  0  0  0  0  0  0  0  0  0
    2.5931   -4.7684   15.7843 N   0  0  0  0  0  0  0  0  0  0  0  0
  1  2  2  0  0  0  0
  1  6  1  0  0  0  0
  2  3  1  0  0  0  0
  3  4  2  0  0  0  0
  4  5  1  0  0  0  0
  4 10  1  0  0  0  0
  5  6  2  0  0  0  0
  5  8  1  0  0  0  0
  6  7  1  0  0  0  0
  8  9  1  0  0  0  0
  9 10  2  0  0  0  0
M  END
>  <CHROM.1>
0.54696964,-4.46748426,16.34594556,-2.51982428,-0.08846578,-2.34239747

>  <Name>
ligand

>  <RI>
0

>  <Rbt.Current_Directory>
/home/itssahil/PROJECTS/Mol_Feturizer/New_Systems/rnas/4LW0

>  <Rbt.Executable>
rbdock ($Id: //depot/dev/client3/rdock/2013.1/src/exe/rbdock.cxx#4 $)

>  <Rbt.Library>
libRbt.so (2013.1, Build901 2013/11/27)

>  <Rbt.Parameter_File>
/export/apps/rDock/src/rDock_2013.1_src/data/scripts/dock_solv.prm

>  <Rbt.Receptor>
prm/blind_docking_20.prm

>  <SCORE>
-4.03217

>  <SCORE.INTER>
-4.03217

>  <SCORE.INTER.CONST>
1

>  <SCORE.INTER.POLAR>
0

>  <SCORE.INTER.ROT>
0

>  <SCORE.INTER.SOLV>
2.6848

>  <SCORE.INTER.VDW>
-7.18305

>  <SCORE.INTER.norm>
-0.403217

>  <SCORE.INTRA>
0

>  <SCORE.INTRA.DIHEDRAL>
0

>  <SCORE.INTRA.DIHEDRAL.0>
0

>  <SCORE.INTRA.POLAR>
0

>  <SCORE.INTRA.POLAR.0>
0

>  <SCORE.INTRA.REPUL>
0

>  <SCORE.INTRA.REPUL.0>
0

>  <SCORE.INTRA.SOLV>
0

>  <SCORE.INTRA.SOLV.lig_0>
-23.9151

>  <SCORE.INTRA.VDW>
0

>  <SCORE.INTRA.VDW.0>
0

>  <SCORE.INTRA.norm>
0

>  <SCORE.RESTR>
0

>  <SCORE.RESTR.CAVITY>
0

>  <SCORE.RESTR.norm>
0

>  <SCORE.SYSTEM>
0

>  <SCORE.SYSTEM.CONST>
0

>  <SCORE.SYSTEM.DIHEDRAL>
0

>  <SCORE.SYSTEM.SOLV>
0

>  <SCORE.SYSTEM.norm>
0

>  <SCORE.heavy>
10

>  <SCORE.norm>
-0.403217

>  <RMSD>
18.860

$$$$
ligand
 OpenBabel11021811503D
libRbt.so/2013.1/901 2013/11/27
 10 11  0  0  0  0  0  0  0  0999 V2000
   -0.7433   -3.4379   17.6699 N   0  0  0  0  0  0  0  0  0  0  0  0
    0.4535   -2.9114   17.9372 C   0  0  0  0  0  0  0  0  0  0  0  0
    1.6418   -3.1967   17.3905 N   0  0  0  0  0  0  0  0  0  0  0  0
    1.5147   -4.1701   16.4684 C   0  0  0  0  0  0  0  0  0  0  0  0
    0.3511   -4.8096   16.0854 C   0  0  0  0  0  0  0  0  0  0  0  0
   -0.8369   -4.4107   16.7296 C   0  0  0  0  0  0  0  0  0  0  0  0
   -2.0340   -4.9559   16.4600 N   0  0  0  0  0  0  0  0  0  0  0  0
    0.6019   -5.7509   15.1039 N   0  0  0  0  0  0  0  0  0  0  0  0
    1.8907   -5.6638   14.9057 C   0  0  0  0  0  0  0  0  0  0  0  0
    2.5061   -4.7353   15.7026 N   0  0  0  0  0  0  0  0  0  0  0  0
  1  2  2  0  0  0  0
  1  6  1  0  0  0  0
  2  3  1  0  0  0  0
  3  4  2  0  0  0  0
  4  5  1  0  0  0  0
  4 10  1  0  0  0  0
  5  6  2  0  0  0  0
  5  8  1  0  0  0  0
  6  7  1  0  0  0  0
  8  9  1  0  0  0  0
  9 10  2  0  0  0  0
M  END
>  <CHROM.1>
0.52381323,-4.40509010,16.44686479,-2.44834765,-0.15224652,-2.36380276

>  <Name>
ligand

>  <RI>
0

>  <Rbt.Current_Directory>
/home/itssahil/PROJECTS/Mol_Feturizer/New_Systems/rnas/4LW0

>  <Rbt.Executable>
rbdock ($Id: //depot/dev/client3/rdock/2013.1/src/exe/rbdock.cxx#4 $)

>  <Rbt.Library>
libRbt.so (2013.1, Build901 2013/11/27)

>  <Rbt.Parameter_File>
/export/apps/rDock/src/rDock_2013.1_src/data/scripts/dock_solv.prm

>  <Rbt.Receptor>
prm/blind_docking_20.prm

>  <SCORE>
-4.01424

>  <SCORE.INTER>
-4.01424

>  <SCORE.INTER.CONST>
1

>  <SCORE.INTER.POLAR>
0

>  <SCORE.INTER.ROT>
0

>  <SCORE.INTER.SOLV>
2.82862

>  <SCORE.INTER.VDW>
-7.21904

>  <SCORE.INTER.norm>
-0.401424

>  <SCORE.INTRA>
0

>  <SCORE.INTRA.DIHEDRAL>
0

>  <SCORE.INTRA.DIHEDRAL.0>
0

>  <SCORE.INTRA.POLAR>
0

>  <SCORE.INTRA.POLAR.0>
0

>  <SCORE.INTRA.REPUL>
0

>  <SCORE.INTRA.REPUL.0>
0

>  <SCORE.INTRA.SOLV>
0

>  <SCORE.INTRA.SOLV.lig_0>
-23.9151

>  <SCORE.INTRA.VDW>
0

>  <SCORE.INTRA.VDW.0>
0

>  <SCORE.INTRA.norm>
0

>  <SCORE.RESTR>
0

>  <SCORE.RESTR.CAVITY>
0

>  <SCORE.RESTR.norm>
0

>  <SCORE.SYSTEM>
0

>  <SCORE.SYSTEM.CONST>
0

>  <SCORE.SYSTEM.DIHEDRAL>
0

>  <SCORE.SYSTEM.SOLV>
0

>  <SCORE.SYSTEM.norm>
0

>  <SCORE.heavy>
10

>  <SCORE.norm>
-0.401424

>  <RMSD>
18.867

$$$$
ligand
 OpenBabel11021811503D
libRbt.so/2013.1/901 2013/11/27
 10 11  0  0  0  0  0  0  0  0999 V2000
   -0.8265   -3.5332   17.4851 N   0  0  0  0  0  0  0  0  0  0  0  0
    0.3418   -2.9982   17.8453 C   0  0  0  0  0  0  0  0  0  0  0  0
    1.5691   -3.2605   17.3793 N   0  0  0  0  0  0  0  0  0  0  0  0
    1.5195   -4.2187   16.4343 C   0  0  0  0  0  0  0  0  0  0  0  0
    0.3938   -4.8642   15.9591 C   0  0  0  0  0  0  0  0  0  0  0  0
   -0.8415   -4.4902   16.5242 C   0  0  0  0  0  0  0  0  0  0  0  0
   -2.0097   -5.0438   16.1613 N   0  0  0  0  0  0  0  0  0  0  0  0
    0.7250   -5.7852   14.9820 N   0  0  0  0  0  0  0  0  0  0  0  0
    2.0234   -5.6802   14.8770 C   0  0  0  0  0  0  0  0  0  0  0  0
    2.5695   -4.7592   15.7311 N   0  0  0  0  0  0  0  0  0  0  0  0
  1  2  2  0  0  0  0
  1  6  1  0  0  0  0
  2  3  1  0  0  0  0
  3  4  2  0  0  0  0
  4  5  1  0  0  0  0
  4 10  1  0  0  0  0
  5  6  2  0  0  0  0
  5  8  1  0  0  0  0
  6  7  1  0  0  0  0
  8  9  1  0  0  0  0
  9 10  2  0  0  0  0
M  END
>  <CHROM.1>
0.53561978,-4.46433631,16.33862628,-2.50709548,-0.11037057,-2.35413415

>  <Name>
ligand

>  <RI>
0

>  <Rbt.Current_Directory>
/home/itssahil/PROJECTS/Mol_Feturizer/New_Systems/rnas/4LW0

>  <Rbt.Executable>
rbdock ($Id: //depot/dev/client3/rdock/2013.1/src/exe/rbdock.cxx#4 $)

>  <Rbt.Library>
libRbt.so (2013.1, Build901 2013/11/27)

>  <Rbt.Parameter_File>
/export/apps/rDock/src/rDock_2013.1_src/data/scripts/dock_solv.prm

>  <Rbt.Receptor>
prm/blind_docking_20.prm

>  <SCORE>
-4.03748

>  <SCORE.INTER>
-4.03748

>  <SCORE.INTER.CONST>
1

>  <SCORE.INTER.POLAR>
0

>  <SCORE.INTER.ROT>
0

>  <SCORE.INTER.SOLV>
2.71612

>  <SCORE.INTER.VDW>
-7.19703

>  <SCORE.INTER.norm>
-0.403748

>  <SCORE.INTRA>
0

>  <SCORE.INTRA.DIHEDRAL>
0

>  <SCORE.INTRA.DIHEDRAL.0>
0

>  <SCORE.INTRA.POLAR>
0

>  <SCORE.INTRA.POLAR.0>
0

>  <SCORE.INTRA.REPUL>
0

>  <SCORE.INTRA.REPUL.0>
0

>  <SCORE.INTRA.SOLV>
0

>  <SCORE.INTRA.SOLV.lig_0>
-23.9151

>  <SCORE.INTRA.VDW>
0

>  <SCORE.INTRA.VDW.0>
0

>  <SCORE.INTRA.norm>
0

>  <SCORE.RESTR>
0

>  <SCORE.RESTR.CAVITY>
0

>  <SCORE.RESTR.norm>
0

>  <SCORE.SYSTEM>
0

>  <SCORE.SYSTEM.CONST>
0

>  <SCORE.SYSTEM.DIHEDRAL>
0

>  <SCORE.SYSTEM.SOLV>
0

>  <SCORE.SYSTEM.norm>
0

>  <SCORE.heavy>
10

>  <SCORE.norm>
-0.403748

>  <RMSD>
18.868

$$$$
ligand
 OpenBabel11021811503D
libRbt.so/2013.1/901 2013/11/27
 10 11  0  0  0  0  0  0  0  0999 V2000
   -0.7264   -3.4696   17.5706 N   0  0  0  0  0  0  0  0  0  0  0  0
    0.4510   -2.9346   17.9001 C   0  0  0  0  0  0  0  0  0  0  0  0
    1.6673   -3.2062   17.4112 N   0  0  0  0  0  0  0  0  0  0  0  0
    1.5947   -4.1746   16.4782 C   0  0  0  0  0  0  0  0  0  0  0  0
    0.4572   -4.8216   16.0341 C   0  0  0  0  0  0  0  0  0  0  0  0
   -0.7647   -4.4372   16.6210 C   0  0  0  0  0  0  0  0  0  0  0  0
   -1.9421   -4.9909   16.2891 N   0  0  0  0  0  0  0  0  0  0  0  0
    0.7648   -5.7545   15.0607 N   0  0  0  0  0  0  0  0  0  0  0  0
    2.0610   -5.6550   14.9271 C   0  0  0  0  0  0  0  0  0  0  0  0
    2.6279   -4.7264   15.7591 N   0  0  0  0  0  0  0  0  0  0  0  0
  1  2  2  0  0  0  0
  1  6  1  0  0  0  0
  2  3  1  0  0  0  0
  3  4  2  0  0  0  0
  4  5  1  0  0  0  0
  4 10  1  0  0  0  0
  5  6  2  0  0  0  0
  5  8  1  0  0  0  0
  6  7  1  0  0  0  0
  8  9  1  0  0  0  0
  9 10  2  0  0  0  0
M  END
>  <CHROM.1>
0.60828317,-4.41801505,16.40610420,-2.48976818,-0.12307890,-2.36328231

>  <Name>
ligand

>  <RI>
0

>  <Rbt.Current_Directory>
/home/itssahil/PROJECTS/Mol_Feturizer/New_Systems/rnas/4LW0

>  <Rbt.Executable>
rbdock ($Id: //depot/dev/client3/rdock/2013.1/src/exe/rbdock.cxx#4 $)

>  <Rbt.Library>
libRbt.so (2013.1, Build901 2013/11/27)

>  <Rbt.Parameter_File>
/export/apps/rDock/src/rDock_2013.1_src/data/scripts/dock_solv.prm

>  <Rbt.Receptor>
prm/blind_docking_20.prm

>  <SCORE>
-4.03168

>  <SCORE.INTER>
-4.03168

>  <SCORE.INTER.CONST>
1

>  <SCORE.INTER.POLAR>
0

>  <SCORE.INTER.ROT>
0

>  <SCORE.INTER.SOLV>
2.75691

>  <SCORE.INTER.VDW>
-7.20676

>  <SCORE.INTER.norm>
-0.403168

>  <SCORE.INTRA>
0

>  <SCORE.INTRA.DIHEDRAL>
0

>  <SCORE.INTRA.DIHEDRAL.0>
0

>  <SCORE.INTRA.POLAR>
0

>  <SCORE.INTRA.POLAR.0>
0

>  <SCORE.INTRA.REPUL>
0

>  <SCORE.INTRA.REPUL.0>
0

>  <SCORE.INTRA.SOLV>
0

>  <SCORE.INTRA.SOLV.lig_0>
-23.9151

>  <SCORE.INTRA.VDW>
0

>  <SCORE.INTRA.VDW.0>
0

>  <SCORE.INTRA.norm>
0

>  <SCORE.RESTR>
0

>  <SCORE.RESTR.CAVITY>
0

>  <SCORE.RESTR.norm>
0

>  <SCORE.SYSTEM>
0

>  <SCORE.SYSTEM.CONST>
0

>  <SCORE.SYSTEM.DIHEDRAL>
0

>  <SCORE.SYSTEM.SOLV>
0

>  <SCORE.SYSTEM.norm>
0

>  <SCORE.heavy>
10

>  <SCORE.norm>
-0.403168

>  <RMSD>
18.868

$$$$
ligand
 OpenBabel11021811503D
libRbt.so/2013.1/901 2013/11/27
 10 11  0  0  0  0  0  0  0  0999 V2000
   -0.8261   -3.5619   17.4008 N   0  0  0  0  0  0  0  0  0  0  0  0
    0.3273   -3.0219   17.7997 C   0  0  0  0  0  0  0  0  0  0  0  0
    1.5699   -3.2742   17.3701 N   0  0  0  0  0  0  0  0  0  0  0  0
    1.5552   -4.2273   16.4188 C   0  0  0  0  0  0  0  0  0  0  0  0
    0.4487   -4.8769   15.9058 C   0  0  0  0  0  0  0  0  0  0  0  0
   -0.8057   -4.5135   16.4348 C   0  0  0  0  0  0  0  0  0  0  0  0
   -1.9588   -5.0721   16.0332 N   0  0  0  0  0  0  0  0  0  0  0  0
    0.8154   -5.7903   14.9344 N   0  0  0  0  0  0  0  0  0  0  0  0
    2.1157   -5.6769   14.8699 C   0  0  0  0  0  0  0  0  0  0  0  0
    2.6296   -4.7575   15.7452 N   0  0  0  0  0  0  0  0  0  0  0  0
  1  2  2  0  0  0  0
  1  6  1  0  0  0  0
  2  3  1  0  0  0  0
  3  4  2  0  0  0  0
  4  5  1  0  0  0  0
  4 10  1  0  0  0  0
  5  6  2  0  0  0  0
  5  8  1  0  0  0  0
  6  7  1  0  0  0  0
  8  9  1  0  0  0  0
  9 10  2  0  0  0  0
M  END
>  <CHROM.1>
0.57629223,-4.47831701,16.29167746,-2.53330656,-0.09308901,-2.35127502

>  <Name>
ligand

>  <RI>
0

>  <Rbt.Current_Directory>
/home/itssahil/PROJECTS/Mol_Feturizer/New_Systems/rnas/4LW0

>  <Rbt.Executable>
rbdock ($Id: //depot/dev/client3/rdock/2013.1/src/exe/rbdock.cxx#4 $)

>  <Rbt.Library>
libRbt.so (2013.1, Build901 2013/11/27)

>  <Rbt.Parameter_File>
/export/apps/rDock/src/rDock_2013.1_src/data/scripts/dock_solv.prm

>  <Rbt.Receptor>
prm/blind_docking_20.prm

>  <SCORE>
-4.05065

>  <SCORE.INTER>
-4.05065

>  <SCORE.INTER.CONST>
1

>  <SCORE.INTER.POLAR>
0

>  <SCORE.INTER.ROT>
0

>  <SCORE.INTER.SOLV>
2.68291

>  <SCORE.INTER.VDW>
-7.19474

>  <SCORE.INTER.norm>
-0.405065

>  <SCORE.INTRA>
0

>  <SCORE.INTRA.DIHEDRAL>
0

>  <SCORE.INTRA.DIHEDRAL.0>
0

>  <SCORE.INTRA.POLAR>
0

>  <SCORE.INTRA.POLAR.0>
0

>  <SCORE.INTRA.REPUL>
0

>  <SCORE.INTRA.REPUL.0>
0

>  <SCORE.INTRA.SOLV>
0

>  <SCORE.INTRA.SOLV.lig_0>
-23.9151

>  <SCORE.INTRA.VDW>
0

>  <SCORE.INTRA.VDW.0>
0

>  <SCORE.INTRA.norm>
0

>  <SCORE.RESTR>
0

>  <SCORE.RESTR.CAVITY>
0

>  <SCORE.RESTR.norm>
0

>  <SCORE.SYSTEM>
0

>  <SCORE.SYSTEM.CONST>
0

>  <SCORE.SYSTEM.DIHEDRAL>
0

>  <SCORE.SYSTEM.SOLV>
0

>  <SCORE.SYSTEM.norm>
0

>  <SCORE.heavy>
10

>  <SCORE.norm>
-0.405065

>  <RMSD>
18.875

$$$$
ligand
 OpenBabel11021811503D
libRbt.so/2013.1/901 2013/11/27
 10 11  0  0  0  0  0  0  0  0999 V2000
   -0.7050   -3.4692   17.5484 N   0  0  0  0  0  0  0  0  0  0  0  0
    0.4793   -2.9423   17.8660 C   0  0  0  0  0  0  0  0  0  0  0  0
    1.6888   -3.2224   17.3649 N   0  0  0  0  0  0  0  0  0  0  0  0
    1.6001   -4.1904   16.4328 C   0  0  0  0  0  0  0  0  0  0  0  0
    0.4537   -4.8295   16.0003 C   0  0  0  0  0  0  0  0  0  0  0  0
   -0.7595   -4.4365   16.5994 C   0  0  0  0  0  0  0  0  0  0  0  0
   -1.9440   -4.9821   16.2795 N   0  0  0  0  0  0  0  0  0  0  0  0
    0.7450   -5.7646   15.0240 N   0  0  0  0  0  0  0  0  0  0  0  0
    2.0405   -5.6741   14.8774 C   0  0  0  0  0  0  0  0  0  0  0  0
    2.6221   -4.7494   15.7034 N   0  0  0  0  0  0  0  0  0  0  0  0
  1  2  2  0  0  0  0
  1  6  1  0  0  0  0
  2  3  1  0  0  0  0
  3  4  2  0  0  0  0
  4  5  1  0  0  0  0
  4 10  1  0  0  0  0
  5  6  2  0  0  0  0
  5  8  1  0  0  0  0
  6  7  1  0  0  0  0
  8  9  1  0  0  0  0
  9 10  2  0  0  0  0
M  END
>  <CHROM.1>
0.61131484,-4.42692854,16.37072182,-2.47767333,-0.12537916,-2.36190400

>  <Name>
ligand

>  <RI>
0

>  <Rbt.Current_Directory>
/home/itssahil/PROJECTS/Mol_Feturizer/New_Systems/rnas/4LW0

>  <Rbt.Executable>
rbdock ($Id: //depot/dev/client3/rdock/2013.1/src/exe/rbdock.cxx#4 $)

>  <Rbt.Library>
libRbt.so (2013.1, Build901 2013/11/27)

>  <Rbt.Parameter_File>
/export/apps/rDock/src/rDock_2013.1_src/data/scripts/dock_solv.prm

>  <Rbt.Receptor>
prm/blind_docking_20.prm

>  <SCORE>
-4.03357

>  <SCORE.INTER>
-4.03357

>  <SCORE.INTER.CONST>
1

>  <SCORE.INTER.POLAR>
0

>  <SCORE.INTER.ROT>
0

>  <SCORE.INTER.SOLV>
2.79386

>  <SCORE.INTER.VDW>
-7.22034

>  <SCORE.INTER.norm>
-0.403357

>  <SCORE.INTRA>
0

>  <SCORE.INTRA.DIHEDRAL>
0

>  <SCORE.INTRA.DIHEDRAL.0>
0

>  <SCORE.INTRA.POLAR>
0

>  <SCORE.INTRA.POLAR.0>
0

>  <SCORE.INTRA.REPUL>
0

>  <SCORE.INTRA.REPUL.0>
0

>  <SCORE.INTRA.SOLV>
0

>  <SCORE.INTRA.SOLV.lig_0>
-23.9151

>  <SCORE.INTRA.VDW>
0

>  <SCORE.INTRA.VDW.0>
0

>  <SCORE.INTRA.norm>
0

>  <SCORE.RESTR>
0

>  <SCORE.RESTR.CAVITY>
0

>  <SCORE.RESTR.norm>
0

>  <SCORE.SYSTEM>
0

>  <SCORE.SYSTEM.CONST>
0

>  <SCORE.SYSTEM.DIHEDRAL>
0

>  <SCORE.SYSTEM.SOLV>
0

>  <SCORE.SYSTEM.norm>
0

>  <SCORE.heavy>
10

>  <SCORE.norm>
-0.403357

>  <RMSD>
18.878

$$$$
ligand
 OpenBabel11021811503D
libRbt.so/2013.1/901 2013/11/27
 10 11  0  0  0  0  0  0  0  0999 V2000
   -0.9470   -3.6272   17.1445 N   0  0  0  0  0  0  0  0  0  0  0  0
    0.1710   -3.0473   17.5859 C   0  0  0  0  0  0  0  0  0  0  0  0
    1.4409   -3.2897   17.2380 N   0  0  0  0  0  0  0  0  0  0  0  0
    1.4992   -4.2796   16.3268 C   0  0  0  0  0  0  0  0  0  0  0  0
    0.4366   -4.9725   15.7786 C   0  0  0  0  0  0  0  0  0  0  0  0
   -0.8529   -4.6154   16.2205 C   0  0  0  0  0  0  0  0  0  0  0  0
   -1.9701   -5.2140   15.7771 N   0  0  0  0  0  0  0  0  0  0  0  0
    0.8759   -5.9154   14.8673 N   0  0  0  0  0  0  0  0  0  0  0  0
    2.1753   -5.7768   14.8721 C   0  0  0  0  0  0  0  0  0  0  0  0
    2.6204   -4.8128   15.7373 N   0  0  0  0  0  0  0  0  0  0  0  0
  1  2  2  0  0  0  0
  1  6  1  0  0  0  0
  2  3  1  0  0  0  0
  3  4  2  0  0  0  0
  4  5  1  0  0  0  0
  4 10  1  0  0  0  0
  5  6  2  0  0  0  0
  5  8  1  0  0  0  0
  6  7  1  0  0  0  0
  8  9  1  0  0  0  0
  9 10  2  0  0  0  0
M  END
>  <CHROM.1>
0.53411552,-4.55634769,16.15466943,-2.58776726,-0.06605982,-2.39558055

>  <Name>
ligand

>  <RI>
0

>  <Rbt.Current_Directory>
/home/itssahil/PROJECTS/Mol_Feturizer/New_Systems/rnas/4LW0

>  <Rbt.Executable>
rbdock ($Id: //depot/dev/client3/rdock/2013.1/src/exe/rbdock.cxx#4 $)

>  <Rbt.Library>
libRbt.so (2013.1, Build901 2013/11/27)

>  <Rbt.Parameter_File>
/export/apps/rDock/src/rDock_2013.1_src/data/scripts/dock_solv.prm

>  <Rbt.Receptor>
prm/blind_docking_20.prm

>  <SCORE>
-4.03325

>  <SCORE.INTER>
-4.03325

>  <SCORE.INTER.CONST>
1

>  <SCORE.INTER.POLAR>
0

>  <SCORE.INTER.ROT>
0

>  <SCORE.INTER.SOLV>
2.7305

>  <SCORE.INTER.VDW>
-7.199

>  <SCORE.INTER.norm>
-0.403325

>  <SCORE.INTRA>
0

>  <SCORE.INTRA.DIHEDRAL>
0

>  <SCORE.INTRA.DIHEDRAL.0>
0

>  <SCORE.INTRA.POLAR>
0

>  <SCORE.INTRA.POLAR.0>
0

>  <SCORE.INTRA.REPUL>
0

>  <SCORE.INTRA.REPUL.0>
0

>  <SCORE.INTRA.SOLV>
0

>  <SCORE.INTRA.SOLV.lig_0>
-23.9151

>  <SCORE.INTRA.VDW>
0

>  <SCORE.INTRA.VDW.0>
0

>  <SCORE.INTRA.norm>
0

>  <SCORE.RESTR>
0

>  <SCORE.RESTR.CAVITY>
0

>  <SCORE.RESTR.norm>
0

>  <SCORE.SYSTEM>
0

>  <SCORE.SYSTEM.CONST>
0

>  <SCORE.SYSTEM.DIHEDRAL>
0

>  <SCORE.SYSTEM.SOLV>
0

>  <SCORE.SYSTEM.norm>
0

>  <SCORE.heavy>
10

>  <SCORE.norm>
-0.403325

>  <RMSD>
18.881

$$$$
ligand
 OpenBabel11021811503D
libRbt.so/2013.1/901 2013/11/27
 10 11  0  0  0  0  0  0  0  0999 V2000
   -1.8962   -3.9119   14.2396 N   0  0  0  0  0  0  0  0  0  0  0  0
   -1.1492   -2.8491   13.9338 C   0  0  0  0  0  0  0  0  0  0  0  0
    0.1841   -2.7285   13.9290 N   0  0  0  0  0  0  0  0  0  0  0  0
    0.7630   -3.8816   14.3151 C   0  0  0  0  0  0  0  0  0  0  0  0
    0.1276   -5.0587   14.6622 C   0  0  0  0  0  0  0  0  0  0  0  0
   -1.2807   -5.0600   14.6167 C   0  0  0  0  0  0  0  0  0  0  0  0
   -2.0221   -6.1325   14.9377 N   0  0  0  0  0  0  0  0  0  0  0  0
    1.0449   -6.0379   14.9969 N   0  0  0  0  0  0  0  0  0  0  0  0
    2.2025   -5.4512   14.8432 C   0  0  0  0  0  0  0  0  0  0  0  0
    2.1059   -4.1453   14.4417 N   0  0  0  0  0  0  0  0  0  0  0  0
  1  2  2  0  0  0  0
  1  6  1  0  0  0  0
  2  3  1  0  0  0  0
  3  4  2  0  0  0  0
  4  5  1  0  0  0  0
  4 10  1  0  0  0  0
  5  6  2  0  0  0  0
  5  8  1  0  0  0  0
  6  7  1  0  0  0  0
  8  9  1  0  0  0  0
  9 10  2  0  0  0  0
M  END
>  <CHROM.1>
-0.00157172,-4.53069293,14.49292181,-2.98936123,0.02888347,2.83766528

>  <Name>
ligand

>  <RI>
0

>  <Rbt.Current_Directory>
/home/itssahil/PROJECTS/Mol_Feturizer/New_Systems/rnas/4LW0

>  <Rbt.Executable>
rbdock ($Id: //depot/dev/client3/rdock/2013.1/src/exe/rbdock.cxx#4 $)

>  <Rbt.Library>
libRbt.so (2013.1, Build901 2013/11/27)

>  <Rbt.Parameter_File>
/export/apps/rDock/src/rDock_2013.1_src/data/scripts/dock_solv.prm

>  <Rbt.Receptor>
prm/blind_docking_20.prm

>  <SCORE>
-4.35152

>  <SCORE.INTER>
-4.35152

>  <SCORE.INTER.CONST>
1

>  <SCORE.INTER.POLAR>
0

>  <SCORE.INTER.ROT>
0

>  <SCORE.INTER.SOLV>
3.66118

>  <SCORE.INTER.VDW>
-7.7214

>  <SCORE.INTER.norm>
-0.435152

>  <SCORE.INTRA>
0

>  <SCORE.INTRA.DIHEDRAL>
0

>  <SCORE.INTRA.DIHEDRAL.0>
0

>  <SCORE.INTRA.POLAR>
0

>  <SCORE.INTRA.POLAR.0>
0

>  <SCORE.INTRA.REPUL>
0

>  <SCORE.INTRA.REPUL.0>
0

>  <SCORE.INTRA.SOLV>
0

>  <SCORE.INTRA.SOLV.lig_0>
-23.9151

>  <SCORE.INTRA.VDW>
0

>  <SCORE.INTRA.VDW.0>
0

>  <SCORE.INTRA.norm>
0

>  <SCORE.RESTR>
0

>  <SCORE.RESTR.CAVITY>
0

>  <SCORE.RESTR.norm>
0

>  <SCORE.SYSTEM>
0

>  <SCORE.SYSTEM.CONST>
0

>  <SCORE.SYSTEM.DIHEDRAL>
0

>  <SCORE.SYSTEM.SOLV>
0

>  <SCORE.SYSTEM.norm>
0

>  <SCORE.heavy>
10

>  <SCORE.norm>
-0.435152

>  <RMSD>
19.885

$$$$
