@<TRIPOS>MOLECULE
4LW0_rdock.pdb
 1913 2142 0 0 0
SMALL
GASTEIGER

@<TRIPOS>ATOM
      1  P         11.2680  -45.3860   25.9470 P.3     1  G1          0.1280
      2  C5'       13.4070  -44.2890   24.8400 C.3     1  G1          0.1795
      3  O5'       11.9870  -44.3380   24.9690 O.3     1  G1         -0.3259
      4  C4'       13.9010  -44.7220   23.4690 C.3     1  G1          0.1772
      5  O4'       13.2810  -45.9770   23.0720 O.3     1  G1         -0.3307
      6  C3'       13.6210  -43.7840   22.3000 C.3     1  G1          0.1860
      7  O3'       14.5300  -42.6960   22.2230 O.3     1  G1         -0.3112
      8  C2'       13.6930  -44.7200   21.0950 C.3     1  G1          0.2309
      9  O2'       15.0390  -44.9870   20.7340 O.3     1  G1         -0.2156
     10  C1'       13.0910  -46.0010   21.6690 C.3     1  G1          0.2408
     11  N1         9.4040  -46.0000   18.1530 N.ar    1  G1         -0.1709
     12  C2        10.7610  -45.8850   17.9800 C.ar    1  G1          0.2606
     13  N2        11.1810  -45.7590   16.7110 N.pl3   1  G1         -0.0859
     14  N3        11.6380  -45.8970   18.9730 N.ar    1  G1         -0.1918
     15  C4        11.0270  -46.0390   20.1690 C.ar    1  G1          0.1723
     16  C5         9.6790  -46.1580   20.4410 C.ar    1  G1          0.1748
     17  C6         8.7530  -46.1350   19.3700 C.ar    1  G1          0.3023
     18  O6         7.5170  -46.2340   19.4120 O.2     1  G1         -0.2633
     19  N7         9.4560  -46.2740   21.8060 N.ar    1  G1         -0.2173
     20  C8        10.6490  -46.2260   22.3320 C.ar    1  G1          0.1817
     21  N9        11.6460  -46.0850   21.3980 N.ar    1  G1         -0.2693
     22  OP1       12.2800  -46.0600   26.8060 O.3     1  G1         -0.1955
     23  OP2       10.0810  -44.7460   26.5840 O.co2   1  G1         -0.7863
     24  P         14.0050  -41.2260   21.8220 P.3     2  G2          0.2141
     25  C5'       14.7150  -41.5420   19.3270 C.3     2  G2          0.1812
     26  O5'       13.6760  -41.3350   20.2690 O.3     2  G2         -0.3114
     27  C4'       14.1790  -41.5330   17.9230 C.3     2  G2          0.1773
     28  O4'       13.3200  -42.6830   17.7220 O.3     2  G2         -0.3307
     29  C3'       13.2930  -40.3540   17.5680 C.3     2  G2          0.1860
     30  O3'       14.0320  -39.1900   17.2460 O.3     2  G2         -0.3112
     31  C2'       12.4650  -40.9020   16.4140 C.3     2  G2          0.2309
     32  O2'       13.2300  -40.9360   15.2200 O.3     2  G2         -0.2156
     33  C1'       12.2490  -42.3390   16.8690 C.3     2  G2          0.2408
     34  N1         7.2150  -42.7820   16.5050 N.ar    2  G2         -0.1709
     35  C2         8.1580  -42.6050   15.5170 C.ar    2  G2          0.2606
     36  N2         7.6900  -42.5410   14.2650 N.pl3   2  G2         -0.0859
     37  N3         9.4610  -42.5000   15.7420 N.ar    2  G2         -0.1918
     38  C4         9.7410  -42.5860   17.0630 C.ar    2  G2          0.1723
     39  C5         8.8830  -42.7560   18.1310 C.ar    2  G2          0.1748
     40  C6         7.4910  -42.8700   17.8730 C.ar    2  G2          0.3023
     41  O6         6.5670  -43.0270   18.6810 O.2     2  G2         -0.2633
     42  N7         9.5850  -42.7860   19.3300 N.ar    2  G2         -0.2173
     43  C8        10.8360  -42.6380   18.9750 C.ar    2  G2          0.1817
     44  N9        10.9910  -42.5060   17.6160 N.ar    2  G2         -0.2693
     45  OP1       15.1400  -40.2730   21.9530 O.2     2  G2         -0.5172
     46  OP2       12.7230  -40.9960   22.5390 O.co2   2  G2         -0.4373
     47  P         13.4130  -37.7310   17.5280 P.3     3  A3          0.2141
     48  C5'       12.4020  -37.3250   15.1470 C.3     3  A3          0.1812
     49  O5'       12.1830  -37.6290   16.5160 O.3     3  A3         -0.3114
     50  C4'       11.1680  -37.5620   14.3100 C.3     3  A3          0.1773
     51  O4'       10.6260  -38.8910   14.5740 O.3     3  A3         -0.3307
     52  C3'        9.9770  -36.6460   14.5560 C.3     3  A3          0.1860
     53  O3'       10.1070  -35.3400   14.0090 O.3     3  A3         -0.3112
     54  C2'        8.8370  -37.4620   13.9650 C.3     3  A3          0.2309
     55  O2'        8.9160  -37.4730   12.5450 O.3     3  A3         -0.2156
     56  C1'        9.2120  -38.8570   14.4590 C.3     3  A3          0.2408
     57  N1         4.8390  -39.9900   16.8810 N.ar    3  A3         -0.2040
     58  C2         5.1550  -39.8350   15.5840 C.ar    3  A3          0.2016
     59  N3         6.3360  -39.5410   15.0390 N.ar    3  A3         -0.2048
     60  C4         7.2840  -39.3940   15.9850 C.ar    3  A3          0.1692
     61  C5         7.1250  -39.5180   17.3540 C.ar    3  A3          0.1518
     62  C6         5.8240  -39.8340   17.8040 C.ar    3  A3          0.1919
     63  N6         5.4990  -39.9960   19.0840 N.pl3   3  A3         -0.1054
     64  N7         8.3370  -39.2990   18.0070 N.ar    3  A3         -0.2193
     65  C8         9.1810  -39.0400   17.0280 C.ar    3  A3          0.1816
     66  N9         8.6090  -39.1030   15.7810 N.ar    3  A3         -0.2693
     67  OP1       14.4700  -36.7760   17.0860 O.2     3  A3         -0.5172
     68  OP2       12.8620  -37.6630   18.9120 O.co2   3  A3         -0.4373
     69  P          9.3800  -34.0960   14.7370 P.3     4  G4          0.2141
     70  C5'        7.3030  -34.4000   13.1610 C.3     4  G4          0.1812
     71  O5'        7.8240  -34.3500   14.4790 O.3     4  G4         -0.3114
     72  C4'        5.8610  -34.8530   13.1300 C.3     4  G4          0.1773
     73  O4'        5.6970  -36.0990   13.8540 O.3     4  G4         -0.3307
     74  C3'        4.8370  -33.9340   13.7710 C.3     4  G4          0.1860
     75  O3'        4.5160  -32.8170   12.9580 O.3     4  G4         -0.3112
     76  C2'        3.6640  -34.8790   14.0050 C.3     4  G4          0.2309
     77  O2'        2.9780  -35.1270   12.7890 O.3     4  G4         -0.2156
     78  C1'        4.3900  -36.1640   14.3960 C.3     4  G4          0.2408
     79  N1         1.9350  -37.5000   18.6680 N.ar    4  G4         -0.1709
     80  C2         1.4710  -37.4330   17.3680 C.ar    4  G4          0.2606
     81  N2         0.1830  -37.7760   17.1820 N.pl3   4  G4         -0.0859
     82  N3         2.2130  -37.0580   16.3320 N.ar    4  G4         -0.1918
     83  C4         3.4780  -36.7570   16.6960 C.ar    4  G4          0.1723
     84  C5         4.0400  -36.7930   17.9550 C.ar    4  G4          0.1748
     85  C6         3.2370  -37.1960   19.0610 C.ar    4  G4          0.3023
     86  O6         3.5610  -37.2920   20.2580 O.2     4  G4         -0.2633
     87  N7         5.3790  -36.4040   17.9050 N.ar    4  G4         -0.2173
     88  C8         5.5960  -36.1470   16.6440 C.ar    4  G4          0.1817
     89  N9         4.4860  -36.3420   15.8590 N.ar    4  G4         -0.2693
     90  OP1        9.7930  -32.8460   14.0450 O.2     4  G4         -0.5172
     91  OP2        9.5890  -34.2200   16.2100 O.co2   4  G4         -0.4373
     92  P          3.8370  -31.5010   13.5930 P.3     5  A5          0.2141
     93  C5'        1.4600  -32.2820   12.7700 C.3     5  A5          0.1812
     94  O5'        2.3170  -31.9230   13.8480 O.3     5  A5         -0.3114
     95  C4'        0.1070  -32.7120   13.2730 C.3     5  A5          0.1773
     96  O4'        0.2620  -33.8660   14.1310 O.3     5  A5         -0.3307
     97  C3'       -0.6180  -31.6830   14.1290 C.3     5  A5          0.1860
     98  O3'       -1.3840  -30.8030   13.3270 O.3     5  A5         -0.3112
     99  C2'       -1.4730  -32.5290   15.0640 C.3     5  A5          0.2309
    100  O2'       -2.6970  -32.8880   14.4410 O.3     5  A5         -0.2156
    101  C1'       -0.6320  -33.7980   15.2150 C.3     5  A5          0.2408
    102  N1        -0.5490  -35.2120   20.1500 N.ar    5  A5         -0.2040
    103  C2        -1.5230  -35.2470   19.2310 C.ar    5  A5          0.2016
    104  N3        -1.4810  -34.8400   17.9640 N.ar    5  A5         -0.2048
    105  C4        -0.2620  -34.3650   17.6590 C.ar    5  A5          0.1692
    106  C5         0.8360  -34.2760   18.4880 C.ar    5  A5          0.1518
    107  C6         0.6640  -34.7230   19.8010 C.ar    5  A5          0.1919
    108  N6         1.6540  -34.6710   20.6910 N.pl3   5  A5         -0.1054
    109  N7         1.9330  -33.7300   17.8440 N.ar    5  A5         -0.2193
    110  C8         1.4780  -33.5090   16.6320 C.ar    5  A5          0.1816
    111  N9         0.1590  -33.8620   16.4570 N.ar    5  A5         -0.2693
    112  OP1        3.8460  -30.4770   12.5220 O.2     5  A5         -0.5172
    113  OP2        4.4780  -31.2180   14.9000 O.co2   5  A5         -0.4373
    114  P         -1.4300  -29.2210   13.6150 P.3     6  G6          0.2141
    115  C5'       -3.6390  -29.4780   14.9980 C.3     6  G6          0.1812
    116  O5'       -2.2750  -29.0900   14.9510 O.3     6  G6         -0.3114
    117  C4'       -4.0740  -29.6530   16.4270 C.3     6  G6          0.1773
    118  O4'       -3.3900  -30.8020   16.9850 O.3     6  G6         -0.3307
    119  C3'       -3.7000  -28.5090   17.3630 C.3     6  G6          0.1860
    120  O3'       -4.6200  -27.4320   17.3190 O.3     6  G6         -0.3112
    121  C2'       -3.6390  -29.1950   18.7190 C.3     6  G6          0.2309
    122  O2'       -4.9500  -29.3910   19.2290 O.3     6  G6         -0.2156
    123  C1'       -3.0580  -30.5630   18.3370 C.3     6  G6          0.2408
    124  N1         0.7580  -31.9230   21.4190 N.ar    6  G6         -0.1709
    125  C2        -0.6080  -32.0750   21.5480 C.ar    6  G6          0.2606
    126  N2        -1.0660  -32.6660   22.6620 N.pl3   6  G6         -0.0859
    127  N3        -1.4900  -31.6620   20.6530 N.ar    6  G6         -0.1918
    128  C4        -0.9040  -31.0940   19.5880 C.ar    6  G6          0.1723
    129  C5         0.4400  -30.8940   19.3460 C.ar    6  G6          0.1748
    130  C6         1.3910  -31.3320   20.3210 C.ar    6  G6          0.3023
    131  O6         2.6360  -31.2470   20.3010 O.2     6  G6         -0.2633
    132  N7         0.6080  -30.2550   18.1160 N.ar    6  G6         -0.2173
    133  C8        -0.6120  -30.0970   17.6510 C.ar    6  G6          0.1817
    134  N9        -1.5840  -30.5940   18.4950 N.ar    6  G6         -0.2693
    135  OP1       -2.2770  -28.6650   12.5240 O.2     6  G6         -0.5172
    136  OP2       -0.0550  -28.6870   13.8660 O.co2   6  G6         -0.4373
    137  P         -4.1280  -25.9160   17.5080 P.3     7  U7          0.2141
    138  C5'       -5.4250  -25.8720   19.7980 C.3     7  U7          0.1812
    139  O5'       -4.2190  -25.6500   19.0830 O.3     7  U7         -0.3114
    140  C4'       -5.3990  -25.2450   21.1740 C.3     7  U7          0.1773
    141  O4'       -4.2240  -25.6790   21.9210 O.3     7  U7         -0.3307
    142  C3'       -5.3210  -23.7260   21.2530 C.3     7  U7          0.1860
    143  O3'       -6.5450  -23.0820   20.9720 O.3     7  U7         -0.3112
    144  C2'       -4.8600  -23.5250   22.6860 C.3     7  U7          0.2309
    145  O2'       -5.9380  -23.7900   23.5710 O.3     7  U7         -0.2156
    146  C1'       -3.8290  -24.6500   22.8120 C.3     7  U7          0.2420
    147  N1        -2.4940  -24.1480   22.4180 N.ar    7  U7         -0.2534
    148  C2        -1.8820  -23.3360   23.3410 C.ar    7  U7          0.3546
    149  O2        -2.3740  -23.0950   24.4340 O.2     7  U7         -0.2443
    150  N3        -0.6660  -22.8450   22.9600 N.ar    7  U7         -0.1530
    151  C4        -0.0240  -23.0440   21.7520 C.ar    7  U7          0.2846
    152  O4         1.0760  -22.5100   21.5830 O.2     7  U7         -0.2650
    153  C5        -0.7310  -23.8750   20.8360 C.ar    7  U7          0.0814
    154  C6        -1.9210  -24.3840   21.1820 C.ar    7  U7          0.0870
    155  OP1       -5.1240  -25.0610   16.8120 O.2     7  U7         -0.5172
    156  OP2       -2.7040  -25.7380   17.1260 O.co2   7  U7         -0.4373
    157  P         -6.5640  -21.5710   20.4280 P.3     8  A8          0.2141
    158  C5'       -6.7260  -20.5810   22.8490 C.3     8  A8          0.1812
    159  O5'       -6.0040  -20.6960   21.6330 O.3     8  A8         -0.3114
    160  C4'       -5.9430  -19.7800   23.8500 C.3     8  A8          0.1773
    161  O4'       -4.6510  -20.3980   24.0680 O.3     8  A8         -0.3307
    162  C3'       -5.6020  -18.3680   23.4190 C.3     8  A8          0.1860
    163  O3'       -6.6700  -17.4700   23.6240 O.3     8  A8         -0.3112
    164  C2'       -4.3700  -18.0460   24.2460 C.3     8  A8          0.2309
    165  O2'       -4.7420  -17.7050   25.5710 O.3     8  A8         -0.2156
    166  C1'       -3.6700  -19.4010   24.2820 C.3     8  A8          0.2408
    167  N1         1.1600  -18.2880   22.8490 N.ar    8  A8         -0.2040
    168  C2         0.4680  -18.0090   23.9630 C.ar    8  A8          0.2016
    169  N3        -0.7870  -18.3240   24.2740 N.ar    8  A8         -0.2048
    170  C4        -1.3600  -19.0160   23.2850 C.ar    8  A8          0.1692
    171  C5        -0.7800  -19.3830   22.0890 C.ar    8  A8          0.1518
    172  C6         0.5480  -18.9910   21.8720 C.ar    8  A8          0.1919
    173  N6         1.2190  -19.3010   20.7490 N.pl3   8  A8         -0.1054
    174  N7        -1.6730  -20.0950   21.3080 N.ar    8  A8         -0.2193
    175  C8        -2.7610  -20.1500   22.0310 C.ar    8  A8          0.1816
    176  N9        -2.6400  -19.5220   23.2400 N.ar    8  A8         -0.2693
    177  OP1       -7.9980  -21.2120   20.2560 O.3     8  A8         -0.4373
    178  OP2       -5.5650  -21.4120   19.3370 O.co2   8  A8         -0.5172
    179  P         -6.9520  -16.3220   22.5470 P.3     9  G9          0.2141
    180  C5'       -5.0290  -14.7670   21.6330 C.3     9  G9          0.1812
    181  O5'       -5.7230  -15.3240   22.7330 O.3     9  G9         -0.3114
    182  C4'       -3.5450  -14.7440   21.8900 C.3     9  G9          0.1773
    183  O4'       -3.0390  -16.1070   21.8590 O.3     9  G9         -0.3307
    184  C3'       -2.7210  -14.0170   20.8390 C.3     9  G9          0.1860
    185  O3'       -2.6480  -12.6220   21.0640 O.3     9  G9         -0.3112
    186  C2'       -1.3740  -14.7140   20.9230 C.3     9  G9          0.2309
    187  O2'       -0.6570  -14.2510   22.0520 O.3     9  G9         -0.2156
    188  C1'       -1.8020  -16.1500   21.1820 C.3     9  G9          0.2408
    189  N1         0.3190  -17.9850   16.8840 N.ar    9  G9         -0.1709
    190  C2         0.9010  -17.2780   17.9050 C.ar    9  G9          0.2606
    191  N2         2.2050  -17.0220   17.7590 N.pl3   9  G9         -0.0859
    192  N3         0.2530  -16.8430   18.9830 N.ar    9  G9         -0.1918
    193  C4        -1.0530  -17.1850   18.9590 C.ar    9  G9          0.1723
    194  C5        -1.7320  -17.8910   17.9880 C.ar    9  G9          0.1748
    195  C6        -1.0240  -18.3510   16.8410 C.ar    9  G9          0.3023
    196  O6        -1.4630  -18.9890   15.8730 O.2     9  G9         -0.2633
    197  N7        -3.0720  -18.0470   18.3260 N.ar    9  G9         -0.2173
    198  C8        -3.1790  -17.4340   19.4750 C.ar    9  G9          0.1817
    199  N9        -1.9970  -16.8920   19.9200 N.ar    9  G9         -0.2693
    200  OP1       -8.1560  -15.5920   23.0300 O.3     9  G9         -0.4373
    201  OP2       -6.9260  -16.9400   21.2000 O.co2   9  G9         -0.5172
    202  P         -2.6620  -11.6090   19.8180 P.3    10  A10         0.2141
    203  C5'       -0.0400  -11.6410   19.8960 C.3    10  A10         0.1812
    204  O5'       -1.2360  -11.8210   19.1480 O.3    10  A10        -0.3114
    205  C4'        1.1580  -11.9260   19.0310 C.3    10  A10         0.1773
    206  O4'        1.2120  -13.3450   18.7200 O.3    10  A10        -0.3307
    207  C3'        1.1140  -11.2540   17.6700 C.3    10  A10         0.1860
    208  O3'        1.5470   -9.9090   17.7140 O.3    10  A10        -0.3112
    209  C2'        1.9940  -12.1560   16.8240 C.3    10  A10         0.2309
    210  O2'        3.3570  -11.8960   17.1240 O.3    10  A10        -0.2156
    211  C1'        1.6370  -13.5280   17.3860 C.3    10  A10         0.2408
    212  N1         0.3460  -16.0820   13.1130 N.ar   10  A10        -0.2040
    213  C2         1.4970  -15.5300   13.5210 C.ar   10  A10         0.2016
    214  N3         1.7500  -14.8770   14.6530 N.ar   10  A10        -0.2048
    215  C4         0.6530  -14.8050   15.4210 C.ar   10  A10         0.1692
    216  C5        -0.6010  -15.3160   15.1400 C.ar   10  A10         0.1518
    217  C6        -0.7470  -15.9900   13.9080 C.ar   10  A10         0.1919
    218  N6        -1.8870  -16.5540   13.4810 N.pl3  10  A10        -0.1054
    219  N7        -1.4830  -15.0380   16.1840 N.ar   10  A10        -0.2193
    220  C8        -0.7530  -14.3730   17.0520 C.ar   10  A10         0.1816
    221  N9         0.5490  -14.1910   16.6480 N.ar   10  A10        -0.2693
    222  OP1       -2.7060  -10.2180   20.3570 O.3    10  A10        -0.4373
    223  OP2       -3.6870  -12.1170   18.8760 O.co2  10  A10        -0.5172
    224  P          0.8360   -8.8240   16.7700 P.3    11  U11         0.2141
    225  C5'        2.8410   -8.9280   15.1010 C.3    11  U11         0.1812
    226  O5'        1.4570   -9.1140   15.3370 O.3    11  U11        -0.3114
    227  C4'        3.2180   -9.4630   13.7490 C.3    11  U11         0.1773
    228  O4'        2.9810  -10.8940   13.7120 O.3    11  U11        -0.3307
    229  C3'        2.3980   -8.9390   12.5880 C.3    11  U11         0.1860
    230  O3'        2.7910   -7.6480   12.1650 O.3    11  U11        -0.3112
    231  C2'        2.5920  -10.0230   11.5430 C.3    11  U11         0.2309
    232  O2'        3.8830   -9.9190   10.9640 O.3    11  U11        -0.2156
    233  C1'        2.5620  -11.2770   12.4190 C.3    11  U11         0.2420
    234  N1         1.1980  -11.8400   12.5100 N.ar   11  U11        -0.2534
    235  C2         0.7780  -12.5790   11.4460 C.ar   11  U11         0.3546
    236  O2         1.4910  -12.7830   10.4840 O.2    11  U11        -0.2443
    237  N3        -0.4910  -13.0750   11.5440 N.ar   11  U11        -0.1530
    238  C4        -1.3700  -12.8960   12.5810 C.ar   11  U11         0.2846
    239  O4        -2.4830  -13.4210   12.5200 O.2    11  U11        -0.2650
    240  C5        -0.8640  -12.1040   13.6520 C.ar   11  U11         0.0814
    241  C6         0.3720  -11.6110   13.5820 C.ar   11  U11         0.0870
    242  OP1        1.3060   -7.5090   17.2620 O.3    11  U11        -0.4373
    243  OP2       -0.6120   -9.1700   16.6150 O.co2  11  U11        -0.5172
    244  P          1.6840   -6.6160   11.6290 P.3    12  G12         0.2141
    245  C5'        2.3960   -7.2330    9.1790 C.3    12  G12         0.1812
    246  O5'        1.3680   -7.1150   10.1480 O.3    12  G12        -0.3114
    247  C4'        1.9550   -8.0640    8.0040 C.3    12  G12         0.1773
    248  O4'        1.6390   -9.4070    8.4400 O.3    12  G12        -0.3307
    249  C3'        0.6920   -7.6120    7.2940 C.3    12  G12         0.1860
    250  O3'        0.9150   -6.5290    6.4110 O.3    12  G12        -0.3112
    251  C2'        0.2360   -8.8850    6.5940 C.3    12  G12         0.2309
    252  O2'        0.9950   -9.1030    5.4140 O.3    12  G12        -0.2156
    253  C1'        0.6210   -9.9490    7.6240 C.3    12  G12         0.2408
    254  N1        -3.6580  -12.6550    7.9410 N.ar   12  G12        -0.1709
    255  C2        -2.7820  -12.5190    6.8940 C.ar   12  G12         0.2606
    256  N2        -3.0990  -13.2070    5.7900 N.pl3  12  G12        -0.0859
    257  N3        -1.6900  -11.7750    6.9340 N.ar   12  G12        -0.1918
    258  C4        -1.5430  -11.1690    8.1300 C.ar   12  G12         0.1723
    259  C5        -2.3560  -11.2340    9.2450 C.ar   12  G12         0.1748
    260  C6        -3.5300  -12.0420    9.1870 C.ar   12  G12         0.3023
    261  O6        -4.3960  -12.2530   10.0510 O.2    12  G12        -0.2633
    262  N7        -1.8370  -10.4480   10.2700 N.ar   12  G12        -0.2173
    263  C8        -0.7480   -9.9300    9.7710 C.ar   12  G12         0.1817
    264  N9        -0.5150  -10.3330    8.4790 N.ar   12  G12        -0.2693
    265  OP1        2.3290   -5.2780   11.6250 O.2    12  G12        -0.5172
    266  OP2        0.4180   -6.8360   12.3820 O.co2  12  G12        -0.4373
    267  P         -0.2910   -5.5420    6.0270 P.3    13  A13         0.2141
    268  C5'       -0.6570   -6.8510    3.7820 C.3    13  A13         0.1812
    269  O5'       -1.1890   -6.3940    5.0200 O.3    13  A13        -0.3114
    270  C4'       -1.6210   -7.7550    3.0510 C.3    13  A13         0.1773
    271  O4'       -1.7760   -9.0090    3.7700 O.3    13  A13        -0.3307
    272  C3'       -3.0420   -7.2350    2.9040 C.3    13  A13         0.1860
    273  O3'       -3.1840   -6.3010    1.8430 O.3    13  A13        -0.3112
    274  C2'       -3.8480   -8.5180    2.7190 C.3    13  A13         0.2309
    275  O2'       -3.7220   -9.0120    1.3930 O.3    13  A13        -0.2156
    276  C1'       -3.1090   -9.4730    3.6550 C.3    13  A13         0.2408
    277  N1        -6.8800  -11.2150    6.7860 N.ar   13  A13        -0.2040
    278  C2        -6.6430  -11.4160    5.4810 C.ar   13  A13         0.2016
    279  N3        -5.6570  -10.9450    4.7190 N.ar   13  A13        -0.2048
    280  C4        -4.8310  -10.1670    5.4380 C.ar   13  A13         0.1692
    281  C5        -4.9420   -9.8730    6.7890 C.ar   13  A13         0.1518
    282  C6        -6.0260  -10.4330    7.4840 C.ar   13  A13         0.1919
    283  N6        -6.2430  -10.2250    8.7860 N.pl3  13  A13        -0.1054
    284  N7        -3.9140   -9.0420    7.2080 N.ar   13  A13        -0.2193
    285  C8        -3.2140   -8.8510    6.1170 C.ar   13  A13         0.1816
    286  N9        -3.7040   -9.4990    5.0080 N.ar   13  A13        -0.2693
    287  OP1        0.3170   -4.4030    5.2880 O.2    13  A13        -0.5172
    288  OP2       -1.0820   -5.2860    7.2560 O.co2  13  A13        -0.4373
    289  P         -4.2370   -5.0870    1.9570 P.3    14  U14         0.2141
    290  C5'       -5.8940   -6.5780    0.5830 C.3    14  U14         0.1812
    291  O5'       -5.6500   -5.7960    1.7410 O.3    14  U14        -0.3114
    292  C4'       -7.1570   -7.3930    0.7100 C.3    14  U14         0.1773
    293  O4'       -6.9870   -8.4420    1.7020 O.3    14  U14        -0.3307
    294  C3'       -8.3930   -6.6430    1.1790 C.3    14  U14         0.1860
    295  O3'       -9.0120   -5.9040    0.1440 O.3    14  U14        -0.3112
    296  C2'       -9.2600   -7.7610    1.7410 C.3    14  U14         0.2309
    297  O2'       -9.8850   -8.4980    0.7010 O.3    14  U14        -0.2156
    298  C1'       -8.2050   -8.6540    2.3900 C.3    14  U14         0.2420
    299  N1        -8.0130   -8.3120    3.8200 N.ar   14  U14        -0.2534
    300  C2        -8.9950   -8.7200    4.6990 C.ar   14  U14         0.3546
    301  O2        -9.9810   -9.3460    4.3450 O.2    14  U14        -0.2443
    302  N3        -8.7820   -8.3700    6.0130 N.ar   14  U14        -0.1530
    303  C4        -7.7080   -7.6750    6.5250 C.ar   14  U14         0.2846
    304  O4        -7.6640   -7.4490    7.7350 O.2    14  U14        -0.2650
    305  C5        -6.7360   -7.2770    5.5540 C.ar   14  U14         0.0814
    306  C6        -6.9200   -7.5990    4.2660 C.ar   14  U14         0.0870
    307  OP1       -3.9760   -4.1620    0.8230 O.2    14  U14        -0.5172
    308  OP2       -4.1880   -4.5260    3.3320 O.co2  14  U14        -0.4373
    309  P         -9.8060   -4.5480    0.4730 P.3    15  U15         0.2141
    310  C5'      -12.0830   -5.8140    0.5900 C.3    15  U15         0.1812
    311  O5'      -11.1040   -5.0340    1.2510 O.3    15  U15        -0.3114
    312  C4'      -13.0780   -6.3920    1.5600 C.3    15  U15         0.1773
    313  O4'      -12.3910   -7.1880    2.5620 O.3    15  U15        -0.3307
    314  C3'      -13.8860   -5.3970    2.3790 C.3    15  U15         0.1860
    315  O3'      -14.9670   -4.8320    1.6570 O.3    15  U15        -0.3112
    316  C2'      -14.3280   -6.2430    3.5650 C.3    15  U15         0.2309
    317  O2'      -15.3980   -7.0960    3.1880 O.3    15  U15        -0.2156
    318  C1'      -13.0910   -7.1160    3.7900 C.3    15  U15         0.2420
    319  N1       -12.1860   -6.5670    4.8290 N.ar   15  U15        -0.2534
    320  C2       -12.5260   -6.7600    6.1530 C.ar   15  U15         0.3546
    321  O2       -13.5360   -7.3500    6.4990 O.2    15  U15        -0.2443
    322  N3       -11.6390   -6.2330    7.0610 N.ar   15  U15        -0.1530
    323  C4       -10.4710   -5.5600    6.7800 C.ar   15  U15         0.2846
    324  O4        -9.7650   -5.1410    7.6960 O.2    15  U15        -0.2650
    325  C5       -10.1900   -5.4020    5.3860 C.ar   15  U15         0.0814
    326  C6       -11.0360   -5.9000    4.4870 C.ar   15  U15         0.0870
    327  OP1      -10.2640   -4.0190   -0.8430 O.2    15  U15        -0.5172
    328  OP2       -8.9910   -3.6800    1.3710 O.co2  15  U15        -0.4373
    329  P        -15.4620   -3.3290    1.9580 P.3    16  C16         0.2141
    330  C5'      -17.4800   -4.1930    3.3790 C.3    16  C16         0.1812
    331  O5'      -16.2690   -3.4550    3.3250 O.3    16  C16        -0.3114
    332  C4'      -17.8950   -4.4940    4.8000 C.3    16  C16         0.1773
    333  O4'      -16.8610   -5.2590    5.4740 O.3    16  C16        -0.3307
    334  C3'      -18.1170   -3.2990    5.7150 C.3    16  C16         0.1860
    335  O3'      -19.3690   -2.6720    5.5100 O.3    16  C16        -0.3112
    336  C2'      -17.9570   -3.9170    7.0970 C.3    16  C16         0.2309
    337  O2'      -19.1190   -4.6510    7.4530 O.3    16  C16        -0.2156
    338  C1'      -16.8290   -4.9160    6.8460 C.3    16  C16         0.2420
    339  N1       -15.5010   -4.3390    7.1530 N.ar   16  C16        -0.2535
    340  C2       -15.0490   -4.3160    8.4760 C.ar   16  C16         0.3532
    341  O2       -15.7800   -4.7840    9.3650 O.2    16  C16        -0.2443
    342  N3       -13.8290   -3.7860    8.7380 N.ar   16  C16        -0.1739
    343  C4       -13.0800   -3.2930    7.7440 C.ar   16  C16         0.1759
    344  N4       -11.8830   -2.7690    8.0240 N.pl3  16  C16        -0.1070
    345  C5       -13.5210   -3.3010    6.3940 C.ar   16  C16         0.0566
    346  C6       -14.7230   -3.8290    6.1540 C.ar   16  C16         0.0850
    347  OP1      -16.4590   -2.9640    0.9130 O.2    16  C16        -0.5172
    348  OP2      -14.2620   -2.4650    2.1470 O.co2  16  C16        -0.4373
    349  P        -19.5810   -1.1300    5.9060 P.3    17  G17         0.2141
    350  C5'      -18.9380   -0.2280    8.2860 C.3    17  G17         0.1812
    351  O5'      -19.6440   -1.1700    7.4940 O.3    17  G17        -0.3114
    352  C4'      -18.6970   -0.7830    9.6650 C.3    17  G17         0.1773
    353  O4'      -17.5370   -1.6560    9.6510 O.3    17  G17        -0.3307
    354  C3'      -18.3900    0.2280   10.7540 C.3    17  G17         0.1860
    355  O3'      -19.5730    0.8070   11.2770 O.3    17  G17        -0.3112
    356  C2'      -17.6310   -0.6090   11.7760 C.3    17  G17         0.2309
    357  O2'      -18.5330   -1.3900   12.5430 O.3    17  G17        -0.2156
    358  C1'      -16.8400   -1.5530   10.8710 C.3    17  G17         0.2408
    359  N1       -12.3510   -0.3270   12.8510 N.ar   17  G17        -0.1709
    360  C2       -13.4750   -0.7900   13.4780 C.ar   17  G17         0.2606
    361  N2       -13.4000   -0.9560   14.8060 N.pl3  17  G17        -0.0859
    362  N3       -14.5960   -1.0820   12.8400 N.ar   17  G17        -0.1918
    363  C4       -14.4910   -0.8540   11.5080 C.ar   17  G17         0.1723
    364  C5       -13.4150   -0.4010   10.7790 C.ar   17  G17         0.1748
    365  C6       -12.2180   -0.1050   11.4750 C.ar   17  G17         0.3023
    366  O6       -11.1530    0.3210   11.0020 O.2    17  G17        -0.2633
    367  N7       -13.7200   -0.3100    9.4200 N.ar   17  G17        -0.2173
    368  C8       -14.9620   -0.7110    9.3540 C.ar   17  G17         0.1817
    369  N9       -15.4840   -1.0480   10.5840 N.ar   17  G17        -0.2693
    370  OP1      -20.9270   -0.7300    5.4250 O.2    17  G17        -0.5172
    371  OP2      -18.3900   -0.3420    5.5030 O.co2  17  G17        -0.4373
    372  P        -19.6170    2.3460   11.7200 P.3    18  C18         0.2141
    373  C5'      -19.0760    1.7340   14.2200 C.3    18  C18         0.1812
    374  O5'      -18.7060    2.4090   13.0270 O.3    18  C18        -0.3114
    375  C4'      -17.9910    1.8590   15.2590 C.3    18  C18         0.1773
    376  O4'      -16.8070    1.1450   14.8120 O.3    18  C18        -0.3307
    377  C3'      -17.4840    3.2700   15.5200 C.3    18  C18         0.1860
    378  O3'      -18.3220    4.0060   16.3960 O.3    18  C18        -0.3112
    379  C2'      -16.0940    3.0180   16.0830 C.3    18  C18         0.2309
    380  O2'      -16.2030    2.5840   17.4340 O.3    18  C18        -0.2156
    381  C1'      -15.6430    1.8280   15.2330 C.3    18  C18         0.2420
    382  N1       -14.8760    2.2300   14.0210 N.ar   18  C18        -0.2535
    383  C2       -13.5270    2.5910   14.1300 C.ar   18  C18         0.3532
    384  O2       -12.9890    2.6010   15.2480 O.2    18  C18        -0.2443
    385  N3       -12.8410    2.9410   13.0170 N.ar   18  C18        -0.1739
    386  C4       -13.4500    2.9460   11.8290 C.ar   18  C18         0.1759
    387  N4       -12.7220    3.2880   10.7670 N.pl3  18  C18        -0.1070
    388  C5       -14.8170    2.5750   11.6750 C.ar   18  C18         0.0566
    389  C6       -15.4770    2.2270   12.7880 C.ar   18  C18         0.0850
    390  OP1      -21.0180    2.6220   12.1390 O.3    18  C18        -0.4373
    391  OP2      -18.9590    3.1690   10.6660 O.co2  18  C18        -0.5172
    392  P        -18.4640    5.5940   16.2150 P.3    19  G19         0.2141
    393  C5'      -16.6180    6.0200   18.0210 C.3    19  G19         0.1812
    394  O5'      -17.0630    6.1760   16.6860 O.3    19  G19        -0.3114
    395  C4'      -15.1820    6.4380   18.1390 C.3    19  G19         0.1773
    396  O4'      -14.3570    5.6050   17.2840 O.3    19  G19        -0.3307
    397  C3'      -14.8830    7.8430   17.6590 C.3    19  G19         0.1860
    398  O3'      -15.1980    8.8160   18.6290 O.3    19  G19        -0.3112
    399  C2'      -13.4000    7.7720   17.3450 C.3    19  G19         0.2309
    400  O2'      -12.6680    7.7810   18.5630 O.3    19  G19        -0.2156
    401  C1'      -13.2910    6.3720   16.7600 C.3    19  G19         0.2408
    402  N1       -10.7640    7.1560   12.4270 N.ar   19  G19        -0.1709
    403  C2       -10.3650    7.3820   13.7250 C.ar   19  G19         0.2606
    404  N2        -9.1230    7.8680   13.9060 N.pl3  19  G19        -0.0859
    405  N3       -11.1300    7.1480   14.7780 N.ar   19  G19        -0.1918
    406  C4       -12.3360    6.6680   14.4230 C.ar   19  G19         0.1723
    407  C5       -12.8310    6.4250   13.1620 C.ar   19  G19         0.1748
    408  C6       -12.0120    6.6730   12.0410 C.ar   19  G19         0.3023
    409  O6       -12.2910    6.4900   10.8420 O.2    19  G19        -0.2633
    410  N7       -14.1270    5.9290   13.2230 N.ar   19  G19        -0.2173
    411  C8       -14.3860    5.8850   14.5060 C.ar   19  G19         0.1817
    412  N9       -13.3510    6.3320   15.2860 N.ar   19  G19        -0.2693
    413  OP1      -19.4730    6.0630   17.2070 O.3    19  G19        -0.4373
    414  OP2      -18.5770    5.9010   14.7700 O.co2  19  G19        -0.5172
    415  P        -15.8190   10.2230   18.1690 P.3    20  U20         0.2141
    416  C5'      -13.4260   11.2830   18.1490 C.3    20  U20         0.1812
    417  O5'      -14.6110   10.9650   17.4370 O.3    20  U20        -0.3114
    418  C4'      -12.3230   11.7290   17.2230 C.3    20  U20         0.1773
    419  O4'      -11.9120   10.6280   16.3710 O.3    20  U20        -0.3307
    420  C3'      -12.6640   12.8390   16.2380 C.3    20  U20         0.1860
    421  O3'      -12.6200   14.1220   16.8330 O.3    20  U20        -0.3112
    422  C2'      -11.6030   12.6460   15.1680 C.3    20  U20         0.2309
    423  O2'      -10.3540   13.1210   15.6420 O.3    20  U20        -0.2156
    424  C1'      -11.5040   11.1230   15.1170 C.3    20  U20         0.2420
    425  N1       -12.3620   10.5270   14.0820 N.ar   20  U20        -0.2534
    426  C2       -11.8270   10.4340   12.8140 C.ar   20  U20         0.3546
    427  O2       -10.7150   10.8410   12.5320 O.2    20  U20        -0.2443
    428  N3       -12.6450    9.8470   11.8870 N.ar   20  U20        -0.1530
    429  C4       -13.9180    9.3480   12.1010 C.ar   20  U20         0.2846
    430  O4       -14.5270    8.8390   11.1600 O.2    20  U20        -0.2650
    431  C5       -14.3960    9.4680   13.4440 C.ar   20  U20         0.0814
    432  C6       -13.6150   10.0400   14.3690 C.ar   20  U20         0.0870
    433  OP1      -16.1170   10.9310   19.4450 O.3    20  U20        -0.4373
    434  OP2      -16.8520    9.9930   17.1330 O.co2  20  U20        -0.5172
    435  P        -13.7380   15.2230   16.4950 P.3    21  U21         0.2141
    436  C5'      -14.0510   16.1960   18.9250 C.3    21  U21         0.1812
    437  O5'      -14.5490   15.4010   17.8530 O.3    21  U21        -0.3114
    438  C4'      -14.8820   15.9740   20.1640 C.3    21  U21         0.1773
    439  O4'      -16.2430   16.4290   19.9020 O.3    21  U21        -0.3307
    440  C3'      -15.0010   14.5090   20.5720 C.3    21  U21         0.1860
    441  O3'      -15.1310   14.4060   21.9910 O.3    21  U21        -0.3112
    442  C2'      -16.3040   14.0870   19.9010 C.3    21  U21         0.2309
    443  O2'      -16.9270   12.9540   20.4600 O.3    21  U21        -0.2156
    444  C1'      -17.1460   15.3520   20.0570 C.3    21  U21         0.2420
    445  N1       -18.1990   15.4770   19.0420 N.ar   21  U21        -0.2534
    446  C2       -19.5110   15.4510   19.4660 C.ar   21  U21         0.3546
    447  O2       -19.8160   15.3540   20.6430 O.2    21  U21        -0.2443
    448  N3       -20.4450   15.5480   18.4620 N.ar   21  U21        -0.1530
    449  C4       -20.2030   15.6680   17.1080 C.ar   21  U21         0.2846
    450  O4       -21.1410   15.7430   16.3130 O.2    21  U21        -0.2650
    451  C5       -18.8200   15.6770   16.7520 C.ar   21  U21         0.0814
    452  C6       -17.8900   15.5780   17.7080 C.ar   21  U21         0.0870
    453  OP1      -14.7190   14.7020   15.5130 O.2    21  U21        -0.5172
    454  OP2      -12.9590   16.4540   16.2690 O.co2  21  U21        -0.4373
    455  P        -13.8180   14.2960   22.9110 P.3    22  A22         0.2141
    456  C5'      -13.7830   11.7440   22.2880 C.3    22  A22         0.1812
    457  O5'      -13.0900   12.9800   22.3890 O.3    22  A22        -0.3114
    458  C4'      -12.8280   10.5790   22.3070 C.3    22  A22         0.1773
    459  O4'      -12.0950   10.5200   21.0470 O.3    22  A22        -0.3307
    460  C3'      -11.7670   10.6000   23.4180 C.3    22  A22         0.1860
    461  O3'      -11.5660    9.2610   23.8760 O.3    22  A22        -0.3112
    462  C2'      -10.5140   11.0470   22.6680 C.3    22  A22         0.2309
    463  O2'       -9.2980   10.6490   23.2570 O.3    22  A22        -0.2156
    464  C1'      -10.7250   10.3580   21.3290 C.3    22  A22         0.2408
    465  N1        -8.9290    9.1790   16.6830 N.ar   22  A22        -0.2040
    466  C2        -9.7690    8.5550   17.5140 C.ar   22  A22         0.2016
    467  N3       -10.1880    8.9390   18.7140 N.ar   22  A22        -0.2048
    468  C4        -9.6540   10.1300   19.0580 C.ar   22  A22         0.1692
    469  C5        -8.7790   10.8950   18.3090 C.ar   22  A22         0.1518
    470  C6        -8.4080   10.3640   17.0530 C.ar   22  A22         0.1919
    471  N6        -7.5730   10.9620   16.2080 N.pl3  22  A22        -0.1054
    472  N7        -8.4440   12.0670   18.9950 N.ar   22  A22        -0.2193
    473  C8        -9.1180   11.9770   20.1260 C.ar   22  A22         0.1816
    474  N9        -9.8860   10.8370   20.2190 N.ar   22  A22        -0.2693
    475  OP1      -14.2320   14.0740   24.3210 O.3    22  A22        -0.4373
    476  OP2      -12.8970   15.4090   22.5950 O.co2  22  A22        -0.5172
    477  P        -11.1830    8.9400   25.4090 P.3    23  A23         0.2141
    478  C5'      -12.7340    6.8860   25.8660 C.3    23  A23         0.1812
    479  O5'      -11.4510    7.3750   25.5340 O.3    23  A23        -0.3114
    480  C4'      -13.2600    5.9810   24.7960 C.3    23  A23         0.1773
    481  O4'      -13.2010    6.6480   23.5100 O.3    23  A23        -0.3307
    482  C3'      -12.4930    4.6930   24.5470 C.3    23  A23         0.1860
    483  O3'      -12.7250    3.6910   25.5170 O.3    23  A23        -0.3112
    484  C2'      -12.9870    4.3070   23.1670 C.3    23  A23         0.2309
    485  O2'      -14.3100    3.8020   23.2550 O.3    23  A23        -0.2156
    486  C1'      -13.0430    5.6730   22.4900 C.3    23  A23         0.2408
    487  N1       -10.4120    4.4730   18.2530 N.ar   23  A23        -0.2040
    488  C2       -11.5910    4.0490   18.7490 C.ar   23  A23         0.2016
    489  N3       -12.2080    4.4140   19.8760 N.ar   23  A23        -0.2048
    490  C4       -11.4840    5.3270   20.5410 C.ar   23  A23         0.1692
    491  C5       -10.2620    5.8530   20.1650 C.ar   23  A23         0.1518
    492  C6        -9.7060    5.3900   18.9550 C.ar   23  A23         0.1919
    493  N6        -8.5320    5.8230   18.4820 N.pl3  23  A23        -0.1054
    494  N7        -9.8190    6.7620   21.1030 N.ar   23  A23        -0.2193
    495  C8       -10.7660    6.7770   22.0160 C.ar   23  A23         0.1816
    496  N9       -11.8070    5.9410   21.7240 N.ar   23  A23        -0.2693
    497  OP1      -12.1450    9.7240   26.2200 O.3    23  A23        -0.4373
    498  OP2       -9.7100    9.0390   25.6180 O.co2  23  A23        -0.5172
    499  P        -11.4940    2.8470   26.1210 P.3    24  G24         0.2141
    500  C5'      -11.5560    1.1030   24.1440 C.3    24  G24         0.1812
    501  O5'      -10.8560    2.1070   24.8580 O.3    24  G24        -0.3114
    502  C4'      -10.9270    0.8530   22.7890 C.3    24  G24         0.1773
    503  O4'      -10.8280    2.1070   22.0490 O.3    24  G24        -0.3307
    504  C3'       -9.5020    0.3240   22.7920 C.3    24  G24         0.1860
    505  O3'       -9.4210   -1.0720   23.0140 O.3    24  G24        -0.3112
    506  C2'       -9.0010    0.7330   21.4120 C.3    24  G24         0.2309
    507  O2'       -9.5190   -0.1390   20.4260 O.3    24  G24        -0.2156
    508  C1'       -9.6610    2.1030   21.2500 C.3    24  G24         0.2408
    509  N1        -5.5660    4.9130   20.1820 N.ar   24  G24        -0.1709
    510  C2        -6.1770    3.9580   19.4130 C.ar   24  G24         0.2606
    511  N2        -5.6150    3.7480   18.2100 N.pl3  24  G24        -0.0859
    512  N3        -7.2630    3.2910   19.7910 N.ar   24  G24        -0.1918
    513  C4        -7.6680    3.6630   21.0380 C.ar   24  G24         0.1723
    514  C5        -7.1240    4.6120   21.8810 C.ar   24  G24         0.1748
    515  C6        -5.9710    5.3200   21.4510 C.ar   24  G24         0.3023
    516  O6        -5.3250    6.1980   22.0390 O.2    24  G24        -0.2633
    517  N7        -7.8490    4.7000   23.0680 N.ar   24  G24        -0.2173
    518  C8        -8.7960    3.8140   22.9310 C.ar   24  G24         0.1817
    519  N9        -8.7530    3.1660   21.7220 N.ar   24  G24        -0.2693
    520  OP1      -12.0670    1.8240   27.0400 O.3    24  G24        -0.4373
    521  OP2      -10.4620    3.7910   26.5870 O.co2  24  G24        -0.5172
    522  P         -8.1910   -1.6840   23.8490 P.3    25  U25         0.2141
    523  C5'       -6.5550   -1.8150   21.8000 C.3    25  U25         0.1812
    524  O5'       -6.8880   -1.2390   23.0500 O.3    25  U25        -0.3114
    525  C4'       -5.3220   -1.1630   21.2340 C.3    25  U25         0.1773
    526  O4'       -5.5630    0.2570   20.9930 O.3    25  U25        -0.3307
    527  C3'       -4.0950   -1.1720   22.1340 C.3    25  U25         0.1860
    528  O3'       -3.4120   -2.4160   22.1400 O.3    25  U25        -0.3112
    529  C2'       -3.2760   -0.0310   21.5550 C.3    25  U25         0.2309
    530  O2'       -2.6760   -0.4500   20.3400 O.3    25  U25        -0.2156
    531  C1'       -4.3750    0.9860   21.2280 C.3    25  U25         0.2420
    532  N1        -4.6050    1.9120   22.3590 N.ar   25  U25        -0.2534
    533  C2        -3.7080    2.9490   22.5040 C.ar   25  U25         0.3546
    534  O2        -2.7840    3.1230   21.7260 O.2    25  U25        -0.2443
    535  N3        -3.9380    3.7840   23.5720 N.ar   25  U25        -0.1530
    536  C4        -4.9490    3.6700   24.5030 C.ar   25  U25         0.2846
    537  O4        -5.0160    4.5010   25.4120 O.2    25  U25        -0.2650
    538  C5        -5.8270    2.5530   24.3040 C.ar   25  U25         0.0814
    539  C6        -5.6350    1.7290   23.2630 C.ar   25  U25         0.0870
    540  OP1       -8.3530   -3.1700   23.8090 O.2    25  U25        -0.5172
    541  OP2       -8.0560   -0.9810   25.1370 O.co2  25  U25        -0.4373
    542  P         -2.7580   -2.9860   23.5020 P.3    26  G26         0.2141
    543  C5'       -0.4870   -1.9220   22.7720 C.3    26  G26         0.1812
    544  O5'       -1.5010   -2.0520   23.7510 O.3    26  G26        -0.3114
    545  C4'        0.4850   -0.8470   23.1560 C.3    26  G26         0.1773
    546  O4'       -0.1220    0.4640   22.9690 O.3    26  G26        -0.3307
    547  C3'        0.9160   -0.8400   24.6130 C.3    26  G26         0.1860
    548  O3'        1.8900   -1.8280   24.9230 O.3    26  G26        -0.3112
    549  C2'        1.3850    0.5950   24.7870 C.3    26  G26         0.2309
    550  O2'        2.6430    0.7890   24.1550 O.3    26  G26        -0.2156
    551  C1'        0.3210    1.3420   23.9780 C.3    26  G26         0.2408
    552  N1        -1.1520    4.4930   27.5870 N.ar   26  G26        -0.1709
    553  C2         0.0210    4.4210   26.8720 C.ar   26  G26         0.2606
    554  N2         0.9520    5.3300   27.1820 N.pl3  26  G26        -0.0859
    555  N3         0.2620    3.5240   25.9270 N.ar   26  G26        -0.1918
    556  C4        -0.7870    2.7060   25.7530 C.ar   26  G26         0.1723
    557  C5        -1.9970    2.6820   26.4070 C.ar   26  G26         0.1748
    558  C6        -2.2450    3.6450   27.4220 C.ar   26  G26         0.3023
    559  O6        -3.2680    3.8080   28.1100 O.2    26  G26        -0.2633
    560  N7        -2.7920    1.6590   25.9190 N.ar   26  G26        -0.2173
    561  C8        -2.0450    1.0800   24.9940 C.ar   26  G26         0.1817
    562  N9        -0.8210    1.6860   24.8440 N.ar   26  G26        -0.2693
    563  OP1       -2.3130   -4.3730   23.2250 O.2    26  G26        -0.5172
    564  OP2       -3.6900   -2.7440   24.6350 O.co2  26  G26        -0.4373
    565  P          1.9760   -2.4730   26.4090 P.3    27  U27         0.2141
    566  C5'        3.6120   -0.5870   27.2100 C.3    27  U27         0.1812
    567  O5'        2.3630   -1.2420   27.3290 O.3    27  U27        -0.3114
    568  C4'        3.7990    0.4450   28.2910 C.3    27  U27         0.1773
    569  O4'        2.8440    1.5330   28.1370 O.3    27  U27        -0.3307
    570  C3'        3.5750   -0.0230   29.7170 C.3    27  U27         0.1860
    571  O3'        4.6530   -0.7900   30.2300 O.3    27  U27        -0.3112
    572  C2'        3.3400    1.2920   30.4420 C.3    27  U27         0.2309
    573  O2'        4.5580    2.0010   30.5880 O.3    27  U27        -0.2156
    574  C1'        2.5020    2.0480   29.4110 C.3    27  U27         0.2420
    575  N1         1.0500    1.8600   29.6460 N.ar   27  U27        -0.2534
    576  C2         0.5060    2.5070   30.7360 C.ar   27  U27         0.3546
    577  O2         1.1560    3.2190   31.4840 O.2    27  U27        -0.2443
    578  N3        -0.8330    2.2840   30.9330 N.ar   27  U27        -0.1530
    579  C4        -1.6620    1.5240   30.1520 C.ar   27  U27         0.2846
    580  O4        -2.8400    1.4490   30.4720 O.2    27  U27        -0.2650
    581  C5        -1.0350    0.8740   29.0420 C.ar   27  U27         0.0814
    582  C6         0.2730    1.0540   28.8450 C.ar   27  U27         0.0870
    583  OP1        3.0740   -3.4750   26.3830 O.2    27  U27        -0.5172
    584  OP2        0.6310   -2.9500   26.8400 O.co2  27  U27        -0.4373
    585  P          4.3990   -1.9420   31.3260 P.3    28  G28         0.2141
    586  C5'        5.0800   -0.2580   33.2040 C.3    28  G28         0.1812
    587  O5'        4.0990   -1.1210   32.6510 O.3    28  G28        -0.3114
    588  C4'        4.5780    0.3960   34.4600 C.3    28  G28         0.1773
    589  O4'        3.5080    1.3210   34.1400 O.3    28  G28        -0.3307
    590  C3'        3.9580   -0.5360   35.4820 C.3    28  G28         0.1860
    591  O3'        4.9240   -1.2040   36.2670 O.3    28  G28        -0.3112
    592  C2'        3.0610    0.3970   36.2770 C.3    28  G28         0.2309
    593  O2'        3.8300    1.1980   37.1620 O.3    28  G28        -0.2156
    594  C1'        2.5420    1.3110   35.1700 C.3    28  G28         0.2408
    595  N1        -2.4660    1.0640   35.8890 N.ar   28  G28        -0.1709
    596  C2        -1.5020    1.5940   36.6990 C.ar   28  G28         0.2606
    597  N2        -1.9260    2.1380   37.8560 N.pl3  28  G28        -0.0859
    598  N3        -0.2170    1.5860   36.4020 N.ar   28  G28        -0.1918
    599  C4         0.0250    1.0010   35.2070 C.ar   28  G28         0.1723
    600  C5        -0.8690    0.4430   34.3220 C.ar   28  G28         0.1748
    601  C6        -2.2460    0.4560   34.6530 C.ar   28  G28         0.3023
    602  O6        -3.1990    0.0080   33.9940 O.2    28  G28        -0.2633
    603  N7        -0.2160   -0.0650   33.2040 N.ar   28  G28        -0.2173
    604  C8         1.0440    0.2070   33.4210 C.ar   28  G28         0.1817
    605  N9         1.2570    0.8450   34.6170 N.ar   28  G28        -0.2693
    606  OP1        5.6860   -2.6710   31.4830 O.3    28  G28        -0.4373
    607  OP2        3.2000   -2.7810   31.0570 O.co2  28  G28        -0.5172
    608  P          4.6310   -2.6750   36.8040 P.3    29  U29         0.2141
    609  C5'        3.9810   -1.8200   39.1770 C.3    29  U29         0.1812
    610  O5'        3.5760   -2.4470   37.9690 O.3    29  U29        -0.3114
    611  C4'        2.8080   -1.5450   40.0770 C.3    29  U29         0.1773
    612  O4'        1.8860   -0.6140   39.4390 O.3    29  U29        -0.3307
    613  C3'        1.9350   -2.7370   40.4260 C.3    29  U29         0.1860
    614  O3'        2.4860   -3.5490   41.4490 O.3    29  U29        -0.3112
    615  C2'        0.6420   -2.0620   40.8370 C.3    29  U29         0.2309
    616  O2'        0.7990   -1.4730   42.1140 O.3    29  U29        -0.2156
    617  C1'        0.5590   -0.9380   39.8090 C.3    29  U29         0.2420
    618  N1        -0.1950   -1.3910   38.6180 N.ar   29  U29        -0.2534
    619  C2        -1.5700   -1.4270   38.7480 C.ar   29  U29         0.3546
    620  O2        -2.1580   -1.0860   39.7600 O.2    29  U29        -0.2443
    621  N3        -2.2410   -1.8650   37.6450 N.ar   29  U29        -0.1530
    622  C4        -1.6970   -2.2770   36.4480 C.ar   29  U29         0.2846
    623  O4        -2.4620   -2.6470   35.5540 O.2    29  U29        -0.2650
    624  C5        -0.2670   -2.2150   36.3840 C.ar   29  U29         0.0814
    625  C6         0.4200   -1.7990   37.4560 C.ar   29  U29         0.0870
    626  OP1        5.8870   -3.1250   37.4540 O.3    29  U29        -0.4373
    627  OP2        3.9790   -3.5210   35.7580 O.co2  29  U29        -0.5172
    628  P          2.2010   -5.1270   41.4700 P.3    30  G30         0.2141
    629  C5'        0.2080   -4.6850   43.0770 C.3    30  G30         0.1812
    630  O5'        0.6630   -5.2340   41.8500 O.3    30  G30        -0.3114
    631  C4'       -1.2920   -4.6830   43.1490 C.3    30  G30         0.1773
    632  O4'       -1.8390   -3.7860   42.1500 O.3    30  G30        -0.3307
    633  C3'       -1.9640   -6.0110   42.8490 C.3    30  G30         0.1860
    634  O3'       -1.9280   -6.8960   43.9570 O.3    30  G30        -0.3112
    635  C2'       -3.3630   -5.5780   42.4550 C.3    30  G30         0.2309
    636  O2'       -4.1040   -5.2130   43.6100 O.3    30  G30        -0.2156
    637  C1'       -3.0640   -4.3040   41.6710 C.3    30  G30         0.2408
    638  N1        -5.7450   -5.3130   37.5570 N.ar   30  G30        -0.1709
    639  C2        -6.1580   -5.0460   38.8410 C.ar   30  G30         0.2606
    640  N2        -7.4870   -5.0390   39.0500 N.pl3  30  G30        -0.0859
    641  N3        -5.3210   -4.7910   39.8370 N.ar   30  G30        -0.1918
    642  C4        -4.0310   -4.8380   39.4330 C.ar   30  G30         0.1723
    643  C5        -3.5130   -5.0990   38.1810 C.ar   30  G30         0.1748
    644  C6        -4.4190   -5.3650   37.1200 C.ar   30  G30         0.3023
    645  O6        -4.1670   -5.6170   35.9280 O.2    30  G30        -0.2633
    646  N7        -2.1210   -5.0440   38.2040 N.ar   30  G30        -0.2173
    647  C8        -1.8240   -4.7560   39.4510 C.ar   30  G30         0.1817
    648  N9        -2.9470   -4.6050   40.2330 N.ar   30  G30        -0.2693
    649  OP1        2.9450   -5.6640   42.6370 O.3    30  G30        -0.4373
    650  OP2        2.3870   -5.6900   40.1100 O.co2  30  G30        -0.5172
    651  P         -2.0910   -8.4810   43.7500 P.3    31  U31         0.2141
    652  C5'       -4.6340   -8.2740   44.3610 C.3    31  U31         0.1812
    653  O5'       -3.6360   -8.6690   43.4320 O.3    31  U31        -0.3114
    654  C4'       -5.9960   -8.4310   43.7480 C.3    31  U31         0.1773
    655  O4'       -6.1030   -7.5870   42.5780 O.3    31  U31        -0.3307
    656  C3'       -6.2910   -9.8240   43.2280 C.3    31  U31         0.1860
    657  O3'       -6.7470  -10.6760   44.2600 O.3    31  U31        -0.3112
    658  C2'       -7.3310   -9.5740   42.1510 C.3    31  U31         0.2309
    659  O2'       -8.6040   -9.3850   42.7490 O.3    31  U31        -0.2156
    660  C1'       -6.8680   -8.2340   41.5840 C.3    31  U31         0.2420
    661  N1        -6.0430   -8.3710   40.3560 N.ar   31  U31        -0.2534
    662  C2        -6.7260   -8.5080   39.1680 C.ar   31  U31         0.3546
    663  O2        -7.9400   -8.5480   39.1300 O.2    31  U31        -0.2443
    664  N3        -5.9450   -8.6020   38.0350 N.ar   31  U31        -0.1530
    665  C4        -4.5680   -8.5740   37.9840 C.ar   31  U31         0.2846
    666  O4        -4.0060   -8.6850   36.8950 O.2    31  U31        -0.2650
    667  C5        -3.9220   -8.4350   39.2570 C.ar   31  U31         0.0814
    668  C6        -4.6670   -8.3330   40.3700 C.ar   31  U31         0.0870
    669  OP1       -1.7920   -9.1200   45.0630 O.3    31  U31        -0.4373
    670  OP2       -1.3680   -8.9210   42.5310 O.co2  31  U31        -0.5172
    671  P         -6.6270  -12.2620   44.0950 P.3    32  G32         0.2141
    672  C5'       -7.6140  -13.4430   41.9920 C.3    32  G32         0.1812
    673  O5'       -7.8170  -12.5950   43.1000 O.3    32  G32        -0.3114
    674  C4'       -8.6550  -13.1870   40.9420 C.3    32  G32         0.1773
    675  O4'       -8.3720  -11.9340   40.2730 O.3    32  G32        -0.3307
    676  C3'       -8.6930  -14.2130   39.8280 C.3    32  G32         0.1860
    677  O3'       -9.4780  -15.3310   40.1880 O.3    32  G32        -0.3112
    678  C2'       -9.2500  -13.4190   38.6580 C.3    32  G32         0.2309
    679  O2'      -10.6510  -13.2650   38.7970 O.3    32  G32        -0.2156
    680  C1'       -8.5990  -12.0610   38.8880 C.3    32  G32         0.2408
    681  N1        -6.1730  -11.9070   34.4290 N.ar   32  G32        -0.1709
    682  C2        -7.5170  -12.0240   34.6840 C.ar   32  G32         0.2606
    683  N2        -8.3230  -12.1150   33.6120 N.pl3  32  G32        -0.0859
    684  N3        -8.0320  -12.0540   35.9040 N.ar   32  G32        -0.1918
    685  C4        -7.0770  -11.9540   36.8570 C.ar   32  G32         0.1723
    686  C5        -5.7090  -11.8350   36.7110 C.ar   32  G32         0.1748
    687  C6        -5.1730  -11.7980   35.3970 C.ar   32  G32         0.3023
    688  O6        -3.9860  -11.6900   35.0580 O.2    32  G32        -0.2633
    689  N7        -5.0740  -11.7630   37.9440 N.ar   32  G32        -0.2173
    690  C8        -6.0610  -11.8380   38.8010 C.ar   32  G32         0.1817
    691  N9        -7.2960  -11.9530   38.2100 N.ar   32  G32        -0.2693
    692  OP1       -6.9580  -12.8600   45.4210 O.3    32  G32        -0.4373
    693  OP2       -5.3440  -12.5530   43.4060 O.co2  32  G32        -0.5172
    694  P         -9.1940  -16.7730   39.5540 P.3    33  A33         0.2141
    695  C5'      -10.9450  -16.4190   37.6350 C.3    33  A33         0.1812
    696  O5'       -9.5970  -16.6250   38.0230 O.3    33  A33        -0.3114
    697  C4'      -11.0580  -16.3190   36.1370 C.3    33  A33         0.1773
    698  O4'      -10.3200  -15.1650   35.6740 O.3    33  A33        -0.3307
    699  C3'      -10.4520  -17.4750   35.3540 C.3    33  A33         0.1860
    700  O3'      -11.3120  -18.5940   35.2830 O.3    33  A33        -0.3112
    701  C2'      -10.1630  -16.8410   34.0070 C.3    33  A33         0.2309
    702  O2'      -11.3650  -16.6890   33.2760 O.3    33  A33        -0.2156
    703  C1'       -9.7170  -15.4470   34.4260 C.3    33  A33         0.2408
    704  N1        -5.1740  -14.9850   32.0290 N.ar   33  A33        -0.2040
    705  C2        -6.4310  -15.1100   31.5670 C.ar   33  A33         0.2016
    706  N3        -7.5740  -15.2280   32.2430 N.ar   33  A33        -0.2048
    707  C4        -7.3350  -15.2250   33.5580 C.ar   33  A33         0.1692
    708  C5        -6.1140  -15.1140   34.1780 C.ar   33  A33         0.1518
    709  C6        -4.9860  -15.0000   33.3590 C.ar   33  A33         0.1919
    710  N6        -3.7460  -14.8880   33.8430 N.pl3  33  A33        -0.1054
    711  N7        -6.2470  -15.1470   35.5550 N.ar   33  A33        -0.2193
    712  C8        -7.5340  -15.2750   35.7350 C.ar   33  A33         0.1816
    713  N9        -8.2520  -15.3340   34.5680 N.ar   33  A33        -0.2693
    714  OP1      -10.1670  -17.6770   40.2130 O.3    33  A33        -0.4373
    715  OP2       -7.7380  -17.0800   39.5660 O.co2  33  A33        -0.5172
    716  P        -10.7100  -20.0740   35.1370 P.3    34  A34         0.2141
    717  C5'      -11.3920  -20.0230   32.6220 C.3    34  A34         0.1812
    718  O5'      -10.3760  -20.2010   33.5950 O.3    34  A34        -0.3114
    719  C4'      -10.8060  -19.7980   31.2560 C.3    34  A34         0.1773
    720  O4'      -10.0210  -18.5760   31.2380 O.3    34  A34        -0.3307
    721  C3'       -9.8310  -20.8530   30.7670 C.3    34  A34         0.1860
    722  O3'      -10.4670  -22.0270   30.2950 O.3    34  A34        -0.3112
    723  C2'       -9.0550  -20.1030   29.6980 C.3    34  A34         0.2309
    724  O2'       -9.8270  -19.9900   28.5140 O.3    34  A34        -0.2156
    725  C1'       -8.9380  -18.7190   30.3370 C.3    34  A34         0.2408
    726  N1        -3.9190  -17.7190   29.9490 N.ar   34  A34        -0.2040
    727  C2        -4.9120  -17.7510   29.0390 C.ar   34  A34         0.2016
    728  N3        -6.2030  -18.0200   29.2300 N.ar   34  A34        -0.2048
    729  C4        -6.4570  -18.2890   30.5230 C.ar   34  A34         0.1692
    730  C5        -5.5530  -18.2910   31.5650 C.ar   34  A34         0.1518
    731  C6        -4.2210  -17.9830   31.2390 C.ar   34  A34         0.1919
    732  N6        -3.2400  -17.9430   32.1480 N.pl3  34  A34        -0.1054
    733  N7        -6.1770  -18.6030   32.7710 N.ar   34  A34        -0.2193
    734  C8        -7.4340  -18.7950   32.4240 C.ar   34  A34         0.1816
    735  N9        -7.6700  -18.5910   31.0830 N.ar   34  A34        -0.2693
    736  OP1      -11.8110  -21.0210   35.4380 O.2    34  A34        -0.5172
    737  OP2       -9.4240  -20.2010   35.8760 O.co2  34  A34        -0.4373
    738  P         -9.6850  -23.4290   30.3150 P.3    35  U35         0.2141
    739  C5'       -8.3910  -23.0390   28.0630 C.3    35  U35         0.1812
    740  O5'       -8.3530  -23.1720   29.4710 O.3    35  U35        -0.3114
    741  C4'       -7.0520  -22.6210   27.4920 C.3    35  U35         0.1773
    742  O4'       -6.4870  -21.4870   28.2000 O.3    35  U35        -0.3307
    743  C3'       -5.9280  -23.6360   27.5410 C.3    35  U35         0.1860
    744  O3'       -6.0990  -24.6820   26.5990 O.3    35  U35        -0.3112
    745  C2'       -4.7130  -22.7600   27.2510 C.3    35  U35         0.2309
    746  O2'       -4.6290  -22.4850   25.8640 O.3    35  U35        -0.2156
    747  C1'       -5.0880  -21.4590   27.9730 C.3    35  U35         0.2420
    748  N1        -4.3410  -21.2980   29.2410 N.ar   35  U35        -0.2534
    749  C2        -3.0380  -20.8540   29.0920 C.ar   35  U35         0.3546
    750  O2        -2.5530  -20.5920   28.0120 O.2    35  U35        -0.2443
    751  N3        -2.2990  -20.7190   30.2390 N.ar   35  U35        -0.1530
    752  C4        -2.7540  -20.9890   31.5130 C.ar   35  U35         0.2846
    753  O4        -1.9870  -20.8210   32.4630 O.2    35  U35        -0.2650
    754  C5        -4.1130  -21.4440   31.5870 C.ar   35  U35         0.0814
    755  C6        -4.8500  -21.5850   30.4740 C.ar   35  U35         0.0870
    756  OP1      -10.5320  -24.4090   29.5920 O.2    35  U35        -0.5172
    757  OP2       -9.2270  -23.7190   31.6930 O.co2  35  U35        -0.4373
    758  P         -5.8020  -26.2090   26.9800 P.3    36  G36         0.2141
    759  C5'       -5.1780  -28.1360   25.2990 C.3    36  G36         0.1812
    760  O5'       -5.1380  -26.7590   25.6500 O.3    36  G36        -0.3114
    761  C4'       -4.9530  -28.2430   23.8200 C.3    36  G36         0.1773
    762  O4'       -3.5930  -27.8480   23.5250 O.3    36  G36        -0.3307
    763  C3'       -5.1800  -29.6030   23.1480 C.3    36  G36         0.1860
    764  O3'       -6.0650  -29.4340   22.0360 O.3    36  G36        -0.3112
    765  C2'       -3.7870  -29.9940   22.6310 C.3    36  G36         0.2309
    766  O2'       -3.8010  -30.6790   21.3940 O.3    36  G36        -0.2156
    767  C1'       -3.1020  -28.6420   22.4780 C.3    36  G36         0.2408
    768  N1         1.2100  -27.4080   20.0490 N.ar   36  G36        -0.1709
    769  C2        -0.1030  -27.2040   19.6890 C.ar   36  G36         0.2606
    770  N2        -0.2960  -26.5860   18.5060 N.pl3  36  G36        -0.0859
    771  N3        -1.1480  -27.5860   20.4260 N.ar   36  G36        -0.1918
    772  C4        -0.7800  -28.1930   21.5730 C.ar   36  G36         0.1723
    773  C5         0.4990  -28.4460   22.0320 C.ar   36  G36         0.1748
    774  C6         1.6110  -28.0520   21.2300 C.ar   36  G36         0.3023
    775  O6         2.8230  -28.1980   21.4640 O.2    36  G36        -0.2633
    776  N7         0.4560  -29.0960   23.2650 N.ar   36  G36        -0.2173
    777  C8        -0.8250  -29.2170   23.5230 C.ar   36  G36         0.1817
    778  N9        -1.6340  -28.6790   22.5380 N.ar   36  G36        -0.2693
    779  OP1       -7.0930  -26.9050   27.2210 O.2    36  G36        -0.5172
    780  OP2       -4.7130  -26.3180   27.9760 O.co2  36  G36        -0.4373
    781  P         -7.6480  -29.6420   22.2410 P.3    37  G37         0.2141
    782  C5'       -8.9800  -31.8300   22.8490 C.3    37  G37         0.1812
    783  O5'       -7.7770  -31.0740   22.9330 O.3    37  G37        -0.3114
    784  C4'       -8.9030  -33.1050   23.6580 C.3    37  G37         0.1773
    785  O4'       -7.8660  -33.9700   23.1230 O.3    37  G37        -0.3307
    786  C3'       -8.5370  -32.9400   25.1280 C.3    37  G37         0.1860
    787  O3'       -9.6530  -32.6100   25.9370 O.3    37  G37        -0.3112
    788  C2'       -7.9220  -34.2850   25.4800 C.3    37  G37         0.2309
    789  O2'       -8.9410  -35.2410   25.7310 O.3    37  G37        -0.2156
    790  C1'       -7.2180  -34.6560   24.1750 C.3    37  G37         0.2408
    791  N1        -2.7000  -35.3700   26.4180 N.ar   37  G37        -0.1709
    792  C2        -3.9270  -35.9000   26.7220 C.ar   37  G37         0.2606
    793  N2        -3.9710  -36.7370   27.7720 N.pl3  37  G37        -0.0859
    794  N3        -5.0350  -35.6260   26.0560 N.ar   37  G37        -0.1918
    795  C4        -4.8160  -34.7720   25.0390 C.ar   37  G37         0.1723
    796  C5        -3.6290  -34.1840   24.6460 C.ar   37  G37         0.1748
    797  C6        -2.4410  -34.4850   25.3720 C.ar   37  G37         0.3023
    798  O6        -1.2850  -34.0740   25.1820 O.2    37  G37        -0.2633
    799  N7        -3.8330  -33.3510   23.5480 N.ar   37  G37        -0.2173
    800  C8        -5.1180  -33.4640   23.3080 C.ar   37  G37         0.1817
    801  N9        -5.7810  -34.2960   24.1770 N.ar   37  G37        -0.2693
    802  OP1       -8.2760  -29.7780   20.8970 O.2    37  G37        -0.5172
    803  OP2       -8.1170  -28.5980   23.1890 O.co2  37  G37        -0.4373
    804  P         -9.4590  -31.6900   27.2400 P.3    38  G38         0.2141
    805  C5'       -9.5730  -33.6390   28.9930 C.3    38  G38         0.1812
    806  O5'       -8.7930  -32.6760   28.3030 O.3    38  G38        -0.3114
    807  C4'       -8.7750  -34.3060   30.0820 C.3    38  G38         0.1773
    808  O4'       -7.6660  -35.0300   29.4910 O.3    38  G38        -0.3307
    809  C3'       -8.1040  -33.3820   31.0860 C.3    38  G38         0.1860
    810  O3'       -8.9780  -32.8970   32.0910 O.3    38  G38        -0.3112
    811  C2'       -6.9820  -34.2550   31.6210 C.3    38  G38         0.2309
    812  O2'       -7.5080  -35.2410   32.4880 O.3    38  G38        -0.2156
    813  C1'       -6.5420  -34.9640   30.3460 C.3    38  G38         0.2408
    814  N1        -1.5960  -33.6880   30.2190 N.ar   38  G38        -0.1709
    815  C2        -2.2810  -34.4740   31.1290 C.ar   38  G38         0.2606
    816  N2        -1.5510  -34.9760   32.1320 N.pl3  38  G38        -0.0859
    817  N3        -3.5780  -34.7490   31.0750 N.ar   38  G38        -0.1918
    818  C4        -4.1490  -34.1570   30.0100 C.ar   38  G38         0.1723
    819  C5        -3.5620  -33.3720   29.0390 C.ar   38  G38         0.1748
    820  C6        -2.1790  -33.0910   29.1050 C.ar   38  G38         0.3023
    821  O6        -1.5040  -32.4120   28.3160 O.2    38  G38        -0.2633
    822  N7        -4.4910  -32.9490   28.1010 N.ar   38  G38        -0.2173
    823  C8        -5.6050  -33.4880   28.5080 C.ar   38  G38         0.1817
    824  N9        -5.4730  -34.2300   29.6530 N.ar   38  G38        -0.2693
    825  OP1      -10.8230  -31.3300   27.7190 O.3    38  G38        -0.4373
    826  OP2       -8.4470  -30.6370   26.9550 O.co2  38  G38        -0.5172
    827  P         -8.7100  -31.4570   32.7550 P.3    39  A39         0.2141
    828  C5'       -7.3670  -32.3110   34.8330 C.3    39  A39         0.1812
    829  O5'       -7.3570  -31.6450   33.5800 O.3    39  A39        -0.3114
    830  C4'       -5.9900  -32.4300   35.4430 C.3    39  A39         0.1773
    831  O4'       -5.0750  -33.0920   34.5280 O.3    39  A39        -0.3307
    832  C3'       -5.2620  -31.1400   35.7900 C.3    39  A39         0.1860
    833  O3'       -5.7660  -30.4910   36.9470 O.3    39  A39        -0.3112
    834  C2'       -3.8250  -31.6290   35.9250 C.3    39  A39         0.2309
    835  O2'       -3.6530  -32.3500   37.1390 O.3    39  A39        -0.2156
    836  C1'       -3.7550  -32.6370   34.7720 C.3    39  A39         0.2408
    837  N1         0.4740  -30.8140   32.5130 N.ar   39  A39        -0.2040
    838  C2         0.2530  -31.3790   33.7070 C.ar   39  A39         0.2016
    839  N3        -0.8870  -31.8320   34.2210 N.ar   39  A39        -0.2048
    840  C4        -1.9030  -31.6610   33.3610 C.ar   39  A39         0.1692
    841  C5        -1.8400  -31.0980   32.1050 C.ar   39  A39         0.1518
    842  C6        -0.5720  -30.6580   31.6740 C.ar   39  A39         0.1919
    843  N6        -0.3480  -30.0880   30.4820 N.pl3  39  A39        -0.1054
    844  N7        -3.0970  -31.0830   31.5110 N.ar   39  A39        -0.2193
    845  C8        -3.8790  -31.6300   32.4090 C.ar   39  A39         0.1816
    846  N9        -3.2170  -32.0100   33.5490 N.ar   39  A39        -0.2693
    847  OP1       -9.8250  -31.2340   33.7090 O.3    39  A39        -0.4373
    848  OP2       -8.4330  -30.4660   31.6850 O.co2  39  A39        -0.5172
    849  P         -5.8950  -28.8910   36.9760 P.3    40  U40         0.2141
    850  C5'       -3.5410  -28.8060   38.1050 C.3    40  U40         0.1812
    851  O5'       -4.3840  -28.3860   37.0400 O.3    40  U40        -0.3114
    852  C4'       -2.0870  -28.4970   37.8480 C.3    40  U40         0.1773
    853  O4'       -1.6030  -29.2110   36.6770 O.3    40  U40        -0.3307
    854  C3'       -1.7260  -27.0540   37.5540 C.3    40  U40         0.1860
    855  O3'       -1.7130  -26.2320   38.7080 O.3    40  U40        -0.3112
    856  C2'       -0.3570  -27.2080   36.9090 C.3    40  U40         0.2309
    857  O2'        0.6200  -27.5130   37.8970 O.3    40  U40        -0.2156
    858  C1'       -0.5720  -28.4640   36.0660 C.3    40  U40         0.2420
    859  N1        -0.9750  -28.1260   34.6830 N.ar   40  U40        -0.2534
    860  C2         0.0330  -27.7190   33.8450 C.ar   40  U40         0.3546
    861  O2         1.1970  -27.6230   34.2070 O.2    40  U40        -0.2443
    862  N3        -0.3660  -27.4050   32.5720 N.ar   40  U40        -0.1530
    863  C4        -1.6470  -27.4620   32.0740 C.ar   40  U40         0.2846
    864  O4        -1.8290  -27.1480   30.8980 O.2    40  U40        -0.2650
    865  C5        -2.6420  -27.9050   33.0040 C.ar   40  U40         0.0814
    866  C6        -2.2770  -28.2170   34.2550 C.ar   40  U40         0.0870
    867  OP1       -6.5650  -28.5270   38.2580 O.3    40  U40        -0.4373
    868  OP2       -6.4770  -28.4220   35.6890 O.co2  40  U40        -0.5172
    869  P         -2.1140  -24.6760   38.6060 P.3    41  G41         0.2141
    870  C5'        0.3390  -23.8540   38.1510 C.3    41  G41         0.1812
    871  O5'       -0.9940  -23.9990   37.6970 O.3    41  G41        -0.3114
    872  C4'        1.2620  -23.4710   37.0210 C.3    41  G41         0.1773
    873  O4'        1.1270  -24.3950   35.9100 O.3    41  G41        -0.3307
    874  C3'        1.0260  -22.1140   36.3830 C.3    41  G41         0.1860
    875  O3'        1.5350  -21.0620   37.1720 O.3    41  G41        -0.3112
    876  C2'        1.7300  -22.2600   35.0440 C.3    41  G41         0.2309
    877  O2'        3.1340  -22.1420   35.2180 O.3    41  G41        -0.2156
    878  C1'        1.4210  -23.7190   34.6980 C.3    41  G41         0.2408
    879  N1        -0.0810  -23.5780   29.8560 N.ar   41  G41        -0.1709
    880  C2         1.1650  -23.3430   30.4040 C.ar   41  G41         0.2606
    881  N2         2.1500  -23.0350   29.5470 N.pl3  41  G41        -0.0859
    882  N3         1.4350  -23.4030   31.7040 N.ar   41  G41        -0.1918
    883  C4         0.3330  -23.7210   32.4150 C.ar   41  G41         0.1723
    884  C5        -0.9520  -23.9730   31.9710 C.ar   41  G41         0.1748
    885  C6        -1.2250  -23.9060   30.5850 C.ar   41  G41         0.3023
    886  O6        -2.3090  -24.1110   30.0280 O.2    41  G41        -0.2633
    887  N7        -1.8060  -24.2770   33.0210 N.ar   41  G41        -0.2173
    888  C8        -1.0250  -24.1930   34.0740 C.ar   41  G41         0.1817
    889  N9         0.2800  -23.8590   33.7780 N.ar   41  G41        -0.2693
    890  OP1       -2.0350  -24.1100   39.9790 O.3    41  G41        -0.4373
    891  OP2       -3.3530  -24.5590   37.7990 O.co2  41  G41        -0.5172
    892  P          1.1740  -19.5320   36.8440 P.3    42  U42         0.2141
    893  C5'        3.7330  -19.2670   36.3360 C.3    42  U42         0.1812
    894  O5'        2.3890  -19.0480   35.9510 O.3    42  U42        -0.3114
    895  C4'        4.6500  -18.7790   35.2490 C.3    42  U42         0.1773
    896  O4'        4.6410  -19.7420   34.1570 O.3    42  U42        -0.3307
    897  C3'        4.2330  -17.4740   34.5800 C.3    42  U42         0.1860
    898  O3'        4.4870  -16.2720   35.3180 O.3    42  U42        -0.3112
    899  C2'        4.8900  -17.5790   33.2070 C.3    42  U42         0.2309
    900  O2'        6.2880  -17.3460   33.2850 O.3    42  U42        -0.2156
    901  C1'        4.6930  -19.0640   32.9130 C.3    42  U42         0.2420
    902  N1         3.4450  -19.3250   32.1470 N.ar   42  U42        -0.2534
    903  C2         3.5880  -19.3220   30.7750 C.ar   42  U42         0.3546
    904  O2         4.6620  -19.1100   30.2470 O.2    42  U42        -0.2443
    905  N3         2.4470  -19.5680   30.0500 N.ar   42  U42        -0.1530
    906  C4         1.1860  -19.8130   30.5590 C.ar   42  U42         0.2846
    907  O4         0.2500  -20.0200   29.7750 O.2    42  U42        -0.2650
    908  C5         1.1050  -19.8000   31.9940 C.ar   42  U42         0.0814
    909  C6         2.2100  -19.5610   32.7170 C.ar   42  U42         0.0870
    910  OP1        1.1950  -18.8370   38.1570 O.3    42  U42        -0.4373
    911  OP2       -0.0380  -19.4450   35.9750 O.co2  42  U42        -0.5172
    912  P          5.9510  -15.8190   35.8260 P.3    43  C43         0.2141
    913  C5'        6.1280  -13.6620   34.3210 C.3    43  C43         0.1812
    914  O5'        6.5480  -14.9930   34.6050 O.3    43  C43        -0.3114
    915  C4'        6.8300  -13.1210   33.0980 C.3    43  C43         0.1773
    916  O4'        8.2650  -13.2860   33.2710 O.3    43  C43        -0.3307
    917  C3'        6.4790  -13.8180   31.7820 C.3    43  C43         0.1860
    918  O3'        6.5650  -12.8820   30.7110 O.3    43  C43        -0.3112
    919  C2'        7.6020  -14.8360   31.6310 C.3    43  C43         0.2309
    920  O2'        7.8490  -15.2260   30.2990 O.3    43  C43        -0.2156
    921  C1'        8.7890  -14.0720   32.2170 C.3    43  C43         0.2420
    922  N1         9.8520  -14.9350   32.7650 N.ar   43  C43        -0.2535
    923  C2        11.1580  -14.7860   32.2800 C.ar   43  C43         0.3532
    924  O2        11.3720  -13.9270   31.4120 O.2    43  C43        -0.2443
    925  N3        12.1470  -15.5720   32.7780 N.ar   43  C43        -0.1739
    926  C4        11.8790  -16.4830   33.7180 C.ar   43  C43         0.1759
    927  N4        12.8810  -17.2430   34.1830 N.pl3  43  C43        -0.1070
    928  C5        10.5590  -16.6620   34.2260 C.ar   43  C43         0.0566
    929  C6         9.5910  -15.8770   33.7280 C.ar   43  C43         0.0850
    930  OP1        6.8470  -16.9920   36.0240 O.2    43  C43        -0.5172
    931  OP2        5.7160  -14.8690   36.9340 O.co2  43  C43        -0.4373
    932  P          5.2590  -12.0920   30.2090 P.3    44  G44         0.2141
    933  C5'        5.3700  -13.1420   27.8100 C.3    44  G44         0.1812
    934  O5'        4.6870  -13.0250   29.0500 O.3    44  G44        -0.3114
    935  C4'        4.5860  -13.9650   26.8210 C.3    44  G44         0.1773
    936  O4'        4.5120  -15.3460   27.2700 O.3    44  G44        -0.3307
    937  C3'        3.1330  -13.5610   26.6360 C.3    44  G44         0.1860
    938  O3'        2.9720  -12.4570   25.7670 O.3    44  G44        -0.3112
    939  C2'        2.4970  -14.8470   26.1340 C.3    44  G44         0.2309
    940  O2'        2.8020  -15.0730   24.7660 O.3    44  G44        -0.2156
    941  C1'        3.2400  -15.8810   26.9750 C.3    44  G44         0.2408
    942  N1        -1.0920  -17.3670   29.1410 N.ar   44  G44        -0.1709
    943  C2        -0.7550  -17.3200   27.8070 C.ar   44  G44         0.2606
    944  N2        -1.6950  -17.6910   26.9290 N.pl3  44  G44        -0.0859
    945  N3         0.4210  -16.9010   27.3670 N.ar   44  G44        -0.1918
    946  C4         1.2500  -16.5510   28.3790 C.ar   44  G44         0.1723
    947  C5         1.0190  -16.5710   29.7340 C.ar   44  G44         0.1748
    948  C6        -0.2470  -17.0090   30.1950 C.ar   44  G44         0.3023
    949  O6        -0.6310  -17.0910   31.3720 O.2    44  G44        -0.2633
    950  N7         2.1330  -16.1300   30.4440 N.ar   44  G44        -0.2173
    951  C8         3.0090  -15.8510   29.5160 C.ar   44  G44         0.1817
    952  N9         2.5370  -16.0950   28.2500 N.ar   44  G44        -0.2693
    953  OP1        5.7020  -10.8130   29.5840 O.2    44  G44        -0.5172
    954  OP2        4.2840  -12.0570   31.3390 O.co2  44  G44        -0.4373
    955  P          1.9280  -11.2970   26.1250 P.3    45  U45         0.2141
    956  C5'       -0.0090  -12.4480   24.8260 C.3    45  U45         0.1812
    957  O5'        0.5150  -12.0140   26.0680 O.3    45  U45        -0.3114
    958  C4'       -1.3960  -13.0080   24.9870 C.3    45  U45         0.1773
    959  O4'       -1.3650  -14.1870   25.8360 O.3    45  U45        -0.3307
    960  C3'       -2.4030  -12.1090   25.6760 C.3    45  U45         0.1860
    961  O3'       -2.9000  -11.0810   24.8460 O.3    45  U45        -0.3112
    962  C2'       -3.4600  -13.1060   26.1190 C.3    45  U45         0.2309
    963  O2'       -4.2400  -13.5200   25.0080 O.3    45  U45        -0.2156
    964  C1'       -2.5820  -14.2790   26.5610 C.3    45  U45         0.2420
    965  N1        -2.2850  -14.1870   28.0060 N.ar   45  U45        -0.2534
    966  C2        -3.3160  -14.4730   28.8700 C.ar   45  U45         0.3546
    967  O2        -4.4240  -14.8150   28.4880 O.2    45  U45        -0.2443
    968  N3        -2.9960  -14.3570   30.1910 N.ar   45  U45        -0.1530
    969  C4        -1.7750  -13.9770   30.7170 C.ar   45  U45         0.2846
    970  O4        -1.6340  -13.9140   31.9350 O.2    45  U45        -0.2650
    971  C5        -0.7590  -13.6890   29.7560 C.ar   45  U45         0.0814
    972  C6        -1.0550  -13.7920   28.4660 C.ar   45  U45         0.0870
    973  OP1        1.9650  -10.3570   24.9750 O.2    45  U45        -0.5172
    974  OP2        2.1700  -10.8030   27.5030 O.co2  45  U45        -0.4373
    975  P         -3.3600   -9.6790   25.4790 P.3    46  C46         0.2141
    976  C5'       -5.8240  -10.5820   25.3880 C.3    46  C46         0.1812
    977  O5'       -4.7680  -10.0120   26.1490 O.3    46  C46        -0.3114
    978  C4'       -6.9430  -11.0370   26.2830 C.3    46  C46         0.1773
    979  O4'       -6.4550  -12.0650   27.1800 O.3    46  C46        -0.3307
    980  C3'       -7.5110   -9.9800   27.2150 C.3    46  C46         0.1860
    981  O3'       -8.4490   -9.1350   26.5780 O.3    46  C46        -0.3112
    982  C2'       -8.1070  -10.8180   28.3340 C.3    46  C46         0.2309
    983  O2'       -9.3330  -11.4030   27.9200 O.3    46  C46        -0.2156
    984  C1'       -7.0720  -11.9370   28.4440 C.3    46  C46         0.2420
    985  N1        -6.0270  -11.6540   29.4630 N.ar   46  C46        -0.2535
    986  C2        -6.3560  -11.7720   30.8180 C.ar   46  C46         0.3532
    987  O2        -7.5050  -12.1070   31.1290 O.2    46  C46        -0.2443
    988  N3        -5.4240  -11.5350   31.7670 N.ar   46  C46        -0.1739
    989  C4        -4.1880  -11.1790   31.4290 C.ar   46  C46         0.1759
    990  N4        -3.3070  -10.9480   32.4200 N.pl3  46  C46        -0.1070
    991  C5        -3.8190  -11.0280   30.0560 C.ar   46  C46         0.0566
    992  C6        -4.7560  -11.2790   29.1220 C.ar   46  C46         0.0850
    993  OP1       -3.5270   -8.7370   24.3480 O.2    46  C46        -0.5172
    994  OP2       -2.4380   -9.2780   26.5720 O.co2  46  C46        -0.4373
    995  P         -8.6960   -7.6380   27.1090 P.3    47  A47         0.2141
    996  C5'      -10.8820   -8.4610   28.3120 C.3    47  A47         0.1812
    997  O5'       -9.6190   -7.8140   28.4000 O.3    47  A47        -0.3114
    998  C4'      -11.5390   -8.5760   29.6620 C.3    47  A47         0.1773
    999  O4'      -10.8410   -9.5580   30.4730 O.3    47  A47        -0.3307
   1000  C3'      -11.5210   -7.3150   30.5110 C.3    47  A47         0.1860
   1001  O3'      -12.5670   -6.4290   30.1800 O.3    47  A47        -0.3112
   1002  C2'      -11.6310   -7.8670   31.9220 C.3    47  A47         0.2309
   1003  O2'      -12.9590   -8.3010   32.1650 O.3    47  A47        -0.2156
   1004  C1'      -10.7690   -9.1120   31.8130 C.3    47  A47         0.2408
   1005  N1        -7.2760   -8.7860   35.5790 N.ar   47  A47        -0.2040
   1006  C2        -8.6010   -8.9970   35.5900 C.ar   47  A47         0.2016
   1007  N3        -9.4450   -9.0460   34.5630 N.ar   47  A47        -0.2048
   1008  C4        -8.8010   -8.8600   33.4010 C.ar   47  A47         0.1692
   1009  C5        -7.4510   -8.6390   33.2200 C.ar   47  A47         0.1518
   1010  C6        -6.6610   -8.6020   34.3860 C.ar   47  A47         0.1919
   1011  N6        -5.3380   -8.3920   34.3750 N.pl3  47  A47        -0.1054
   1012  N7        -7.1470   -8.4860   31.8610 N.ar   47  A47        -0.2193
   1013  C8        -8.3130   -8.6310   31.2680 C.ar   47  A47         0.1816
   1014  N9        -9.3530   -8.8640   32.1410 N.ar   47  A47        -0.2693
   1015  OP1       -9.5180   -6.9750   26.0610 O.2    47  A47        -0.5172
   1016  OP2       -7.4170   -7.0010   27.5350 O.co2  47  A47        -0.4373
   1017  P        -12.3780   -4.8530   30.3390 P.3    48  C48         0.2141
   1018  C5'      -13.5740   -5.0160   32.6500 C.3    48  C48         0.1812
   1019  O5'      -12.4500   -4.5970   31.9000 O.3    48  C48        -0.3114
   1020  C4'      -13.2650   -4.9810   34.1190 C.3    48  C48         0.1773
   1021  O4'      -12.2690   -5.9870   34.4420 O.3    48  C48        -0.3307
   1022  C3'      -12.6560   -3.6890   34.6330 C.3    48  C48         0.1860
   1023  O3'      -13.6250   -2.6800   34.8400 O.3    48  C48        -0.3112
   1024  C2'      -11.9630   -4.1470   35.9060 C.3    48  C48         0.2309
   1025  O2'      -12.9210   -4.3730   36.9270 O.3    48  C48        -0.2156
   1026  C1'      -11.4250   -5.5090   35.4710 C.3    48  C48         0.2420
   1027  N1       -10.0300   -5.4220   34.9710 N.ar   48  C48        -0.2535
   1028  C2        -9.0220   -5.4800   35.9250 C.ar   48  C48         0.3532
   1029  O2        -9.3640   -5.5920   37.1190 O.2    48  C48        -0.2443
   1030  N3        -7.7320   -5.4090   35.5210 N.ar   48  C48        -0.1739
   1031  C4        -7.4460   -5.2910   34.2210 C.ar   48  C48         0.1759
   1032  N4        -6.1650   -5.2200   33.8480 N.pl3  48  C48        -0.1070
   1033  C5        -8.4630   -5.2250   33.2310 C.ar   48  C48         0.0566
   1034  C6        -9.7270   -5.2960   33.6540 C.ar   48  C48         0.0850
   1035  OP1      -13.5860   -4.2460   29.7280 O.2    48  C48        -0.5172
   1036  OP2      -11.0010   -4.4490   29.9190 O.co2  48  C48        -0.4373
   1037  P        -13.1920   -1.1430   34.9130 P.3    49  A49         0.2141
   1038  C5'      -13.0760   -1.1790   37.5310 C.3    49  A49         0.1812
   1039  O5'      -12.4100   -1.0280   36.2900 O.3    49  A49        -0.3114
   1040  C4'      -12.1280   -0.9350   38.6730 C.3    49  A49         0.1773
   1041  O4'      -11.1220   -1.9780   38.7050 O.3    49  A49        -0.3307
   1042  C3'      -11.3200    0.3500   38.6070 C.3    49  A49         0.1860
   1043  O3'      -12.0480    1.4800   39.0670 O.3    49  A49        -0.3112
   1044  C2'      -10.1290    0.0210   39.4840 C.3    49  A49         0.2309
   1045  O2'      -10.5420    0.0480   40.8390 O.3    49  A49        -0.2156
   1046  C1'       -9.8850   -1.4380   39.1130 C.3    49  A49         0.2408
   1047  N1        -4.9490   -1.9670   37.6330 N.ar   49  A49        -0.2040
   1048  C2        -5.4920   -1.7840   38.8470 C.ar   49  A49         0.2016
   1049  N3        -6.7770   -1.6420   39.1690 N.ar   49  A49        -0.2048
   1050  C4        -7.5590   -1.7110   38.0650 C.ar   49  A49         0.1692
   1051  C5        -7.1430   -1.9120   36.7590 C.ar   49  A49         0.1518
   1052  C6        -5.7600   -2.0510   36.5480 C.ar   49  A49         0.1919
   1053  N6        -5.2150   -2.2550   35.3360 N.pl3  49  A49        -0.1054
   1054  N7        -8.2280   -1.9390   35.8830 N.ar   49  A49        -0.2193
   1055  C8        -9.2620   -1.7600   36.6700 C.ar   49  A49         0.1816
   1056  N9        -8.9330   -1.6120   37.9970 N.ar   49  A49        -0.2693
   1057  OP1      -14.4210   -0.3150   34.9860 O.3    49  A49        -0.4373
   1058  OP2      -12.2010   -0.8650   33.8410 O.co2  49  A49        -0.5172
   1059  P        -11.8370    2.9190   38.3870 P.3    50  C50         0.2141
   1060  C5'      -10.1290    3.5940   40.2610 C.3    50  C50         0.1812
   1061  O5'      -10.3930    3.3860   38.8830 O.3    50  C50        -0.3114
   1062  C4'       -8.6470    3.6500   40.5400 C.3    50  C50         0.1773
   1063  O4'       -8.0420    2.3550   40.2580 O.3    50  C50        -0.3307
   1064  C3'       -7.8160    4.6120   39.7030 C.3    50  C50         0.1860
   1065  O3'       -7.9360    5.9820   40.0770 O.3    50  C50        -0.3112
   1066  C2'       -6.4220    4.0430   39.8870 C.3    50  C50         0.2309
   1067  O2'       -5.9590    4.3170   41.2020 O.3    50  C50        -0.2156
   1068  C1'       -6.7170    2.5440   39.7990 C.3    50  C50         0.2420
   1069  N1        -6.6080    2.0750   38.4020 N.ar   50  C50        -0.2535
   1070  C2        -5.3250    1.7760   37.9440 C.ar   50  C50         0.3532
   1071  O2        -4.3760    1.9040   38.7410 O.2    50  C50        -0.2443
   1072  N3        -5.1510    1.3600   36.6620 N.ar   50  C50        -0.1739
   1073  C4        -6.1980    1.2430   35.8440 C.ar   50  C50         0.1759
   1074  N4        -5.9810    0.8200   34.5820 N.pl3  50  C50        -0.1070
   1075  C5        -7.5180    1.5460   36.2930 C.ar   50  C50         0.0566
   1076  C6        -7.6800    1.9620   37.5610 C.ar   50  C50         0.0850
   1077  OP1      -12.8560    3.8230   38.9890 O.3    50  C50        -0.4373
   1078  OP2      -11.7590    2.7830   36.9040 O.co2  50  C50        -0.5172
   1079  P         -7.7230    7.1390   38.9800 P.3    51  A51         0.2141
   1080  C5'       -5.2270    7.3580   39.7180 C.3    51  A51         0.1812
   1081  O5'       -6.1600    7.1020   38.6760 O.3    51  A51        -0.3114
   1082  C4'       -3.8170    7.2330   39.2200 C.3    51  A51         0.1773
   1083  O4'       -3.5570    5.8640   38.8140 O.3    51  A51        -0.3307
   1084  C3'       -3.4920    8.0460   37.9830 C.3    51  A51         0.1860
   1085  O3'       -3.2280    9.4060   38.2840 O.3    51  A51        -0.3112
   1086  C2'       -2.2950    7.3090   37.4110 C.3    51  A51         0.2309
   1087  O2'       -1.1170    7.6550   38.1340 O.3    51  A51        -0.2156
   1088  C1'       -2.6610    5.8540   37.7220 C.3    51  A51         0.2408
   1089  N1        -1.9870    3.5130   33.1830 N.ar   51  A51        -0.2040
   1090  C2        -1.1240    4.0710   34.0450 C.ar   51  A51         0.2016
   1091  N3        -1.3790    4.6700   35.2090 N.ar   51  A51        -0.2048
   1092  C4        -2.7000    4.6660   35.4720 C.ar   51  A51         0.1692
   1093  C5        -3.7080    4.1380   34.6800 C.ar   51  A51         0.1518
   1094  C6        -3.3100    3.5330   33.4700 C.ar   51  A51         0.1919
   1095  N6        -4.1610    2.9820   32.5860 N.pl3  51  A51        -0.1054
   1096  N7        -4.9530    4.3200   35.2730 N.ar   51  A51        -0.2193
   1097  C8        -4.6660    4.9490   36.3990 C.ar   51  A51         0.1816
   1098  N9        -3.3230    5.1870   36.5820 N.ar   51  A51        -0.2693
   1099  OP1       -8.0070    8.4370   39.6540 O.3    51  A51        -0.4373
   1100  OP2       -8.4320    6.7710   37.7240 O.co2  51  A51        -0.5172
   1101  P         -3.4430   10.5330   37.1630 P.3    52  A52         0.2141
   1102  C5'       -0.8710   10.5890   36.7160 C.3    52  A52         0.1812
   1103  O5'       -2.1770   10.3650   36.2120 O.3    52  A52        -0.3114
   1104  C4'        0.1830   10.2260   35.7050 C.3    52  A52         0.1773
   1105  O4'        0.1380    8.8060   35.4290 O.3    52  A52        -0.3307
   1106  C3'        0.0540   10.8660   34.3330 C.3    52  A52         0.1860
   1107  O3'        0.5240   12.2060   34.3030 O.3    52  A52        -0.3112
   1108  C2'        0.8620    9.9170   33.4630 C.3    52  A52         0.2309
   1109  O2'        2.2510   10.1380   33.6470 O.3    52  A52        -0.2156
   1110  C1'        0.5150    8.5680   34.0890 C.3    52  A52         0.2408
   1111  N1        -0.8840    5.5830   30.1660 N.ar   52  A52        -0.2040
   1112  C2         0.3110    6.0360   30.5740 C.ar   52  A52         0.2016
   1113  N3         0.6070    6.8110   31.6160 N.ar   52  A52        -0.2048
   1114  C4        -0.5140    7.1390   32.2790 C.ar   52  A52         0.1692
   1115  C5        -1.8110    6.7540   31.9910 C.ar   52  A52         0.1518
   1116  C6        -1.9890    5.9280   30.8660 C.ar   52  A52         0.1919
   1117  N6        -3.1840    5.4630   30.4670 N.pl3  52  A52        -0.1054
   1118  N7        -2.7120    7.2920   32.9130 N.ar   52  A52        -0.2193
   1119  C8        -1.9420    7.9780   33.7290 C.ar   52  A52         0.1816
   1120  N9        -0.6100    7.9240   33.3990 N.ar   52  A52        -0.2693
   1121  OP1       -3.3520   11.8600   37.8380 O.3    52  A52        -0.4373
   1122  OP2       -4.6510   10.1850   36.3700 O.co2  52  A52        -0.5172
   1123  P         -0.0460   13.2580   33.2250 P.3    53  C53         0.2141
   1124  C5'        1.6700   12.6160   31.3410 C.3    53  C53         0.1812
   1125  O5'        0.3300   12.6240   31.8080 O.3    53  C53        -0.3114
   1126  C4'        1.8500   11.7410   30.1220 C.3    53  C53         0.1773
   1127  O4'        1.3030   10.4190   30.3570 O.3    53  C53        -0.3307
   1128  C3'        1.1670   12.1810   28.8370 C.3    53  C53         0.1860
   1129  O3'        1.8410   13.2360   28.1770 O.3    53  C53        -0.3112
   1130  C2'        1.1370   10.8870   28.0310 C.3    53  C53         0.2309
   1131  O2'        2.4100   10.6160   27.4650 O.3    53  C53        -0.2156
   1132  C1'        0.8810    9.8540   29.1270 C.3    53  C53         0.2420
   1133  N1        -0.5490    9.4830   29.2040 N.ar   53  C53        -0.2535
   1134  C2        -0.9910    8.5150   28.3130 C.ar   53  C53         0.3532
   1135  O2        -0.1570    8.0370   27.5360 O.2    53  C53        -0.2443
   1136  N3        -2.2890    8.1310   28.3270 N.ar   53  C53        -0.1739
   1137  C4        -3.1340    8.6980   29.1980 C.ar   53  C53         0.1759
   1138  N4        -4.4140    8.3040   29.2000 N.pl3  53  C53        -0.1070
   1139  C5        -2.7020    9.6940   30.1180 C.ar   53  C53         0.0566
   1140  C6        -1.4150   10.0600   30.0840 C.ar   53  C53         0.0850
   1141  OP1        0.7460   14.5030   33.4310 O.3    53  C53        -0.4373
   1142  OP2       -1.5290   13.3070   33.2910 O.co2  53  C53        -0.5172
   1143  P          1.0040   14.3840   27.4150 P.3    54  G54         0.2141
   1144  C5'        1.3740   12.9430   25.2150 C.3    54  G54         0.1812
   1145  O5'        0.4970   13.6910   26.0580 O.3    54  G54        -0.3114
   1146  C4'        0.6260   12.0490   24.2460 C.3    54  G54         0.1773
   1147  O4'       -0.0310   10.9620   24.9510 O.3    54  G54        -0.3307
   1148  C3'       -0.4870   12.7010   23.4340 C.3    54  G54         0.1860
   1149  O3'        0.0220   13.4000   22.3050 O.3    54  G54        -0.3112
   1150  C2'       -1.3810   11.5150   23.0710 C.3    54  G54         0.2309
   1151  O2'       -0.8590   10.7970   21.9620 O.3    54  G54        -0.2156
   1152  C1'       -1.2490   10.6290   24.3110 C.3    54  G54         0.2408
   1153  N1        -6.0010    9.3800   25.8590 N.ar   54  G54        -0.1709
   1154  C2        -5.2820    8.8990   24.7930 C.ar   54  G54         0.2606
   1155  N2        -5.9120    7.9820   24.0540 N.pl3  54  G54        -0.0859
   1156  N3        -4.0560    9.2820   24.4680 N.ar   54  G54        -0.1918
   1157  C4        -3.5870   10.2220   25.3170 C.ar   54  G54         0.1723
   1158  C5        -4.2270   10.7710   26.4190 C.ar   54  G54         0.1748
   1159  C6        -5.5460   10.3480   26.7570 C.ar   54  G54         0.3023
   1160  O6        -6.2700   10.7290   27.6960 O.2    54  G54        -0.2633
   1161  N7        -3.4180   11.7050   27.0490 N.ar   54  G54        -0.2173
   1162  C8        -2.3260   11.7050   26.3320 C.ar   54  G54         0.1817
   1163  N9        -2.3520   10.8340   25.2700 N.ar   54  G54        -0.2693
   1164  OP1        1.9890   15.4610   27.1320 O.2    54  G54        -0.5172
   1165  OP2       -0.2170   14.7100   28.2010 O.co2  54  G54        -0.4373
   1166  P         -0.6990   14.7180   21.7150 P.3    55  A55         0.2141
   1167  C5'       -0.5450   13.3330   19.5010 C.3    55  A55         0.1812
   1168  O5'       -1.3030   14.2030   20.3350 O.3    55  A55        -0.3114
   1169  C4'       -1.3640   12.7870   18.3560 C.3    55  A55         0.1773
   1170  O4'       -2.1570   11.6540   18.8180 O.3    55  A55        -0.3307
   1171  C3'       -2.3510   13.7720   17.7140 C.3    55  A55         0.1860
   1172  O3'       -2.3940   13.5490   16.3050 O.3    55  A55        -0.3112
   1173  C2'       -3.6840   13.3520   18.3260 C.3    55  A55         0.2309
   1174  O2'       -4.8270   13.6640   17.5580 O.3    55  A55        -0.2156
   1175  C1'       -3.5010   11.8460   18.4370 C.3    55  A55         0.2408
   1176  N1        -6.8110    8.0240   19.2710 N.ar   55  A55        -0.2040
   1177  C2        -6.0250    8.3160   18.2210 C.ar   55  A55         0.2016
   1178  N3        -5.1760    9.3300   18.0690 N.ar   55  A55        -0.2048
   1179  C4        -5.1710   10.1040   19.1710 C.ar   55  A55         0.1692
   1180  C5        -5.9080    9.9230   20.3270 C.ar   55  A55         0.1518
   1181  C6        -6.7680    8.8220   20.3610 C.ar   55  A55         0.1919
   1182  N6        -7.5360    8.5460   21.4150 N.pl3  55  A55        -0.1054
   1183  N7        -5.6450   10.9230   21.2560 N.ar   55  A55        -0.2193
   1184  C8        -4.7580   11.6760   20.6540 C.ar   55  A55         0.1816
   1185  N9        -4.4100   11.2220   19.4020 N.ar   55  A55        -0.2693
   1186  OP1        0.3640   15.7120   21.4030 O.2    55  A55        -0.5172
   1187  OP2       -1.8350   15.1330   22.5790 O.co2  55  A55        -0.4373
   1188  P         -1.3840   14.3320   15.3230 P.3    56  A56         0.2141
   1189  C5'       -3.3140   15.8760   14.3910 C.3    56  A56         0.1812
   1190  O5'       -2.3150   14.8820   14.1470 O.3    56  A56        -0.3114
   1191  C4'       -4.5700   15.5910   13.6060 C.3    56  A56         0.1773
   1192  O4'       -4.2160   15.3940   12.2050 O.3    56  A56        -0.3307
   1193  C3'       -5.3130   14.3180   14.0270 C.3    56  A56         0.1860
   1194  O3'       -6.6940   14.4440   13.7080 O.3    56  A56        -0.3112
   1195  C2'       -4.7530   13.2900   13.0650 C.3    56  A56         0.2309
   1196  O2'       -5.5830   12.1690   12.8710 O.3    56  A56        -0.2156
   1197  C1'       -4.6620   14.1240   11.7900 C.3    56  A56         0.2408
   1198  N1        -4.2110   12.3700    7.0010 N.ar   56  A56        -0.2040
   1199  C2        -5.2630   12.8040    7.7040 C.ar   56  A56         0.2016
   1200  N3        -5.3120   13.2580    8.9590 N.ar   56  A56        -0.2048
   1201  C4        -4.0860   13.2260    9.5140 C.ar   56  A56         0.1692
   1202  C5        -2.9110   12.8040    8.9260 C.ar   56  A56         0.1518
   1203  C6        -2.9910   12.3550    7.6030 C.ar   56  A56         0.1919
   1204  N6        -1.9350   11.9110    6.9070 N.pl3  56  A56        -0.1054
   1205  N7        -1.8500   12.9070    9.8160 N.ar   56  A56        -0.2193
   1206  C8        -2.3920   13.3920   10.9020 C.ar   56  A56         0.1816
   1207  N9        -3.7410   13.6000   10.7860 N.ar   56  A56        -0.2693
   1208  OP1       -0.4570   13.3300   14.7230 O.2    56  A56        -0.5172
   1209  OP2       -0.8760   15.5140   16.0710 O.co2  56  A56        -0.4373
   1210  P         -7.6970   15.3100   14.5970 P.3    57  G57         0.2141
   1211  C5'       -8.3280   17.3140   13.0330 C.3    57  G57         0.1812
   1212  O5'       -7.5080   16.8020   14.0800 O.3    57  G57        -0.3114
   1213  C4'       -7.6450   17.2000   11.6940 C.3    57  G57         0.1773
   1214  O4'       -7.6010   15.8140   11.2820 O.3    57  G57        -0.3307
   1215  C3'       -8.3310   17.9040   10.5370 C.3    57  G57         0.1860
   1216  O3'       -8.0480   19.2900   10.5200 O.3    57  G57        -0.3112
   1217  C2'       -7.8130   17.1400    9.3280 C.3    57  G57         0.2309
   1218  O2'       -6.4850   17.5340    9.0190 O.3    57  G57        -0.2156
   1219  C1'       -7.7540   15.7200    9.8790 C.3    57  G57         0.2408
   1220  N1       -10.5340   12.9730    6.5850 N.ar   57  G57        -0.1709
   1221  C2        -9.3380   13.6100    6.3680 C.ar   57  G57         0.2606
   1222  N2        -8.8280   13.4800    5.1320 N.pl3  57  G57        -0.0859
   1223  N3        -8.6970   14.3080    7.2910 N.ar   57  G57        -0.1918
   1224  C4        -9.3650   14.3190    8.4590 C.ar   57  G57         0.1723
   1225  C5       -10.5640   13.7130    8.7780 C.ar   57  G57         0.1748
   1226  C6       -11.2410   12.9760    7.7850 C.ar   57  G57         0.3023
   1227  O6       -12.3210   12.3670    7.8690 O.2    57  G57        -0.2633
   1228  N7       -10.9250   13.9630   10.0930 N.ar   57  G57        -0.2173
   1229  C8        -9.9500   14.6880   10.5480 C.ar   57  G57         0.1817
   1230  N9        -8.9770   14.9430    9.6100 N.ar   57  G57        -0.2693
   1231  OP1       -7.2800   15.2880   16.0190 O.3    57  G57        -0.4373
   1232  OP2       -9.0380   14.8130   14.1730 O.co2  57  G57        -0.5172
   1233  P         -9.0370   20.3010    9.7760 P.3    58  C58         0.2141
   1234  C5'      -10.1060   19.6690    7.4880 C.3    58  C58         0.1812
   1235  O5'       -8.9530   19.7810    8.2870 O.3    58  C58        -0.3114
   1236  C4'       -9.7670   18.9610    6.2150 C.3    58  C58         0.1773
   1237  O4'       -9.7530   17.5310    6.4510 O.3    58  C58        -0.3307
   1238  C3'      -10.7620   19.1530    5.0850 C.3    58  C58         0.1860
   1239  O3'      -10.4840   20.3290    4.3610 O.3    58  C58        -0.3112
   1240  C2'      -10.5700   17.9000    4.2620 C.3    58  C58         0.2309
   1241  O2'       -9.3930   18.0250    3.4800 O.3    58  C58        -0.2156
   1242  C1'      -10.3080   16.8610    5.3520 C.3    58  C58         0.2420
   1243  N1       -11.5500   16.2050    5.8060 N.ar   58  C58        -0.2535
   1244  C2       -12.1570   15.2890    4.9530 C.ar   58  C58         0.3532
   1245  O2       -11.6490   15.0600    3.8420 O.2    58  C58        -0.2443
   1246  N3       -13.2900   14.6780    5.3650 N.ar   58  C58        -0.1739
   1247  C4       -13.7970   14.9670    6.5680 C.ar   58  C58         0.1759
   1248  N4       -14.9170   14.3320    6.9310 N.pl3  58  C58        -0.1070
   1249  C5       -13.1860   15.8850    7.4600 C.ar   58  C58         0.0566
   1250  C6       -12.0670   16.4790    7.0390 C.ar   58  C58         0.0850
   1251  OP1       -8.4080   21.6360    9.7790 O.2    58  C58        -0.5172
   1252  OP2      -10.4360   20.1180   10.2440 O.co2  58  C58        -0.4373
   1253  P        -11.6660   21.2840    3.8420 P.3    59  G59         0.2141
   1254  C5'      -11.6080   20.1590    1.4930 C.3    59  G59         0.1812
   1255  O5'      -12.3310   20.4350    2.6850 O.3    59  G59        -0.3114
   1256  C4'      -12.3550   19.2090    0.5980 C.3    59  G59         0.1773
   1257  O4'      -12.4690   17.9050    1.2270 O.3    59  G59        -0.3307
   1258  C3'      -13.7890   19.5910    0.2840 C.3    59  G59         0.1860
   1259  O3'      -13.8720   20.5700   -0.7350 O.3    59  G59        -0.3112
   1260  C2'      -14.4150   18.2610   -0.1050 C.3    59  G59         0.2309
   1261  O2'      -14.1780   17.9610   -1.4750 O.3    59  G59        -0.2156
   1262  C1'      -13.6480   17.2690    0.7940 C.3    59  G59         0.2408
   1263  N1       -17.4630   14.3890    2.2290 N.ar   59  G59        -0.1709
   1264  C2       -16.8090   14.4630    1.0270 C.ar   59  G59         0.2606
   1265  N2       -17.2640   13.6540    0.0480 N.pl3  59  G59        -0.0859
   1266  N3       -15.7910   15.2740    0.8020 N.ar   59  G59        -0.1918
   1267  C4       -15.4860   16.0040    1.8920 C.ar   59  G59         0.1723
   1268  C5       -16.0690   16.0120    3.1340 C.ar   59  G59         0.1748
   1269  C6       -17.1570   15.1280    3.3590 C.ar   59  G59         0.3023
   1270  O6       -17.8260   14.9700    4.3880 O.2    59  G59        -0.2633
   1271  N7       -15.4400   16.9280    3.9750 N.ar   59  G59        -0.2173
   1272  C8       -14.5060   17.4680    3.2290 C.ar   59  G59         0.1817
   1273  N9       -14.4720   16.9160    1.9600 N.ar   59  G59        -0.2693
   1274  OP1      -11.0010   22.4790    3.2520 O.2    59  G59        -0.5172
   1275  OP2      -12.6800   21.4560    4.9200 O.co2  59  G59        -0.4373
   1276  P        -14.8020   21.8640   -0.5510 P.3    60  A60         0.2141
   1277  C5'      -17.3330   22.0530    0.1070 C.3    60  A60         0.1812
   1278  O5'      -16.2430   21.2380   -0.2920 O.3    60  A60        -0.3114
   1279  C4'      -18.6000   21.6180   -0.5770 C.3    60  A60         0.1773
   1280  O4'      -18.4960   21.8650   -1.9990 O.3    60  A60        -0.3307
   1281  C3'      -18.9270   20.1400   -0.4900 C.3    60  A60         0.1860
   1282  O3'      -19.5520   19.8160    0.7310 O.3    60  A60        -0.3112
   1283  C2'      -19.8300   19.9310   -1.6890 C.3    60  A60         0.2309
   1284  O2'      -21.1250   20.4470   -1.3980 O.3    60  A60        -0.2156
   1285  C1'      -19.1940   20.8690   -2.7030 C.3    60  A60         0.2408
   1286  N1       -18.8500   17.8520   -6.7820 N.ar   60  A60        -0.2040
   1287  C2       -19.8890   18.2170   -6.0230 C.ar   60  A60         0.2016
   1288  N3       -19.8860   19.0040   -4.9540 N.ar   60  A60        -0.2048
   1289  C4       -18.6400   19.4310   -4.6830 C.ar   60  A60         0.1692
   1290  C5       -17.4720   19.1220   -5.3480 C.ar   60  A60         0.1518
   1291  C6       -17.6100   18.3020   -6.4720 C.ar   60  A60         0.1919
   1292  N6       -16.5800   17.9230   -7.2340 N.pl3  60  A60        -0.1054
   1293  N7       -16.3800   19.7480   -4.7640 N.ar   60  A60        -0.2193
   1294  C8       -16.9090   20.4000   -3.7570 C.ar   60  A60         0.1816
   1295  N9       -18.2690   20.2260   -3.6470 N.ar   60  A60        -0.2693
   1296  OP1      -14.8470   22.5390   -1.8780 O.2    60  A60        -0.5172
   1297  OP2      -14.3730   22.6430    0.6340 O.co2  60  A60        -0.4373
   1298  P        -19.0570   18.5520    1.5740 P.3    61  G61         0.2141
   1299  C5'      -20.9860   17.1170    0.5360 C.3    61  G61         0.1812
   1300  O5'      -19.5950   17.3090    0.7460 O.3    61  G61        -0.3114
   1301  C4'      -21.2200   16.2140   -0.6420 C.3    61  G61         0.1773
   1302  O4'      -20.5850   16.7940   -1.8020 O.3    61  G61        -0.3307
   1303  C3'      -20.6250   14.8160   -0.5330 C.3    61  G61         0.1860
   1304  O3'      -21.5050   13.9350    0.1440 O.3    61  G61        -0.3112
   1305  C2'      -20.3750   14.4330   -1.9940 C.3    61  G61         0.2309
   1306  O2'      -21.5670   13.9660   -2.6050 O.3    61  G61        -0.2156
   1307  C1'      -20.0420   15.7820   -2.6250 C.3    61  G61         0.2408
   1308  N1       -15.9670   15.5060   -5.6750 N.ar   61  G61        -0.1709
   1309  C2       -17.2500   15.0610   -5.8960 C.ar   61  G61         0.2606
   1310  N2       -17.4820   14.4870   -7.0830 N.pl3  61  G61        -0.0859
   1311  N3       -18.2350   15.1850   -5.0190 N.ar   61  G61        -0.1918
   1312  C4       -17.8220   15.7890   -3.8920 C.ar   61  G61         0.1723
   1313  C5       -16.5660   16.2570   -3.5710 C.ar   61  G61         0.1748
   1314  C6       -15.5120   16.1210   -4.5190 C.ar   61  G61         0.3023
   1315  O6       -14.3260   16.4820   -4.4240 O.2    61  G61        -0.2633
   1316  N7       -16.5520   16.8130   -2.3040 N.ar   61  G61        -0.2173
   1317  C8       -17.7780   16.6680   -1.8750 C.ar   61  G61         0.1817
   1318  N9       -18.5970   16.0390   -2.7890 N.ar   61  G61        -0.2693
   1319  OP1      -19.7890   18.6590    2.8730 O.3    61  G61        -0.4373
   1320  OP2      -17.5760   18.4250    1.5330 O.co2  61  G61        -0.5172
   1321  P        -20.9820   12.5940    0.8580 P.3    62  A62         0.2141
   1322  C5'      -21.9380   11.0560   -1.0200 C.3    62  A62         0.1812
   1323  O5'      -20.8050   11.5520   -0.3220 O.3    62  A62        -0.3114
   1324  C4'      -21.5300   10.1990   -2.1890 C.3    62  A62         0.1773
   1325  O4'      -20.9110   11.0260   -3.2070 O.3    62  A62        -0.3307
   1326  C3'      -20.4890    9.1340   -1.8940 C.3    62  A62         0.1860
   1327  O3'      -21.0550    7.9620   -1.3320 O.3    62  A62        -0.3112
   1328  C2'      -19.8440    8.9040   -3.2520 C.3    62  A62         0.2309
   1329  O2'      -20.6640    8.0590   -4.0480 O.3    62  A62        -0.2156
   1330  C1'      -19.8780   10.3090   -3.8510 C.3    62  A62         0.2408
   1331  N1       -15.3420   11.8920   -5.8430 N.ar   62  A62        -0.2040
   1332  C2       -16.3300   11.1520   -6.3740 C.ar   62  A62         0.2016
   1333  N3       -17.4830   10.7690   -5.8110 N.ar   62  A62        -0.2048
   1334  C4       -17.5870   11.2330   -4.5480 C.ar   62  A62         0.1692
   1335  C5       -16.6580   12.0050   -3.8790 C.ar   62  A62         0.1518
   1336  C6       -15.4840   12.3420   -4.5690 C.ar   62  A62         0.1919
   1337  N6       -14.5170   13.0780   -4.0110 N.pl3  62  A62        -0.1054
   1338  N7       -17.0860   12.3020   -2.5920 N.ar   62  A62        -0.2193
   1339  C8       -18.2530   11.7160   -2.5020 C.ar   62  A62         0.1816
   1340  N9       -18.6170   11.0460   -3.6430 N.ar   62  A62        -0.2693
   1341  OP1      -22.0990   12.0490    1.6750 O.3    62  A62        -0.4373
   1342  OP2      -19.6490   12.8780    1.4500 O.co2  62  A62        -0.5172
   1343  P        -20.2140    7.1300   -0.2510 P.3    63  G63         0.2141
   1344  C5'      -17.6140    6.8230   -0.3930 C.3    63  G63         0.1812
   1345  O5'      -18.8690    6.8240   -1.0480 O.3    63  G63        -0.3114
   1346  C4'      -16.6450    7.7930   -1.0250 C.3    63  G63         0.1773
   1347  O4'      -17.1170    9.1640   -0.8630 O.3    63  G63        -0.3307
   1348  C3'      -15.2580    7.7930   -0.3980 C.3    63  G63         0.1860
   1349  O3'      -14.4350    6.7930   -0.9570 O.3    63  G63        -0.3112
   1350  C2'      -14.7610    9.2020   -0.6620 C.3    63  G63         0.2309
   1351  O2'      -14.3410    9.3290   -2.0110 O.3    63  G63        -0.2156
   1352  C1'      -16.0440   10.0020   -0.4940 C.3    63  G63         0.2408
   1353  N1       -14.4630   12.8090    3.4580 N.ar   63  G63        -0.1709
   1354  C2       -13.9020   12.6750    2.2010 C.ar   63  G63         0.2606
   1355  N2       -12.7830   13.3870    1.9720 N.pl3  63  G63        -0.0859
   1356  N3       -14.3930   11.9050    1.2400 N.ar   63  G63        -0.1918
   1357  C4       -15.5160   11.2790    1.6500 C.ar   63  G63         0.1723
   1358  C5       -16.1600   11.3370    2.8730 C.ar   63  G63         0.1748
   1359  C6       -15.6190   12.1550    3.8980 C.ar   63  G63         0.3023
   1360  O6       -16.0500   12.3340    5.0540 O.2    63  G63        -0.2633
   1361  N7       -17.2900   10.5200    2.8830 N.ar   63  G63        -0.2173
   1362  C8       -17.3090    9.9990    1.6920 C.ar   63  G63         0.1817
   1363  N9       -16.2620   10.4090    0.9020 N.ar   63  G63        -0.2693
   1364  OP1      -20.9060    5.8380   -0.0020 O.2    63  G63        -0.5172
   1365  OP2      -19.9520    8.0510    0.8860 O.co2  63  G63        -0.4373
   1366  P        -13.3150    6.0800   -0.0670 P.3    64  C64         0.2141
   1367  C5'      -11.6120    7.7940   -1.0690 C.3    64  C64         0.1812
   1368  O5'      -12.1920    7.1960    0.0780 O.3    64  C64        -0.3114
   1369  C4'      -10.6070    8.8190   -0.6530 C.3    64  C64         0.1773
   1370  O4'      -11.2870    9.9320   -0.0240 O.3    64  C64        -0.3307
   1371  C3'       -9.6360    8.3400    0.4060 C.3    64  C64         0.1860
   1372  O3'       -8.5830    7.5620   -0.1390 O.3    64  C64        -0.3112
   1373  C2'       -9.1960    9.6360    1.0650 C.3    64  C64         0.2309
   1374  O2'       -8.2160   10.2870    0.2700 O.3    64  C64        -0.2156
   1375  C1'      -10.4920   10.4540    1.0180 C.3    64  C64         0.2420
   1376  N1       -11.2710   10.3870    2.2800 N.ar   64  C64        -0.2535
   1377  C2       -10.9050   11.2460    3.3040 C.ar   64  C64         0.3532
   1378  O2        -9.9480   12.0210    3.1260 O.2    64  C64        -0.2443
   1379  N3       -11.5870   11.2210    4.4650 N.ar   64  C64        -0.1739
   1380  C4       -12.6100   10.3920    4.6310 C.ar   64  C64         0.1759
   1381  N4       -13.2380   10.4540    5.8140 N.pl3  64  C64        -0.1070
   1382  C5       -13.0180    9.4930    3.6030 C.ar   64  C64         0.0566
   1383  C6       -12.3210    9.5300    2.4500 C.ar   64  C64         0.0850
   1384  OP1      -12.7860    4.9330   -0.8590 O.2    64  C64        -0.5172
   1385  OP2      -13.8670    5.8690    1.2950 O.co2  64  C64        -0.4373
   1386  P         -7.7580    6.5480    0.7870 P.3    65  G65         0.2141
   1387  C5'       -6.5890    7.2980    2.9970 C.3    65  G65         0.1812
   1388  O5'       -6.8810    7.5470    1.6400 O.3    65  G65        -0.3114
   1389  C4'       -6.2910    8.5970    3.6780 C.3    65  G65         0.1773
   1390  O4'       -7.5250    9.3310    3.8620 O.3    65  G65        -0.3307
   1391  C3'       -5.6990    8.5210    5.0720 C.3    65  G65         0.1860
   1392  O3'       -4.3050    8.2810    5.0470 O.3    65  G65        -0.3112
   1393  C2'       -6.0640    9.8770    5.6500 C.3    65  G65         0.2309
   1394  O2'       -5.1910   10.8850    5.1520 O.3    65  G65        -0.2156
   1395  C1'       -7.4470   10.1040    5.0360 C.3    65  G65         0.2408
   1396  N1        -9.7090   10.6360    9.5970 N.ar   65  G65        -0.1709
   1397  C2        -8.5560   11.2340    9.1340 C.ar   65  G65         0.2606
   1398  N2        -7.9380   12.0750    9.9810 N.pl3  65  G65        -0.0859
   1399  N3        -8.0600   11.0250    7.9240 N.ar   65  G65        -0.1918
   1400  C4        -8.8040   10.1540    7.2110 C.ar   65  G65         0.1723
   1401  C5        -9.9650    9.5090    7.5890 C.ar   65  G65         0.1748
   1402  C6       -10.4970    9.7420    8.8730 C.ar   65  G65         0.3023
   1403  O6       -11.5230    9.2410    9.3610 O.2    65  G65        -0.2633
   1404  N7       -10.4360    8.6860    6.5830 N.ar   65  G65        -0.2173
   1405  C8        -9.5650    8.8360    5.6160 C.ar   65  G65         0.1817
   1406  N9        -8.5500    9.7020    5.9300 N.ar   65  G65        -0.2693
   1407  OP1       -6.8260    5.7700   -0.0730 O.2    65  G65        -0.5172
   1408  OP2       -8.6710    5.7950    1.6780 O.co2  65  G65        -0.4373
   1409  P         -3.6860    7.0180    5.8170 P.3    66  C66         0.2141
   1410  C5'       -2.9810    8.6530    7.7000 C.3    66  C66         0.1812
   1411  O5'       -3.6950    7.4940    7.3270 O.3    66  C66        -0.3114
   1412  C4'       -3.4690    9.1990    9.0140 C.3    66  C66         0.1773
   1413  O4'       -4.8310    9.6890    8.8870 O.3    66  C66        -0.3307
   1414  C3'       -3.5420    8.2020   10.1570 C.3    66  C66         0.1860
   1415  O3'       -2.2790    7.9840   10.7500 O.3    66  C66        -0.3112
   1416  C2'       -4.5480    8.8540   11.0910 C.3    66  C66         0.2309
   1417  O2'       -3.9370    9.9270   11.7950 O.3    66  C66        -0.2156
   1418  C1'       -5.5380    9.4480   10.0860 C.3    66  C66         0.2420
   1419  N1        -6.6610    8.5280    9.7850 N.ar   66  C66        -0.2535
   1420  C2        -7.6900    8.4060   10.7170 C.ar   66  C66         0.3532
   1421  O2        -7.6090    9.0550   11.7670 O.2    66  C66        -0.2443
   1422  N3        -8.7390    7.5950   10.4420 N.ar   66  C66        -0.1739
   1423  C4        -8.7880    6.9170    9.3010 C.ar   66  C66         0.1759
   1424  N4        -9.8490    6.1300    9.0900 N.pl3  66  C66        -0.1070
   1425  C5        -7.7510    7.0190    8.3280 C.ar   66  C66         0.0566
   1426  C6        -6.7190    7.8260    8.6140 C.ar   66  C66         0.0850
   1427  OP1       -2.2550    6.9230    5.4180 O.2    66  C66        -0.5172
   1428  OP2       -4.5710    5.8440    5.6540 O.co2  66  C66        -0.4373
   1429  P         -1.9360    6.5700   11.4210 P.3    67  G67         0.2141
   1430  C5'       -2.8310    7.4180   13.7500 C.3    67  G67         0.1812
   1431  O5'       -2.9280    6.4920   12.6690 O.3    67  G67        -0.3114
   1432  C4'       -3.6420    6.9440   14.9370 C.3    67  G67         0.1773
   1433  O4'       -5.0440    6.8310   14.5490 O.3    67  G67        -0.3307
   1434  C3'       -3.2470    5.5680   15.4680 C.3    67  G67         0.1860
   1435  O3'       -3.5340    5.5150   16.8680 O.3    67  G67        -0.3112
   1436  C2'       -4.2090    4.6480   14.7320 C.3    67  G67         0.2309
   1437  O2'       -4.4430    3.3950   15.3450 O.3    67  G67        -0.2156
   1438  C1'       -5.4750    5.4900   14.7060 C.3    67  G67         0.2408
   1439  N1       -10.1040    3.8560   13.2850 N.ar   67  G67        -0.1709
   1440  C2        -9.6260    4.1000   14.5460 C.ar   67  G67         0.2606
   1441  N2       -10.4920    3.8630   15.5480 N.pl3  67  G67        -0.0859
   1442  N3        -8.3990    4.5260   14.8030 N.ar   67  G67        -0.1918
   1443  C4        -7.6680    4.6980   13.6760 C.ar   67  G67         0.1723
   1444  C5        -8.0500    4.4810   12.3690 C.ar   67  G67         0.1748
   1445  C6        -9.3710    4.0260   12.1130 C.ar   67  G67         0.3023
   1446  O6        -9.8920    3.7770   11.0140 O.2    67  G67        -0.2633
   1447  N7        -7.0180    4.7660   11.4750 N.ar   67  G67        -0.2173
   1448  C8        -6.0370    5.1530   12.2530 C.ar   67  G67         0.1817
   1449  N9        -6.3660    5.1420   13.5960 N.ar   67  G67        -0.2693
   1450  OP1       -0.5540    6.7850   11.9600 O.3    67  G67        -0.4373
   1451  OP2       -2.3010    5.4280   10.5580 O.co2  67  G67        -0.5172
   1452  P         -2.3720    5.7760   17.9470 P.3    68  G68         0.2141
   1453  C5'       -1.8760    3.2010   17.9050 C.3    68  G68         0.1812
   1454  O5'       -1.4100    4.5280   17.7580 O.3    68  G68        -0.3114
   1455  C4'       -0.9340    2.2490   17.2210 C.3    68  G68         0.1773
   1456  O4'        0.3450    2.2290   17.8800 O.3    68  G68        -0.3307
   1457  C3'       -1.3580    0.7950   17.1590 C.3    68  G68         0.1860
   1458  O3'       -2.1940    0.6110   16.0260 O.3    68  G68        -0.3112
   1459  C2'       -0.0250    0.0220   17.0570 C.3    68  G68         0.2309
   1460  O2'        0.2480   -0.3580   15.7140 O.3    68  G68        -0.2156
   1461  C1'        1.0210    1.0600   17.5090 C.3    68  G68         0.2408
   1462  N1         5.7080    1.6240   19.2960 N.ar   68  G68        -0.1709
   1463  C2         5.1040    2.1900   18.1970 C.ar   68  G68         0.2606
   1464  N2         5.8600    3.0310   17.4710 N.pl3  68  G68        -0.0859
   1465  N3         3.8480    1.9420   17.8450 N.ar   68  G68        -0.1918
   1466  C4         3.2320    1.0740   18.6880 C.ar   68  G68         0.1723
   1467  C5         3.7450    0.4570   19.8120 C.ar   68  G68         0.1748
   1468  C6         5.0970    0.7300   20.1810 C.ar   68  G68         0.3023
   1469  O6         5.7370    0.2810   21.1450 O.2    68  G68        -0.2633
   1470  N7         2.7810   -0.3650   20.4030 N.ar   68  G68        -0.2173
   1471  C8         1.7220   -0.2300   19.6440 C.ar   68  G68         0.1817
   1472  N9         1.9320    0.6290   18.5880 N.ar   68  G68        -0.2693
   1473  OP1       -3.0180    5.7140   19.2830 O.3    68  G68        -0.4373
   1474  OP2       -1.6080    6.9930   17.5780 O.co2  68  G68        -0.5172
   1475  P         -3.2400   -0.5970   15.8900 P.3    69  U69         0.2141
   1476  C5'       -5.0250    0.3420   17.6030 C.3    69  U69         0.1812
   1477  O5'       -4.6350    0.0840   16.2650 O.3    69  U69        -0.3114
   1478  C4'       -6.5280    0.4040   17.6920 C.3    69  U69         0.1773
   1479  O4'       -7.0130    1.4210   16.7820 O.3    69  U69        -0.3307
   1480  C3'       -7.2640   -0.8570   17.2730 C.3    69  U69         0.1860
   1481  O3'       -7.3390   -1.7970   18.3370 O.3    69  U69        -0.3112
   1482  C2'       -8.6230   -0.3250   16.8230 C.3    69  U69         0.2309
   1483  O2'       -9.4610   -0.0760   17.9440 O.3    69  U69        -0.2156
   1484  C1'       -8.2400    1.0290   16.2170 C.3    69  U69         0.2420
   1485  N1        -8.0790    0.9940   14.7430 N.ar   69  U69        -0.2534
   1486  C2        -9.1870    0.7620   13.9480 C.ar   69  U69         0.3546
   1487  O2       -10.3060    0.5640   14.4040 O.2    69  U69        -0.2443
   1488  N3        -8.9430    0.7620   12.5930 N.ar   69  U69        -0.1530
   1489  C4        -7.7420    0.9720   11.9480 C.ar   69  U69         0.2846
   1490  O4        -7.6900    0.9360   10.7070 O.2    69  U69        -0.2650
   1491  C5        -6.6490    1.2170   12.8410 C.ar   69  U69         0.0814
   1492  C6        -6.8510    1.2270   14.1730 C.ar   69  U69         0.0870
   1493  OP1       -2.9100   -1.7110   16.8230 O.3    69  U69        -0.4373
   1494  OP2       -3.3330   -0.8560   14.4280 O.co2  69  U69        -0.5172
   1495  P         -7.3960   -3.3690   18.0330 P.3    70  G70         0.2141
   1496  C5'       -9.8300   -3.5630   18.9640 C.3    70  G70         0.1812
   1497  O5'       -8.9450   -3.6590   17.8600 O.3    70  G70        -0.3114
   1498  C4'      -11.1980   -4.0290   18.5610 C.3    70  G70         0.1773
   1499  O4'      -11.7560   -3.1140   17.5850 O.3    70  G70        -0.3307
   1500  C3'      -11.2270   -5.3750   17.8580 C.3    70  G70         0.1860
   1501  O3'      -11.2200   -6.4540   18.7710 O.3    70  G70        -0.3112
   1502  C2'      -12.4960   -5.2930   17.0350 C.3    70  G70         0.2309
   1503  O2'      -13.6190   -5.4750   17.8790 O.3    70  G70        -0.2156
   1504  C1'      -12.4790   -3.8330   16.6110 C.3    70  G70         0.2408
   1505  N1       -13.0690   -3.9180   11.6090 N.ar   70  G70        -0.1709
   1506  C2       -13.9580   -4.2670   12.5940 C.ar   70  G70         0.2606
   1507  N2       -15.1600   -4.6760   12.1570 N.pl3  70  G70        -0.0859
   1508  N3       -13.6900   -4.2190   13.8890 N.ar   70  G70        -0.1918
   1509  C4       -12.4260   -3.7800   14.0920 C.ar   70  G70         0.1723
   1510  C5       -11.4610   -3.4030   13.1780 C.ar   70  G70         0.1748
   1511  C6       -11.7670   -3.4660   11.7970 C.ar   70  G70         0.3023
   1512  O6       -11.0500   -3.1740   10.8200 O.2    70  G70        -0.2633
   1513  N7       -10.2840   -3.0240   13.8110 N.ar   70  G70        -0.2173
   1514  C8       -10.5570   -3.1530   15.0830 C.ar   70  G70         0.1817
   1515  N9       -11.8320   -3.6180   15.3110 N.ar   70  G70        -0.2693
   1516  OP1       -6.9860   -4.0910   19.2590 O.3    70  G70        -0.4373
   1517  OP2       -6.7160   -3.6120   16.7280 O.co2  70  G70        -0.5172
   1518  P        -10.7250   -7.9030   18.2980 P.3    71  A71         0.2141
   1519  C5'      -13.1700   -8.6670   17.7100 C.3    71  A71         0.1812
   1520  O5'      -11.8460   -8.3830   17.2780 O.3    71  A71        -0.3114
   1521  C4'      -14.0790   -8.9150   16.5320 C.3    71  A71         0.1773
   1522  O4'      -14.0860   -7.7500   15.6710 O.3    71  A71        -0.3307
   1523  C3'      -13.6680  -10.0530   15.6090 C.3    71  A71         0.1860
   1524  O3'      -14.0740  -11.3230   16.0920 O.3    71  A71        -0.3112
   1525  C2'      -14.3210   -9.6640   14.2910 C.3    71  A71         0.2309
   1526  O2'      -15.7090   -9.9570   14.3350 O.3    71  A71        -0.2156
   1527  C1'      -14.1640   -8.1470   14.3190 C.3    71  A71         0.2408
   1528  N1       -12.0660   -6.7940    9.8210 N.ar   71  A71        -0.2040
   1529  C2       -13.2880   -7.2270   10.1610 C.ar   71  A71         0.2016
   1530  N3       -13.7650   -7.5720   11.3570 N.ar   71  A71        -0.2048
   1531  C4       -12.8180   -7.4280   12.2950 C.ar   71  A71         0.1692
   1532  C5       -11.5170   -6.9960   12.1120 C.ar   71  A71         0.1518
   1533  C6       -11.1370   -6.6630   10.8000 C.ar   71  A71         0.1919
   1534  N6        -9.9170   -6.2240   10.4710 N.pl3  71  A71        -0.1054
   1535  N7       -10.8280   -6.9780   13.3220 N.ar   71  A71        -0.2193
   1536  C8       -11.7220   -7.3940   14.1880 C.ar   71  A71         0.1816
   1537  N9       -12.9440   -7.6840   13.6340 N.ar   71  A71        -0.2693
   1538  OP1      -10.7650   -8.7660   19.5090 O.3    71  A71        -0.4373
   1539  OP2       -9.4700   -7.7680   17.5240 O.co2  71  A71        -0.5172
   1540  P        -13.3160  -12.6560   15.6020 P.3    72  A72         0.2141
   1541  C5'      -15.1190  -13.1570   13.7720 C.3    72  A72         0.1812
   1542  O5'      -13.7760  -12.8440   14.0930 O.3    72  A72        -0.3114
   1543  C4'      -15.3150  -13.1560   12.2800 C.3    72  A72         0.1773
   1544  O4'      -15.0700  -11.8220   11.7600 O.3    72  A72        -0.3307
   1545  C3'      -14.3590  -14.0400   11.4950 C.3    72  A72         0.1860
   1546  O3'      -14.7510  -15.4060   11.4870 O.3    72  A72        -0.3112
   1547  C2'      -14.3510  -13.3800   10.1200 C.3    72  A72         0.2309
   1548  O2'      -15.5260  -13.7220    9.3990 O.3    72  A72        -0.2156
   1549  C1'      -14.4380  -11.9010   10.4970 C.3    72  A72         0.2408
   1550  N1       -10.6160   -9.3870    8.0660 N.ar   72  A72        -0.2040
   1551  C2       -11.7900   -9.8860    7.6350 C.ar   72  A72         0.2016
   1552  N3       -12.7390  -10.5280    8.3140 N.ar   72  A72        -0.2048
   1553  C4       -12.3870  -10.6570    9.6010 C.ar   72  A72         0.1692
   1554  C5       -11.2180  -10.1990   10.1970 C.ar   72  A72         0.1518
   1555  C6       -10.2930   -9.5370    9.3750 C.ar   72  A72         0.1919
   1556  N6        -9.1300   -9.0520    9.8180 N.pl3  72  A72        -0.1054
   1557  N7       -11.1960  -10.5120   11.5490 N.ar   72  A72        -0.2193
   1558  C8       -12.3350  -11.1390   11.7350 C.ar   72  A72         0.1816
   1559  N9       -13.1090  -11.2620   10.6030 N.ar   72  A72        -0.2693
   1560  OP1      -13.8430  -13.7910   16.4030 O.3    72  A72        -0.4373
   1561  OP2      -11.8520  -12.4010   15.5430 O.co2  72  A72        -0.5172
   1562  P        -13.6400  -16.5710   11.4720 P.3    73  U73         0.2141
   1563  C5'      -13.9300  -16.7540    8.8830 C.3    73  U73         0.1812
   1564  O5'      -13.0750  -16.5200    9.9880 O.3    73  U73        -0.3114
   1565  C4'      -13.2610  -16.3750    7.5900 C.3    73  U73         0.1773
   1566  O4'      -13.0290  -14.9420    7.5560 O.3    73  U73        -0.3307
   1567  C3'      -11.8830  -16.9690    7.3640 C.3    73  U73         0.1860
   1568  O3'      -11.9180  -18.3190    6.9360 O.3    73  U73        -0.3112
   1569  C2'      -11.2730  -16.0040    6.3570 C.3    73  U73         0.2309
   1570  O2'      -11.7800  -16.2420    5.0520 O.3    73  U73        -0.2156
   1571  C1'      -11.8330  -14.6680    6.8510 C.3    73  U73         0.2420
   1572  N1       -10.8890  -13.9770    7.7590 N.ar   73  U73        -0.2534
   1573  C2        -9.8270  -13.3240    7.1670 C.ar   73  U73         0.3546
   1574  O2        -9.6640  -13.3080    5.9620 O.2    73  U73        -0.2443
   1575  N3        -8.9660  -12.6950    8.0330 N.ar   73  U73        -0.1530
   1576  C4        -9.0580  -12.6620    9.4090 C.ar   73  U73         0.2846
   1577  O4        -8.2010  -12.0500   10.0520 O.2    73  U73        -0.2650
   1578  C5       -10.1830  -13.3630    9.9510 C.ar   73  U73         0.0814
   1579  C6       -11.0390  -13.9840    9.1280 C.ar   73  U73         0.0870
   1580  OP1      -14.3290  -17.8740   11.6650 O.2    73  U73        -0.5172
   1581  OP2      -12.5140  -16.2030   12.3620 O.co2  73  U73        -0.4373
   1582  P        -10.8520  -19.3700    7.5230 P.3    74  C74         0.2141
   1583  C5'       -9.6220  -19.1990    5.2390 C.3    74  C74         0.1812
   1584  O5'       -9.5520  -19.0800    6.6510 O.3    74  C74        -0.3114
   1585  C4'       -8.5390  -18.4250    4.5340 C.3    74  C74         0.1773
   1586  O4'       -8.6390  -17.0050    4.8250 O.3    74  C74        -0.3307
   1587  C3'       -7.1040  -18.7640    4.8960 C.3    74  C74         0.1860
   1588  O3'       -6.6590  -19.9690    4.3000 O.3    74  C74        -0.3112
   1589  C2'       -6.3600  -17.5320    4.4050 C.3    74  C74         0.2309
   1590  O2'       -6.2380  -17.5640    2.9930 O.3    74  C74        -0.2156
   1591  C1'       -7.3490  -16.4220    4.7770 C.3    74  C74         0.2420
   1592  N1        -7.0270  -15.8440    6.1040 N.ar   74  C74        -0.2535
   1593  C2        -5.9450  -14.9660    6.1990 C.ar   74  C74         0.3532
   1594  O2        -5.3050  -14.6700    5.1820 O.2    74  C74        -0.2443
   1595  N3        -5.6240  -14.4490    7.4060 N.ar   74  C74        -0.1739
   1596  C4        -6.3250  -14.7830    8.4910 C.ar   74  C74         0.1759
   1597  N4        -5.9610  -14.2360    9.6550 N.pl3  74  C74        -0.1070
   1598  C5        -7.4270  -15.6800    8.4320 C.ar   74  C74         0.0566
   1599  C6        -7.7320  -16.1870    7.2280 C.ar   74  C74         0.0850
   1600  OP1      -11.3290  -20.7440    7.1980 O.2    74  C74        -0.5172
   1601  OP2      -10.5870  -19.0210    8.9450 O.co2  74  C74        -0.4373
   1602  P         -5.5990  -20.9170    5.0520 P.3    75  A75         0.2141
   1603  C5'       -3.7960  -19.7880    3.5240 C.3    75  A75         0.1812
   1604  O5'       -4.2020  -20.1840    4.8240 O.3    75  A75        -0.3114
   1605  C4'       -2.5370  -18.9680    3.5730 C.3    75  A75         0.1773
   1606  O4'       -2.8400  -17.6160    4.0030 O.3    75  A75        -0.3307
   1607  C3'       -1.4940  -19.4420    4.5670 C.3    75  A75         0.1860
   1608  O3'       -0.7270  -20.5300    4.0840 O.3    75  A75        -0.3112
   1609  C2'       -0.6870  -18.1780    4.8250 C.3    75  A75         0.2309
   1610  O2'        0.2070  -17.9220    3.7540 O.3    75  A75        -0.2156
   1611  C1'       -1.7850  -17.1170    4.8000 C.3    75  A75         0.2408
   1612  N1        -1.1290  -14.6460    9.3090 N.ar   75  A75        -0.2040
   1613  C2        -0.3940  -14.6710    8.1830 C.ar   75  A75         0.2016
   1614  N3        -0.6130  -15.3330    7.0390 N.ar   75  A75        -0.2048
   1615  C4        -1.7530  -16.0460    7.1160 C.ar   75  A75         0.1692
   1616  C5        -2.6130  -16.1200    8.2000 C.ar   75  A75         0.1518
   1617  C6        -2.2720  -15.3740    9.3410 C.ar   75  A75         0.1919
   1618  N6        -3.0260  -15.3740   10.4440 N.pl3  75  A75        -0.1054
   1619  N7        -3.6940  -16.9440    7.9300 N.ar   75  A75        -0.2193
   1620  C8        -3.4660  -17.3600    6.7040 C.ar   75  A75         0.1816
   1621  N9        -2.3130  -16.8510    6.1510 N.ar   75  A75        -0.2693
   1622  OP1       -5.5740  -22.2130    4.3170 O.2    75  A75        -0.5172
   1623  OP2       -5.9010  -20.9300    6.5090 O.co2  75  A75        -0.4373
   1624  P         -0.2300  -21.6680    5.0990 P.3    76  U76         0.2141
   1625  C5'        2.1050  -20.4750    5.2640 C.3    76  U76         0.1812
   1626  O5'        0.9440  -20.9630    5.9220 O.3    76  U76        -0.3114
   1627  C4'        2.9120  -19.5420    6.1370 C.3    76  U76         0.1773
   1628  O4'        2.1480  -18.3380    6.4390 O.3    76  U76        -0.3307
   1629  C3'        3.2970  -20.0600    7.5100 C.3    76  U76         0.1860
   1630  O3'        4.3590  -20.9960    7.5060 O.3    76  U76        -0.3112
   1631  C2'        3.6020  -18.7720    8.2600 C.3    76  U76         0.2309
   1632  O2'        4.8510  -18.2350    7.8530 O.3    76  U76        -0.2156
   1633  C1'        2.4960  -17.8640    7.7310 C.3    76  U76         0.2420
   1634  N1         1.3040  -17.9300    8.6110 N.ar   76  U76        -0.2534
   1635  C2         1.3140  -17.2380    9.8190 C.ar   76  U76         0.3546
   1636  O2         2.2460  -16.5470   10.2030 O.2    76  U76        -0.2443
   1637  N3         0.1710  -17.3790   10.5780 N.ar   76  U76        -0.1530
   1638  C4        -0.9460  -18.1310   10.2430 C.ar   76  U76         0.2846
   1639  O4        -1.9140  -18.1860   11.0020 O.2    76  U76        -0.2650
   1640  C5        -0.8690  -18.8190    8.9890 C.ar   76  U76         0.0814
   1641  C6         0.2260  -18.6940    8.2430 C.ar   76  U76         0.0870
   1642  OP1        0.3410  -22.7820    4.2940 O.2    76  U76        -0.5172
   1643  OP2       -1.3650  -21.9680    6.0140 O.co2  76  U76        -0.4373
   1644  P          4.3310  -22.2160    8.5560 P.3    77  U77         0.2141
   1645  C5'        5.5720  -20.7950   10.3530 C.3    77  U77         0.1812
   1646  O5'        4.4090  -21.5060    9.9740 O.3    77  U77        -0.3114
   1647  C4'        5.3610  -20.0690   11.6550 C.3    77  U77         0.1773
   1648  O4'        4.2050  -19.1940   11.5610 O.3    77  U77        -0.3307
   1649  C3'        5.0520  -20.9320   12.8650 C.3    77  U77         0.1860
   1650  O3'        6.2070  -21.5450   13.4010 O.3    77  U77        -0.3112
   1651  C2'        4.4050  -19.9290   13.8100 C.3    77  U77         0.2309
   1652  O2'        5.4040  -19.0900   14.3610 O.3    77  U77        -0.2156
   1653  C1'        3.5780  -19.0970   12.8260 C.3    77  U77         0.2420
   1654  N1         2.1860  -19.5900   12.7000 N.ar   77  U77        -0.2534
   1655  C2         1.3140  -19.2450   13.7090 C.ar   77  U77         0.3546
   1656  O2         1.6730  -18.5700   14.6510 O.2    77  U77        -0.2443
   1657  N3         0.0280  -19.7090   13.5630 N.ar   77  U77        -0.1530
   1658  C4        -0.4670  -20.4760   12.5280 C.ar   77  U77         0.2846
   1659  O4        -1.6570  -20.8330   12.5360 O.2    77  U77        -0.2650
   1660  C5         0.5030  -20.7970   11.5220 C.ar   77  U77         0.0814
   1661  C6         1.7610  -20.3530   11.6420 C.ar   77  U77         0.0870
   1662  OP1        5.6040  -22.9690    8.4030 O.2    77  U77        -0.5172
   1663  OP2        3.0190  -22.9050    8.4360 O.co2  77  U77        -0.4373
   1664  P          6.1340  -23.0470   13.9560 P.3    78  G78         0.2141
   1665  C5'        5.7770  -22.1390   16.3790 C.3    78  G78         0.1812
   1666  O5'        5.2800  -22.9070   15.2960 O.3    78  G78        -0.3114
   1667  C4'        4.7150  -21.8820   17.4200 C.3    78  G78         0.1773
   1668  O4'        3.6490  -21.0730   16.8640 O.3    78  G78        -0.3307
   1669  C3'        4.0010  -23.1030   17.9780 C.3    78  G78         0.1860
   1670  O3'        4.7750  -23.7370   18.9770 O.3    78  G78        -0.3112
   1671  C2'        2.7080  -22.5030   18.5190 C.3    78  G78         0.2309
   1672  O2'        2.9300  -21.9260   19.7980 O.3    78  G78        -0.2156
   1673  C1'        2.4330  -21.3790   17.5020 C.3    78  G78         0.2408
   1674  N1        -2.4590  -22.1870   16.6250 N.ar   78  G78        -0.1709
   1675  C2        -1.8260  -21.6770   17.7340 C.ar   78  G78         0.2606
   1676  N2        -2.6060  -21.3480   18.7760 N.pl3  78  G78        -0.0859
   1677  N3        -0.5170  -21.5050   17.8210 N.ar   78  G78        -0.1918
   1678  C4         0.1180  -21.8900   16.6890 C.ar   78  G78         0.1723
   1679  C5        -0.4040  -22.3970   15.5240 C.ar   78  G78         0.1748
   1680  C6        -1.8130  -22.5710   15.4430 C.ar   78  G78         0.3023
   1681  O6        -2.4730  -23.0100   14.4950 O.2    78  G78        -0.2633
   1682  N7         0.6080  -22.6570   14.6020 N.ar   78  G78        -0.2173
   1683  C8         1.7070  -22.3020   15.2160 C.ar   78  G78         0.1817
   1684  N9         1.4700  -21.8270   16.4830 N.ar   78  G78        -0.2693
   1685  OP1        7.5310  -23.3740   14.3450 O.3    78  G78        -0.4373
   1686  OP2        5.3470  -23.9070   13.0250 O.co2  78  G78        -0.5172
   1687  P          4.7220  -25.3230   19.2220 P.3    79  C79         0.2141
   1688  C5'        3.6270  -24.8250   21.5520 C.3    79  C79         0.1812
   1689  O5'        4.6790  -25.4210   20.8070 O.3    79  C79        -0.3114
   1690  C4'        3.9960  -24.7920   23.0080 C.3    79  C79         0.1773
   1691  O4'        2.8770  -24.2800   23.7940 O.3    79  C79        -0.3307
   1692  C3'        4.3450  -26.1650   23.6000 C.3    79  C79         0.1860
   1693  O3'        5.4350  -26.0390   24.5210 O.3    79  C79        -0.3112
   1694  C2'        3.0680  -26.5230   24.3520 C.3    79  C79         0.2309
   1695  O2'        3.1910  -27.4930   25.3760 O.3    79  C79        -0.2156
   1696  C1'        2.6670  -25.1530   24.8800 C.3    79  C79         0.2420
   1697  N1         1.3030  -25.0910   25.4220 N.ar   79  C79        -0.2535
   1698  C2         1.0930  -24.3100   26.5570 C.ar   79  C79         0.3532
   1699  O2         2.0260  -23.6170   26.9850 O.2    79  C79        -0.2443
   1700  N3        -0.1250  -24.2970   27.1400 N.ar   79  C79        -0.1739
   1701  C4        -1.1040  -25.0490   26.6390 C.ar   79  C79         0.1759
   1702  N4        -2.2890  -25.0170   27.2490 N.pl3  79  C79        -0.1070
   1703  C5        -0.9110  -25.8740   25.4950 C.ar   79  C79         0.0566
   1704  C6         0.3020  -25.8720   24.9310 C.ar   79  C79         0.0850
   1705  OP1        6.0420  -25.8880   18.8540 O.3    79  C79        -0.4373
   1706  OP2        3.4570  -25.9290   18.7290 O.co2  79  C79        -0.5172
   1707  P          6.7030  -27.0290   24.3980 P.3    80  A80         0.2141
   1708  C5'        8.3270  -26.0380   26.2370 C.3    80  A80         0.1812
   1709  O5'        7.3590  -27.0070   25.8540 O.3    80  A80        -0.3114
   1710  C4'        8.3880  -25.9140   27.7440 C.3    80  A80         0.1773
   1711  O4'        7.3310  -25.0280   28.2030 O.3    80  A80        -0.3307
   1712  C3'        8.1550  -27.2120   28.5090 C.3    80  A80         0.1860
   1713  O3'        9.3380  -27.9810   28.6530 O.3    80  A80        -0.3112
   1714  C2'        7.5680  -26.7360   29.8290 C.3    80  A80         0.2309
   1715  O2'        8.5970  -26.2620   30.6790 O.3    80  A80        -0.2156
   1716  C1'        6.7350  -25.5400   29.3740 C.3    80  A80         0.2408
   1717  N1         1.9950  -26.5350   31.1290 N.ar   80  A80        -0.2040
   1718  C2         3.1400  -26.2090   31.7350 C.ar   80  A80         0.2016
   1719  N3         4.3410  -25.9760   31.2160 N.ar   80  A80        -0.2048
   1720  C4         4.3000  -26.0960   29.8920 C.ar   80  A80         0.1692
   1721  C5         3.2080  -26.4350   29.1140 C.ar   80  A80         0.1518
   1722  C6         1.9910  -26.6530   29.7830 C.ar   80  A80         0.1919
   1723  N6         0.8360  -26.9920   29.1990 N.pl3  80  A80        -0.1054
   1724  N7         3.5640  -26.4640   27.7700 N.ar   80  A80        -0.2193
   1725  C8         4.8390  -26.1450   27.7830 C.ar   80  A80         0.1816
   1726  N9         5.3490  -25.9170   29.0360 N.ar   80  A80        -0.2693
   1727  OP1        7.6760  -26.4390   23.4480 O.2    80  A80        -0.5172
   1728  OP2        6.1830  -28.4110   24.1780 O.co2  80  A80        -0.4373
   1729  P          9.2700  -29.5890   28.6660 P.3    81  U81         0.2141
   1730  C5'        9.3760  -29.5720   31.2890 C.3    81  U81         0.1812
   1731  O5'        8.6780  -29.9170   30.1050 O.3    81  U81        -0.3114
   1732  C4'        8.7110  -30.2010   32.4830 C.3    81  U81         0.1773
   1733  O4'        7.5070  -29.4650   32.8210 O.3    81  U81        -0.3307
   1734  C3'        8.2350  -31.6270   32.2650 C.3    81  U81         0.1860
   1735  O3'        9.2810  -32.5650   32.4560 O.3    81  U81        -0.3112
   1736  C2'        7.0810  -31.7560   33.2550 C.3    81  U81         0.2309
   1737  O2'        7.5730  -31.9330   34.5780 O.3    81  U81        -0.2156
   1738  C1'        6.4780  -30.3580   33.1900 C.3    81  U81         0.2420
   1739  N1         5.3740  -30.2120   32.2140 N.ar   81  U81        -0.2534
   1740  C2         4.0950  -30.4530   32.6550 C.ar   81  U81         0.3546
   1741  O2         3.8430  -30.8490   33.7910 O.2    81  U81        -0.2443
   1742  N3         3.1240  -30.2480   31.7040 N.ar   81  U81        -0.1530
   1743  C4         3.2910  -29.7940   30.4110 C.ar   81  U81         0.2846
   1744  O4         2.2970  -29.6510   29.6910 O.2    81  U81        -0.2650
   1745  C5         4.6450  -29.5480   30.0400 C.ar   81  U81         0.0814
   1746  C6         5.6110  -29.7490   30.9360 C.ar   81  U81         0.0870
   1747  OP1       10.6710  -30.0790   28.5800 O.3    81  U81        -0.4373
   1748  OP2        8.2720  -30.0660   27.6720 O.co2  81  U81        -0.5172
   1749  P          9.2550  -33.9790   31.7090 P.3    82  C82         0.2141
   1750  C5'        7.1530  -35.5100   31.7790 C.3    82  C82         0.1812
   1751  O5'        8.1110  -34.7510   32.4820 O.3    82  C82        -0.3114
   1752  C4'        5.9320  -35.7250   32.6240 C.3    82  C82         0.1773
   1753  O4'        5.1990  -34.4770   32.7610 O.3    82  C82        -0.3307
   1754  C3'        4.9150  -36.6860   32.0460 C.3    82  C82         0.1860
   1755  O3'        5.2710  -38.0390   32.2870 O.3    82  C82        -0.3112
   1756  C2'        3.6380  -36.2590   32.7440 C.3    82  C82         0.2309
   1757  O2'        3.6500  -36.7240   34.0900 O.3    82  C82        -0.2156
   1758  C1'        3.8120  -34.7380   32.7710 C.3    82  C82         0.2420
   1759  N1         3.2070  -34.0870   31.5840 N.ar   82  C82        -0.2535
   1760  C2         1.8150  -33.9840   31.5020 C.ar   82  C82         0.3532
   1761  O2         1.1230  -34.4290   32.4370 O.2    82  C82        -0.2443
   1762  N3         1.2610  -33.3960   30.4060 N.ar   82  C82        -0.1739
   1763  C4         2.0400  -32.9300   29.4200 C.ar   82  C82         0.1759
   1764  N4         1.4500  -32.3660   28.3600 N.pl3  82  C82        -0.1070
   1765  C5         3.4580  -33.0220   29.4790 C.ar   82  C82         0.0566
   1766  C6         3.9890  -33.6070   30.5680 C.ar   82  C82         0.0850
   1767  OP1       10.5310  -34.6440   32.0570 O.3    82  C82        -0.4373
   1768  OP2        8.8550  -33.8750   30.2850 O.co2  82  C82        -0.5172
   1769  P          5.3360  -39.0850   31.0800 P.3    83  C83         0.2141
   1770  C5'        3.0380  -40.1340   31.7000 C.3    83  C83         0.1812
   1771  O5'        3.8020  -39.3840   30.7660 O.3    83  C83        -0.3114
   1772  C4'        1.5540  -39.9440   31.5250 C.3    83  C83         0.1773
   1773  O4'        1.1870  -38.5370   31.6280 O.3    83  C83        -0.3307
   1774  C3'        0.9560  -40.3560   30.1950 C.3    83  C83         0.1860
   1775  O3'        0.8500  -41.7580   30.0290 O.3    83  C83        -0.3112
   1776  C2'       -0.3810  -39.6380   30.2340 C.3    83  C83         0.2309
   1777  O2'       -1.2680  -40.2830   31.1340 O.3    83  C83        -0.2156
   1778  C1'        0.0340  -38.2990   30.8440 C.3    83  C83         0.2420
   1779  N1         0.3890  -37.3630   29.7660 N.ar   83  C83        -0.2535
   1780  C2        -0.6700  -36.7780   29.0860 C.ar   83  C83         0.3532
   1781  O2        -1.8180  -37.0510   29.4630 O.2    83  C83        -0.2443
   1782  N3        -0.4100  -35.9330   28.0660 N.ar   83  C83        -0.1739
   1783  C4         0.8570  -35.6820   27.7320 C.ar   83  C83         0.1759
   1784  N4         1.0890  -34.8450   26.7220 N.pl3  83  C83        -0.1070
   1785  C5         1.9590  -36.2850   28.4020 C.ar   83  C83         0.0566
   1786  C6         1.6860  -37.1180   29.4120 C.ar   83  C83         0.0850
   1787  OP1        5.9070  -40.3520   31.6490 O.3    83  C83        -0.4373
   1788  OP2        5.9690  -38.4450   29.9050 O.co2  83  C83        -0.5172
   1789  P          1.0080  -42.4200   28.5710 P.3    84  G84         0.2141
   1790  C5'       -1.5980  -42.2410   28.2760 C.3    84  G84         0.1812
   1791  O5'       -0.2960  -41.9520   27.7880 O.3    84  G84        -0.3114
   1792  C4'       -2.6440  -41.5140   27.4710 C.3    84  G84         0.1773
   1793  O4'       -2.4200  -40.0810   27.5470 O.3    84  G84        -0.3307
   1794  C3'       -2.6440  -41.7990   25.9810 C.3    84  G84         0.1860
   1795  O3'       -3.3020  -43.0070   25.6610 O.3    84  G84        -0.3112
   1796  C2'       -3.3310  -40.5670   25.4130 C.3    84  G84         0.2309
   1797  O2'       -4.7330  -40.6620   25.6060 O.3    84  G84        -0.2156
   1798  C1'       -2.7980  -39.4730   26.3330 C.3    84  G84         0.2408
   1799  N1        -1.2470  -36.3250   22.7210 N.ar   84  G84        -0.1709
   1800  C2        -2.5100  -36.7990   23.0050 C.ar   84  G84         0.2606
   1801  N2        -3.5180  -36.3880   22.2230 N.pl3  84  G84        -0.0859
   1802  N3        -2.7830  -37.6300   23.9920 N.ar   84  G84        -0.1918
   1803  C4        -1.6680  -37.9480   24.6840 C.ar   84  G84         0.1723
   1804  C5        -0.3660  -37.5440   24.4920 C.ar   84  G84         0.1748
   1805  C6        -0.0880  -36.6410   23.4300 C.ar   84  G84         0.3023
   1806  O6         1.0030  -36.1520   23.1030 O.2    84  G84        -0.2633
   1807  N7         0.4780  -38.1250   25.4370 N.ar   84  G84        -0.2173
   1808  C8        -0.3180  -38.8580   26.1670 C.ar   84  G84         0.1817
   1809  N9        -1.6280  -38.7930   25.7600 N.ar   84  G84        -0.2693
   1810  OP1        0.9800  -43.8930   28.7670 O.3    84  G84        -0.4373
   1811  OP2        2.1540  -41.7900   27.8760 O.co2  84  G84        -0.5172
   1812  P         -2.8910  -43.8270   24.3440 P.3    85  C85         0.2141
   1813  C5'       -4.6330  -42.5190   22.8620 C.3    85  C85         0.1812
   1814  O5'       -3.2900  -42.8780   23.1300 O.3    85  C85        -0.3114
   1815  C4'       -4.6930  -41.6000   21.6710 C.3    85  C85         0.1773
   1816  O4'       -4.0400  -40.3390   21.9800 O.3    85  C85        -0.3307
   1817  C3'       -3.9630  -42.0950   20.4370 C.3    85  C85         0.1860
   1818  O3'       -4.7190  -43.0400   19.7050 O.3    85  C85        -0.3112
   1819  C2'       -3.6720  -40.8030   19.6810 C.3    85  C85         0.2309
   1820  O2'       -4.8380  -40.3420   19.0150 O.3    85  C85        -0.2156
   1821  C1'       -3.3830  -39.8420   20.8340 C.3    85  C85         0.2420
   1822  N1        -1.9390  -39.7180   21.1370 N.ar   85  C85        -0.2535
   1823  C2        -1.1160  -38.9630   20.3000 C.ar   85  C85         0.3532
   1824  O2        -1.5990  -38.4230   19.2970 O.2    85  C85        -0.2443
   1825  N3         0.1970  -38.8370   20.5930 N.ar   85  C85        -0.1739
   1826  C4         0.6890  -39.4320   21.6820 C.ar   85  C85         0.1759
   1827  N4         1.9870  -39.2800   21.9400 N.pl3  85  C85        -0.1070
   1828  C5        -0.1220  -40.2110   22.5580 C.ar   85  C85         0.0566
   1829  C6        -1.4200  -40.3220   22.2470 C.ar   85  C85         0.0850
   1830  OP1       -3.7730  -45.0210   24.3640 O.3    85  C85        -0.4373
   1831  OP2       -1.4030  -43.9340   24.2660 O.co2  85  C85        -0.5172
   1832  P         -3.9810  -44.2550   18.9550 P.3    86  U86         0.2141
   1833  C5'       -4.0650  -42.9240   16.7010 C.3    86  U86         0.1812
   1834  O5'       -3.2860  -43.5460   17.7120 O.3    86  U86        -0.3114
   1835  C4'       -3.1850  -42.2720   15.6680 C.3    86  U86         0.1773
   1836  O4'       -2.4870  -41.1520   16.2640 O.3    86  U86        -0.3307
   1837  C3'       -2.0700  -43.1390   15.1130 C.3    86  U86         0.1860
   1838  O3'       -2.5130  -44.0350   14.1090 O.3    86  U86        -0.3112
   1839  C2'       -1.0580  -42.1110   14.6270 C.3    86  U86         0.2309
   1840  O2'       -1.4530  -41.5620   13.3790 O.3    86  U86        -0.2156
   1841  C1'       -1.2020  -41.0220   15.6870 C.3    86  U86         0.2420
   1842  N1        -0.1770  -41.1190   16.7540 N.ar   86  U86        -0.2534
   1843  C2         1.0790  -40.6290   16.4590 C.ar   86  U86         0.3546
   1844  O2         1.3690  -40.1340   15.3790 O.2    86  U86        -0.2443
   1845  N3         1.9950  -40.7180   17.4750 N.ar   86  U86        -0.1530
   1846  C4         1.7880  -41.2450   18.7300 C.ar   86  U86         0.2846
   1847  O4         2.7330  -41.2410   19.5200 O.2    86  U86        -0.2650
   1848  C5         0.4640  -41.7400   18.9660 C.ar   86  U86         0.0814
   1849  C6        -0.4540  -41.6620   17.9910 C.ar   86  U86         0.0870
   1850  OP1       -5.0490  -45.1770   18.5080 O.2    86  U86        -0.5172
   1851  OP2       -2.8730  -44.7640   19.8030 O.co2  86  U86        -0.4373
   1852  P         -1.8280  -45.4820   13.9560 P.3    87  C87         0.2141
   1853  C5'       -0.4580  -44.5080   11.9370 C.3    87  C87         0.1812
   1854  O5'       -0.4610  -45.1680   13.1930 O.3    87  C87        -0.3114
   1855  C4'        0.9170  -44.0120   11.5650 C.3    87  C87         0.1773
   1856  O4'        1.3360  -42.9730   12.4860 O.3    87  C87        -0.3307
   1857  C3'        2.0520  -45.0230   11.6270 C.3    87  C87         0.1860
   1858  O3'        2.0940  -45.8860   10.5010 O.3    87  C87        -0.3112
   1859  C2'        3.2800  -44.1260   11.7520 C.3    87  C87         0.2309
   1860  O2'        3.6180  -43.5620   10.4950 O.3    87  C87        -0.2156
   1861  C1'        2.7430  -43.0010   12.6350 C.3    87  C87         0.2420
   1862  N1         3.0780  -43.2020   14.0680 N.ar   87  C87        -0.2535
   1863  C2         4.3700  -42.8750   14.4710 C.ar   87  C87         0.3532
   1864  O2         5.1530  -42.4380   13.6170 O.2    87  C87        -0.2443
   1865  N3         4.7320  -43.0420   15.7640 N.ar   87  C87        -0.1739
   1866  C4         3.8470  -43.5170   16.6370 C.ar   87  C87         0.1759
   1867  N4         4.2460  -43.6600   17.9020 N.pl3  87  C87        -0.1070
   1868  C5         2.5180  -43.8680   16.2610 C.ar   87  C87         0.0566
   1869  C6         2.1760  -43.6960   14.9720 C.ar   87  C87         0.0850
   1870  OP1       -2.7240  -46.2920   13.0890 O.2    87  C87        -0.5172
   1871  OP2       -1.4810  -45.9920   15.3090 O.co2  87  C87        -0.4373
   1872  P          2.6040  -47.4070   10.6530 P.3    88  C88         0.2141
   1873  C5'        5.0390  -46.7460   10.0000 C.3    88  C88         0.1812
   1874  O5'        4.1580  -47.2640   10.9760 O.3    88  C88        -0.3114
   1875  C4'        6.4220  -46.5010   10.5450 C.3    88  C88         0.1773
   1876  O4'        6.3830  -45.5130   11.6030 O.3    88  C88        -0.3307
   1877  C3'        7.1290  -47.6770   11.1910 C.3    88  C88         0.1860
   1878  O3'        7.6570  -48.6020   10.2600 O.3    88  C88        -0.3112
   1879  C2'        8.2000  -46.9850   12.0180 C.3    88  C88         0.2309
   1880  O2'        9.2610  -46.5460   11.1840 O.3    88  C88        -0.2156
   1881  C1'        7.4380  -45.7560   12.5140 C.3    88  C88         0.2420
   1882  N1         6.8690  -45.9660   13.8650 N.ar   88  C88        -0.2535
   1883  C2         7.7280  -45.8810   14.9570 C.ar   88  C88         0.3532
   1884  O2         8.9340  -45.6440   14.7670 O.2    88  C88        -0.2443
   1885  N3         7.2260  -46.0580   16.1990 N.ar   88  C88        -0.1739
   1886  C4         5.9280  -46.3130   16.3650 C.ar   88  C88         0.1759
   1887  N4         5.4960  -46.4820   17.6180 N.pl3  88  C88        -0.1070
   1888  C5         5.0260  -46.4080   15.2630 C.ar   88  C88         0.0566
   1889  C6         5.5390  -46.2310   14.0390 C.ar   88  C88         0.0850
   1890  OP1        2.4600  -48.0340    9.3120 O.2    88  C88        -0.5172
   1891  OP2        1.9280  -48.0350   11.8200 O.co2  88  C88        -0.4373
   1892  P          7.7760  -50.1550   10.6550 P.3    89  A89         0.2141
   1893  C5'       10.2600  -50.0160   11.4940 C.3    89  A89         0.1813
   1894  O5'        8.8860  -50.1980   11.7960 O.3    89  A89        -0.3114
   1895  C4'       11.0740  -49.8220   12.7480 C.3    89  A89         0.1801
   1896  O4'       10.4700  -48.7810   13.5610 O.3    89  A89        -0.3306
   1897  C3'       11.1610  -51.0160   13.6940 C.3    89  A89         0.2161
   1898  O3'       12.1140  -51.9860   13.2890 O.3    89  A89        -0.2175
   1899  C2'       11.4860  -50.3550   15.0290 C.3    89  A89         0.2337
   1900  O2'       12.8620  -50.0090   15.1040 O.3    89  A89        -0.2155
   1901  C1'       10.6660  -49.0660   14.9330 C.3    89  A89         0.2409
   1902  N1         8.3290  -49.3340   19.4560 N.ar   89  A89        -0.2040
   1903  C2         9.6130  -49.1730   19.1000 C.ar   89  A89         0.2016
   1904  N3        10.1410  -49.1050   17.8750 N.ar   89  A89        -0.2048
   1905  C4         9.1800  -49.2360   16.9470 C.ar   89  A89         0.1692
   1906  C5         7.8240  -49.4070   17.1460 C.ar   89  A89         0.1518
   1907  C6         7.3930  -49.4500   18.4820 C.ar   89  A89         0.1919
   1908  N6         6.1160  -49.6160   18.8260 N.pl3  89  A89        -0.1054
   1909  N7         7.1500  -49.4940   15.9310 N.ar   89  A89        -0.2193
   1910  C8         8.1070  -49.3830   15.0370 C.ar   89  A89         0.1816
   1911  N9         9.3550  -49.2140   15.5890 N.ar   89  A89        -0.2693
   1912  OP1        8.3180  -50.8600    9.4630 O.2    89  A89        -0.5172
   1913  OP2        6.4990  -50.6030   11.2660 O.co2  89  A89        -0.4373
@<TRIPOS>BOND
     1  1292  1291    1
     2  1310  1309    1
     3  1286  1291   ar
     4  1286  1287   ar
     5  1291  1290   ar
     6  1332  1331   ar
     7  1332  1333   ar
     8  1287  1288   ar
     9  1309  1308   ar
    10  1309  1311   ar
    11  1331  1336   ar
    12  1333  1334   ar
    13  1308  1314   ar
    14  1290  1293   ar
    15  1290  1289   ar
    16  1311  1312   ar
    17  1288  1289   ar
    18  1293  1294   ar
    19  1289  1295   ar
    20  1336  1337    1
    21  1336  1335   ar
    22  1334  1335   ar
    23  1334  1340   ar
    24  1314  1315    2
    25  1314  1313   ar
    26  1329  1328    1
    27  1312  1313   ar
    28  1312  1318   ar
    29  1335  1338   ar
    30  1330  1340    1
    31  1330  1328    1
    32  1330  1325    1
    33  1294  1295   ar
    34  1295  1285    1
    35  1340  1339   ar
    36  1313  1316   ar
    37  1328  1326    1
    38  1325  1324    1
    39  1318  1307    1
    40  1318  1317   ar
    41  1285  1280    1
    42  1285  1283    1
    43  1307  1305    1
    44  1307  1302    1
    45  1306  1305    1
    46  1338  1339   ar
    47  1316  1317   ar
    48  1324  1326    1
    49  1324  1322    1
    50  1351  1350    1
    51  1280  1279    1
    52  1305  1303    1
    53  1326  1327    1
    54  1296  1276    2
    55  1302  1301    1
    56  1283  1284    1
    57  1283  1281    1
    58  1261  1260    1
    59  1327  1343    1
    60  1367  1369    1
    61  1367  1368    1
    62  1345  1344    1
    63  1345  1343    1
    64  1346  1347    1
    65  1346  1348    1
    66  1346  1344    1
    67  1322  1323    1
    68  1349  1348    1
    69  1349  1366    1
    70  1347  1352    1
    71  1384  1366    2
    72   327   309    2
    73  1259  1276    1
    74  1259  1258    1
    75  1350  1352    1
    76  1350  1348    1
    77  1369  1370    1
    78  1369  1371    1
    79  1301  1303    1
    80  1301  1299    1
    81  1279  1281    1
    82  1279  1277    1
    83  1276  1278    1
    84  1276  1297    1
    85  1303  1304    1
    86  1352  1363    1
    87  1281  1282    1
    88  1323  1321    1
    89  1278  1277    1
    90  1343  1364    2
    91  1343  1365    1
    92  1372  1371    1
    93  1372  1386    1
    94  1260  1258    1
    95  1260  1262    1
    96  1407  1386    2
    97  1366  1368    1
    98  1366  1385    1
    99  1370  1375    1
   100  1265  1264    1
   101  1304  1321    1
   102   295   309    1
   103   295   294    1
   104  1374  1373    1
   105  1258  1256    1
   106  1371  1373    1
   107   309   311    1
   108   309   328    1
   109  1299  1300    1
   110   290   292    1
   111   290   291    1
   112   310   311    1
   113   310   312    1
   114  1256  1257    1
   115  1256  1254    1
   116   297   296    1
   117   292   294    1
   118   292   293    1
   119  1282  1298    1
   120  1300  1298    1
   121  1386  1388    1
   122  1386  1408    1
   123  1262  1257    1
   124  1262  1273    1
   125  1266  1264   ar
   126  1266  1267   ar
   127   307   289    2
   128  1321  1342    2
   129  1321  1341    1
   130  1363  1357   ar
   131  1363  1362   ar
   132   347   329    2
   133  1375  1373    1
   134  1375  1376    1
   135  1264  1263   ar
   136   294   296    1
   137  1356  1357   ar
   138  1356  1354   ar
   139   275   274    1
   140  1254  1255    1
   141  1320  1298    2
   142   312   314    1
   143   312   313    1
   144  1298  1319    1
   145  1388  1387    1
   146  1357  1358   ar
   147   315   329    1
   148   315   314    1
   149  1362  1361   ar
   150   293   298    1
   151   291   289    1
   152   296   298    1
   153   273   289    1
   154   273   272    1
   155  1267  1273   ar
   156  1267  1268   ar
   157   289   308    1
   158   329   348    1
   159   329   331    1
   160  1273  1272   ar
   161  1355  1354    1
   162  1354  1353   ar
   163  1263  1269   ar
   164  1376  1383   ar
   165  1376  1377   ar
   166   314   316    1
   167   298   299    1
   168  1383  1382   ar
   169   313   318    1
   170  1255  1253    1
   171   274   272    1
   172   274   276    1
   173  1358  1361   ar
   174  1358  1359   ar
   175   272   270    1
   176  1590  1589    1
   177  1387  1389    1
   178   270   271    1
   179   270   268    1
   180  1378  1377    2
   181  1268  1269   ar
   182  1268  1271   ar
   183   317   316    1
   184  1272  1271   ar
   185  1274  1253    2
   186  1377  1379   ar
   187   331   330    1
   188  1269  1270    2
   189   330   332    1
   190  1353  1359   ar
   191  1241  1240    1
   192  1603  1605    1
   193  1603  1604    1
   194   316   318    1
   195  1605  1606    1
   196  1605  1607    1
   197  1382  1380   ar
   198   276   271    1
   199   276   286    1
   200  1389  1390    1
   201  1389  1391    1
   202  1610  1609    1
   203   268   269    1
   204   318   319    1
   205   299   306   ar
   206   299   300   ar
   207  1253  1239    1
   208  1253  1275    1
   209  1245  1244    2
   210  1390  1395    1
   211  1359  1360    2
   212  1606  1611    1
   213  1608  1607    1
   214  1608  1624    1
   215  1240  1238    1
   216  1240  1242    1
   217   306   305   ar
   218  1642  1624    2
   219  1588  1587    1
   220  1588  1602    1
   221  1622  1602    2
   222   301   300    2
   223  1239  1238    1
   224  1589  1591    1
   225  1589  1587    1
   226  1379  1380   ar
   227   326   319   ar
   228   326   325   ar
   229  1585  1586    1
   230  1585  1587    1
   231  1585  1583    1
   232  1607  1609    1
   233  1380  1381    1
   234   300   302   ar
   235   279   280   ar
   236   279   278   ar
   237  1591  1586    1
   238  1591  1592    1
   239   332   333    1
   240   332   334    1
   241  1611  1609    1
   242  1611  1621    1
   243  1604  1602    1
   244   319   320   ar
   245  1244  1246   ar
   246  1244  1243   ar
   247   286   280   ar
   248   286   285   ar
   249   269   267    1
   250  1395  1393    1
   251  1395  1406    1
   252  1392  1391    1
   253  1392  1409    1
   254  1570  1569    1
   255  1602  1623    1
   256  1391  1393    1
   257  1238  1236    1
   258  1624  1626    1
   259  1624  1643    1
   260  1222  1221    1
   261  1394  1393    1
   262  1594  1593    2
   263  1583  1584    1
   264  1625  1626    1
   265  1625  1627    1
   266   287   267    2
   267  1242  1243    1
   268  1242  1237    1
   269  1246  1247   ar
   270   325   323   ar
   271   252   251    1
   272  1427  1409    2
   273   370   349    2
   274   280   281   ar
   275   333   338    1
   276   278   277   ar
   277   371   349    1
   278   335   334    1
   279   335   349    1
   280   305   303   ar
   281  1405  1406   ar
   282  1405  1404   ar
   283  1428  1409    1
   284   334   336    1
   285   256   255    1
   286  1243  1250   ar
   287  1409  1411    1
   288   349   351    1
   289  1406  1400   ar
   290  1574  1573    2
   291   302   303   ar
   292   267   250    1
   293   267   288    1
   294  1592  1593   ar
   295  1592  1599   ar
   296   285   284   ar
   297  1627  1628    1
   298  1627  1629    1
   299  1621  1620   ar
   300  1621  1615   ar
   301   320   321    2
   302   320   322   ar
   303   346   345   ar
   304   346   339   ar
   305  1593  1595   ar
   306  1236  1237    1
   307  1236  1234    1
   308  1569  1571    1
   309  1569  1567    1
   310  1221  1220   ar
   311  1221  1223   ar
   312   345   343   ar
   313   250   249    1
   314  1628  1633    1
   315   303   304    2
   316  1247  1248    1
   317  1247  1249   ar
   318  1404  1401   ar
   319  1220  1226   ar
   320   251   249    1
   321   251   253    1
   322  1584  1582    1
   323  1620  1619   ar
   324   323   322   ar
   325   323   324    2
   326   277   282   ar
   327   281   284   ar
   328   281   282   ar
   329   338   336    1
   330   338   339    1
   331  1571  1566    1
   332  1571  1572    1
   333   255   257   ar
   334   255   254   ar
   335  1204  1203    1
   336   257   258   ar
   337  1568  1567    1
   338  1568  1582    1
   339  1198  1203   ar
   340  1198  1199   ar
   341  1250  1249   ar
   342  1614  1615   ar
   343  1614  1613   ar
   344   336   337    1
   345  1615  1616   ar
   346   339   340   ar
   347  1573  1572   ar
   348  1573  1575   ar
   349  1600  1582    2
   350  1400  1401   ar
   351  1400  1399   ar
   352  1599  1598   ar
   353  1223  1224   ar
   354   249   247    1
   355  1411  1410    1
   356  1567  1565    1
   357  1595  1596   ar
   358   282   283    1
   359  1234  1235    1
   360   351   350    1
   361  1630  1629    1
   362  1630  1644    1
   363  1629  1631    1
   364  1582  1601    1
   365  1566  1565    1
   366  1401  1402   ar
   367  1565  1563    1
   368  1203  1202   ar
   369   253   248    1
   370   253   264    1
   371  1551  1550   ar
   372  1551  1552   ar
   373  1410  1412    1
   374  1199  1200   ar
   375  1633  1631    1
   376  1633  1634    1
   377   343   344    1
   378   343   342   ar
   379  1572  1579   ar
   380  1226  1227    2
   381  1226  1225   ar
   382  1632  1631    1
   383  1399  1397   ar
   384  1619  1616   ar
   385   254   260   ar
   386   247   248    1
   387   247   245    1
   388  1575  1576   ar
   389  1550  1555   ar
   390   258   264   ar
   391   258   259   ar
   392  1613  1612   ar
   393  1616  1617   ar
   394  1641  1634   ar
   395  1641  1640   ar
   396   350   352    1
   397  1235  1233    1
   398  1552  1553   ar
   399  1425  1426   ar
   400  1425  1423   ar
   401  1662  1644    2
   402  1598  1596   ar
   403  1663  1644    1
   404  1224  1225   ar
   405  1224  1230   ar
   406   340   342   ar
   407   340   341    2
   408   264   263   ar
   409  1596  1597    1
   410  1644  1646    1
   411  1634  1635   ar
   412  1426  1419   ar
   413  1225  1228   ar
   414  1402  1403    2
   415  1402  1396   ar
   416  1563  1564    1
   417  1413  1412    1
   418  1413  1418    1
   419  1202  1201   ar
   420  1202  1205   ar
   421  1200  1201   ar
   422  1640  1638   ar
   423  1412  1414    1
   424  1218  1217    1
   425  1424  1423    1
   426  1579  1578   ar
   427  1397  1396   ar
   428  1397  1398    1
   429   245   246    1
   430   260   259   ar
   431   260   261    2
   432   259   262   ar
   433  1423  1422   ar
   434  1612  1617   ar
   435  1890  1872    2
   436  1217  1219    1
   437  1217  1215    1
   438  1617  1618    1
   439   368   367   ar
   440   368   369   ar
   441  1555  1556    1
   442  1555  1554   ar
   443  1548  1547    1
   444  1576  1578   ar
   445  1576  1577    2
   446   367   364   ar
   447  1912  1892    2
   448  1201  1207   ar
   449  1553  1554   ar
   450  1553  1559   ar
   451  1230  1219    1
   452  1230  1229   ar
   453   353   352    1
   454   353   358    1
   455   352   354    1
   456   263   262   ar
   457  1233  1251    2
   458  1233  1252    1
   459  1233  1216    1
   460  1419  1418    1
   461  1419  1420   ar
   462  1205  1206   ar
   463  1635  1636    2
   464  1635  1637   ar
   465  1528  1529   ar
   466  1528  1533   ar
   467  1219  1214    1
   468  1646  1645    1
   469  1564  1562    1
   470  1873  1875    1
   471  1873  1874    1
   472  1418  1416    1
   473  1228  1229   ar
   474  1547  1549    1
   475  1547  1545    1
   476   246   244    1
   477  1414  1415    1
   478  1414  1416    1
   479  1529  1530   ar
   480  1554  1557   ar
   481  1638  1637   ar
   482  1638  1639    2
   483  1878  1892    1
   484  1878  1877    1
   485  1645  1647    1
   486  1422  1420   ar
   487  1534  1533    1
   488   236   235    2
   489  1860  1859    1
   490  1549  1559    1
   491  1549  1544    1
   492  1858  1872    1
   493  1858  1857    1
   494  1216  1215    1
   495  1215  1213    1
   496  1875  1877    1
   497  1875  1876    1
   498  1451  1429    2
   499   369   358    1
   500   369   363   ar
   501  1559  1558   ar
   502  1872  1874    1
   503  1872  1891    1
   504  1892  1913    1
   505  1892  1894    1
   506   391   372    2
   507  1490  1489    2
   508  1420  1421    2
   509  1415  1429    1
   510   354   355    1
   511   354   356    1
   512   387   386    1
   513   364   365   ar
   514   364   363   ar
   515  1207  1206   ar
   516  1207  1197    1
   517  1533  1532   ar
   518  1512  1511    2
   519   409   408    2
   520   358   356    1
   521   232   231    1
   522   366   365    2
   523  1446  1445    2
   524  1416  1417    1
   525   430   429    2
   526  1880  1879    1
   527  1877  1879    1
   528   355   372    1
   529  1214  1213    1
   530  1530  1531   ar
   531  1429  1450    1
   532  1429  1431    1
   533   235   237   ar
   534   235   234   ar
   535  1562  1546    1
   536  1562  1580    2
   537  1562  1581    1
   538  1447  1448   ar
   539  1447  1444   ar
   540   365   359   ar
   541  1546  1545    1
   542  1893  1894    1
   543  1893  1895    1
   544  1545  1543    1
   545   363   362   ar
   546  1660  1661   ar
   547  1660  1658   ar
   548   231   233    1
   549   231   229    1
   550   237   238   ar
   551  1557  1558   ar
   552  1648  1647    1
   553  1648  1653    1
   554  1855  1857    1
   555  1855  1853    1
   556  1855  1856    1
   557  1876  1881    1
   558  1505  1511   ar
   559  1505  1506   ar
   560   265   244    2
   561  1857  1859    1
   562   244   230    1
   563   244   266    1
   564  1661  1654   ar
   565  1647  1649    1
   566   388   386   ar
   567   388   389   ar
   568  1213  1211    1
   569   372   390    1
   570   372   374    1
   571  1859  1861    1
   572  1544  1543    1
   573   356   357    1
   574  1197  1192    1
   575  1197  1195    1
   576  1511  1510   ar
   577   386   385   ar
   578   428   429   ar
   579   428   426   ar
   580  1853  1854    1
   581  1489  1488   ar
   582  1489  1491   ar
   583  1879  1881    1
   584   408   402   ar
   585   408   407   ar
   586   429   431   ar
   587  1532  1531   ar
   588  1532  1535   ar
   589  1445  1444   ar
   590  1445  1439   ar
   591  1507  1506    1
   592   230   229    1
   593  1192  1191    1
   594  1448  1449   ar
   595  1543  1541    1
   596  1531  1537   ar
   597  1444  1443   ar
   598   233   234    1
   599   233   228    1
   600   402   403   ar
   601  1856  1861    1
   602   234   241   ar
   603  1881  1882    1
   604   239   238    2
   605   112    92    2
   606   135   114    2
   607  1658  1659    2
   608  1658  1657   ar
   609   427   426    2
   610    55    54    1
   611   238   240   ar
   612   229   227    1
   613  1488  1486   ar
   614  1506  1508   ar
   615  1861  1862    1
   616  1431  1430    1
   617  1654  1653    1
   618  1654  1655   ar
   619  1895  1896    1
   620  1895  1897    1
   621    93    95    1
   622    93    94    1
   623   389   382   ar
   624    77    76    1
   625   426   425   ar
   626  1653  1651    1
   627   362   360   ar
   628  1491  1492   ar
   629   359   360   ar
   630  1649  1650    1
   631  1649  1651    1
   632  1196  1195    1
   633    75    92    1
   634    75    74    1
   635   385   383   ar
   636  1686  1664    2
   637   374   373    1
   638  1211  1212    1
   639  1195  1193    1
   640  1870  1852    2
   641   212   213   ar
   642   212   217   ar
   643    72    70    1
   644    72    74    1
   645    72    73    1
   646    70    71    1
   647   407   410   ar
   648   407   406   ar
   649  1510  1513   ar
   650  1510  1509   ar
   651  1854  1852    1
   652   410   411   ar
   653    95    97    1
   654    95    96    1
   655  1439  1440   ar
   656  1898  1897    1
   657  1535  1536   ar
   658    98   114    1
   659    98    97    1
   660  1840  1839    1
   661  1650  1664    1
   662   431   432   ar
   663   360   361    1
   664   218   217    1
   665   213   214   ar
   666  1896  1901    1
   667  1657  1655   ar
   668   241   240   ar
   669    92    94    1
   670    92   113    1
   671  1449  1443   ar
   672  1449  1438    1
   673  1191  1193    1
   674  1191  1189    1
   675   114   136    1
   676   114   116    1
   677  1864  1863    2
   678  1537  1536   ar
   679  1537  1527    1
   680  1443  1442   ar
   681  1897  1899    1
   682  1194  1193    1
   683  1194  1210    1
   684  1655  1656    2
   685   228   227    1
   686   403   404    1
   687   403   405   ar
   688   227   225    1
   689  1430  1432    1
   690    74    76    1
   691  1541  1542    1
   692  1651  1652    1
   693  1513  1514   ar
   694    73    78    1
   695  1882  1889   ar
   696  1882  1883   ar
   697  1508  1509   ar
   698   217   216   ar
   699  1486  1487    2
   700  1486  1485   ar
   701  1852  1838    1
   702  1852  1871    1
   703  1664  1685    1
   704  1664  1666    1
   705    54    56    1
   706    54    52    1
   707    76    78    1
   708    53    52    1
   709    53    69    1
   710   382   383   ar
   711   382   381    1
   712  1889  1888   ar
   713    90    69    2
   714  1862  1863   ar
   715  1862  1869   ar
   716  1212  1210    1
   717   425   432   ar
   718   425   424    1
   719  1509  1515   ar
   720  1542  1540    1
   721  1838  1837    1
   722    97    99    1
   723   383   384    2
   724    96   101    1
   725  1190  1189    1
   726  1190  1188    1
   727  1232  1210    2
   728  1492  1485   ar
   729   373   375    1
   730    36    35    1
   731  1525  1527    1
   732  1525  1526    1
   733  1525  1523    1
   734    50    52    1
   735    50    51    1
   736    50    48    1
   737  1527  1522    1
   738    78    89    1
   739   406   405   ar
   740   406   412   ar
   741  1494  1475    2
   742   100    99    1
   743    56    51    1
   744    56    66    1
   745  1863  1865   ar
   746    71    69    1
   747  1681  1680    2
   748   411   412   ar
   749  1440  1442   ar
   750  1440  1441    1
   751  1433  1438    1
   752  1433  1432    1
   753  1210  1231    1
   754  1682  1683   ar
   755  1682  1679   ar
   756  1839  1837    1
   757  1839  1841    1
   758   214   215   ar
   759  1438  1436    1
   760  1208  1188    2
   761  1436  1437    1
   762  1436  1434    1
   763    69    91    1
   764  1485  1484    1
   765  1884  1883    2
   766   414   392    2
   767   376   381    1
   768   376   375    1
   769  1901  1899    1
   770  1901  1911    1
   771  1432  1434    1
   772   116   115    1
   773  1883  1885   ar
   774  1869  1868   ar
   775   115   117    1
   776  1899  1900    1
   777  1910  1911   ar
   778  1910  1909   ar
   779    59    58   ar
   780    59    60   ar
   781    99   101    1
   782  1514  1515   ar
   783   225   226    1
   784  1837  1835    1
   785   424   422    1
   786   424   419    1
   787   216   215   ar
   788   216   219   ar
   789    48    49    1
   790   422   423    1
   791   422   420    1
   792   101   111    1
   793  1683  1684   ar
   794    32    31    1
   795   381   379    1
   796   375   377    1
   797  1888  1886   ar
   798   412   401    1
   799  1666  1665    1
   800  1515  1504    1
   801  1188  1209    1
   802  1188  1172    1
   803   226   224    1
   804  1844  1843    2
   805   215   221   ar
   806  1680  1679   ar
   807  1680  1674   ar
   808  1434  1435    1
   809   453   435    2
   810    35    37   ar
   811    35    34   ar
   812   377   379    1
   813   377   378    1
   814  1679  1678   ar
   815  1561  1540    2
   816    58    57   ar
   817  1911  1905   ar
   818  1540  1524    1
   819  1540  1560    1
   820  1523  1524    1
   821  1523  1521    1
   822  1835  1836    1
   823  1835  1833    1
   824  1522  1521    1
   825  1841  1836    1
   826  1841  1842    1
   827  1460  1459    1
   828    37    38   ar
   829  1865  1866   ar
   830    66    60   ar
   831    66    65   ar
   832    89    88   ar
   833    89    83   ar
   834   196   195    2
   835  1475  1458    1
   836  1475  1477    1
   837  1475  1493    1
   838  1909  1906   ar
   839    60    61   ar
   840  1458  1457    1
   841   379   380    1
   842   219   220   ar
   843  1885  1886   ar
   844   471   470    1
   845   392   378    1
   846   392   394    1
   847   392   413    1
   848  1484  1479    1
   849  1484  1482    1
   850   420   421    1
   851   420   418    1
   852  1868  1866   ar
   853  1477  1476    1
   854   454   435    1
   855  1172  1171    1
   856   450   449    2
   857    82    83   ar
   858    82    80   ar
   859  1886  1887    1
   860   419   418    1
   861  1665  1667    1
   862    31    33    1
   863    31    29    1
   864   117   118    1
   865   117   119    1
   866   111   110   ar
   867   111   105   ar
   868  1843  1842   ar
   869  1843  1845   ar
   870  1684  1678   ar
   871  1684  1673    1
   872   435   421    1
   873   435   437    1
   874    34    40   ar
   875    49    47    1
   876  1521  1519    1
   877  1504  1502    1
   878  1504  1499    1
   879   243   224    2
   880  1674  1675   ar
   881   110   109   ar
   882  1866  1867    1
   883    88    87   ar
   884   221   220   ar
   885   221   211    1
   886   465   470   ar
   887   465   466   ar
   888   394   393    1
   889  1678  1677   ar
   890    83    84   ar
   891  1833  1834    1
   892    13    12    1
   893  1517  1495    2
   894   451   449   ar
   895   451   452   ar
   896  1842  1849   ar
   897   401   396    1
   898   401   399    1
   899   224   242    1
   900   224   208    1
   901  1479  1478    1
   902   155   137    2
   903  1482  1480    1
   904  1482  1483    1
   905   209   210    1
   906   209   211    1
   907   209   207    1
   908   195   189   ar
   909   195   194   ar
   910  1668  1667    1
   911  1668  1673    1
   912  1435  1452    1
   913    33    44    1
   914    33    28    1
   915    57    62   ar
   916   189   190   ar
   917  1905  1906   ar
   918  1905  1904   ar
   919   118   123    1
   920    65    64   ar
   921  1502  1500    1
   922  1502  1503    1
   923   470   469   ar
   924  1459  1457    1
   925  1459  1461    1
   926    38    44   ar
   927    38    39   ar
   928    67    47    2
   929   449   448   ar
   930   156   137    1
   931   434   415    2
   932  1906  1907   ar
   933  1457  1455    1
   934    81    80    1
   935  1455  1456    1
   936  1455  1453    1
   937   418   416    1
   938    30    47    1
   939    30    29    1
   940  1480  1478    1
   941  1480  1481    1
   942  1520  1519    1
   943  1520  1518    1
   944   396   395    1
   945   120   119    1
   946   120   137    1
   947   399   397    1
   948   399   400    1
   949    61    62   ar
   950    61    64   ar
   951   119   121    1
   952    80    79   ar
   953   211   206    1
   954  1667  1669    1
   955   417   416    1
   956   417   415    1
   957  1464  1463    1
   958  1845  1846   ar
   959  1673  1671    1
   960   137   139    1
   961  1461  1456    1
   962  1461  1472    1
   963   466   467   ar
   964  1539  1518    2
   965    47    68    1
   966  1174  1173    1
   967    29    27    1
   968  1474  1452    2
   969  1499  1498    1
   970  1476  1478    1
   971    44    43   ar
   972   133   132   ar
   973   133   134   ar
   974   105   104   ar
   975   105   106   ar
   976   397   395    1
   977   397   398    1
   978   207   208    1
   979   207   205    1
   980   452   445   ar
   981  1834  1832    1
   982  1171  1173    1
   983  1171  1169    1
   984    28    27    1
   985  1675  1677   ar
   986  1675  1676    1
   987  1454  1453    1
   988  1454  1452    1
   989   191   190    1
   990    62    63    1
   991   109   106   ar
   992  1465  1463   ar
   993  1465  1466   ar
   994   437   436    1
   995  1500  1498    1
   996  1500  1501    1
   997  1497  1495    1
   998  1497  1496    1
   999    40    39   ar
  1000    40    41    2
  1001  1904  1903   ar
  1002    87    84   ar
  1003   190   192   ar
  1004    27    25    1
  1005  1452  1473    1
  1006    84    85   ar
  1007   104   103   ar
  1008  1669  1671    1
  1009  1669  1670    1
  1010    12    11   ar
  1011    12    14   ar
  1012   194   197   ar
  1013   194   193   ar
  1014  1849  1848   ar
  1015   393   395    1
  1016  1495  1481    1
  1017  1495  1516    1
  1018  1178  1177   ar
  1019  1178  1179   ar
  1020   132   129   ar
  1021    39    42   ar
  1022    11    17   ar
  1023   415   398    1
  1024   415   433    1
  1025  1463  1462   ar
  1026   511   510    1
  1027  1177  1176   ar
  1028   487   488   ar
  1029   487   492   ar
  1030  1518  1501    1
  1031  1518  1538    1
  1032   469   472   ar
  1033   469   468   ar
  1034   197   198   ar
  1035  1173  1175    1
  1036   123   134    1
  1037   123   121    1
  1038  1169  1170    1
  1039  1169  1167    1
  1040  1175  1170    1
  1041  1175  1185    1
  1042   448   446   ar
  1043   493   492    1
  1044  1907  1908    1
  1045  1907  1902   ar
  1046   106   107   ar
  1047   134   128   ar
  1048   770   769    1
  1049  1850  1832    2
  1050  1671  1672    1
  1051  1498  1496    1
  1052  1472  1466   ar
  1053  1472  1471   ar
  1054    79    85   ar
  1055  1466  1467   ar
  1056   467   468   ar
  1057   121   122    1
  1058   206   205    1
  1059  1706  1687    2
  1060  1846  1848   ar
  1061  1846  1847    2
  1062   488   489   ar
  1063  1705  1687    1
  1064   223   202    2
  1065   436   438    1
  1066   492   491   ar
  1067  1832  1818    1
  1068  1832  1851    1
  1069   193   192   ar
  1070   193   199   ar
  1071    14    15   ar
  1072    43    42   ar
  1073  1670  1687    1
  1074   472   473   ar
  1075  1820  1819    1
  1076   205   203    1
  1077   445   446   ar
  1078   445   444    1
  1079   468   474   ar
  1080    85    86    2
  1081   139   138    1
  1082  1903  1902   ar
  1083   204   202    1
  1084   204   203    1
  1085  1179  1185   ar
  1086  1179  1180   ar
  1087  1687  1689    1
  1088   103   102   ar
  1089  1176  1181   ar
  1090  1462  1468   ar
  1091  1824  1823    2
  1092    25    26    1
  1093   178   157    2
  1094   129   128   ar
  1095   129   130   ar
  1096    17    18    2
  1097    17    16   ar
  1098  1185  1184   ar
  1099   510   512   ar
  1100   510   509   ar
  1101   446   447    2
  1102   198   199   ar
  1103  1167  1168    1
  1104   128   127   ar
  1105  1471  1470   ar
  1106  1819  1817    1
  1107  1819  1821    1
  1108   769   768   ar
  1109   769   771   ar
  1110  1818  1817    1
  1111   512   513   ar
  1112   138   140    1
  1113   107   102   ar
  1114   107   108    1
  1115  1467  1468   ar
  1116  1467  1470   ar
  1117   202   222    1
  1118   202   185    1
  1119   489   490   ar
  1120   442   444    1
  1121   442   443    1
  1122   442   440    1
  1123   439   444    1
  1124   439   438    1
  1125   199   188    1
  1126   768   774   ar
  1127   473   474   ar
  1128   438   440    1
  1129   491   490   ar
  1130   491   494   ar
  1131    15    16   ar
  1132    15    21   ar
  1133  1468  1469    2
  1134   509   515   ar
  1135   474   464    1
  1136   177   157    1
  1137    26    24    1
  1138  1823  1825   ar
  1139  1823  1822   ar
  1140   131   130    2
  1141   130   124   ar
  1142  1180  1181   ar
  1143  1180  1183   ar
  1144  1168  1166    1
  1145   530   529    1
  1146  1181  1182    1
  1147   771   772   ar
  1148   507   506    1
  1149   157   143    1
  1150   157   159    1
  1151  1817  1815    1
  1152    16    19   ar
  1153   490   496   ar
  1154   440   441    1
  1155  1825  1826   ar
  1156   127   125   ar
  1157  1184  1183   ar
  1158     9     8    1
  1159   173   172    1
  1160  1689  1688    1
  1161  1821  1822    1
  1162  1821  1816    1
  1163   153   154   ar
  1164   153   151   ar
  1165   184   186    1
  1166   184   185    1
  1167   184   182    1
  1168   802   781    2
  1169   186   188    1
  1170   186   187    1
  1171   143   142    1
  1172   526   531    1
  1173   526   525    1
  1174   513   519   ar
  1175   513   514   ar
  1176   459   464    1
  1177   459   458    1
  1178     8    10    1
  1179     8     6    1
  1180   494   495   ar
  1181  1822  1829   ar
  1182   140   142    1
  1183   140   141    1
  1184   188   183    1
  1185   154   147   ar
  1186   201   179    2
  1187   531   529    1
  1188   531   532    1
  1189   774   775    2
  1190   774   773   ar
  1191   525   523    1
  1192   525   527    1
  1193   508   506    1
  1194   508   519    1
  1195   508   503    1
  1196   142   144    1
  1197   174   175   ar
  1198   174   171   ar
  1199   464   462    1
  1200   766   765    1
  1201    21    10    1
  1202    21    20   ar
  1203  1186  1166    2
  1204   506   504    1
  1205   124   125   ar
  1206   515   514   ar
  1207   515   516    2
  1208   125   126    1
  1209  1688  1690    1
  1210   529   527    1
  1211   772   773   ar
  1212   772   778   ar
  1213   152   151    2
  1214   159   158    1
  1215   180   182    1
  1216   180   181    1
  1217    10     5    1
  1218  1815  1816    1
  1219  1815  1813    1
  1220  1826  1827    1
  1221  1826  1828   ar
  1222  1166  1149    1
  1223  1166  1187    1
  1224   519   518   ar
  1225   496   495   ar
  1226   496   486    1
  1227   534   533    2
  1228   151   150   ar
  1229   523   524    1
  1230    19    20   ar
  1231    24    45    2
  1232    24     7    1
  1233    24    46    1
  1234   183   182    1
  1235   172   171   ar
  1236   172   167   ar
  1237   514   517   ar
  1238   141   146    1
  1239  1151  1150    1
  1240   441   455    1
  1241   175   176   ar
  1242   773   776   ar
  1243   764   781    1
  1244   764   763    1
  1245   503   502    1
  1246   171   170   ar
  1247   527   528    1
  1248   528   542    1
  1249     7     6    1
  1250  1801  1800    1
  1251   781   783    1
  1252   781   803    1
  1253  1829  1828   ar
  1254   456   458    1
  1255   456   457    1
  1256     6     4    1
  1257  1149  1148    1
  1258   458   460    1
  1259   532   533   ar
  1260   532   539   ar
  1261   457   455    1
  1262   147   146    1
  1263   147   148   ar
  1264   767   778    1
  1265   767   765    1
  1266   767   762    1
  1267   486   484    1
  1268   486   481    1
  1269   533   535   ar
  1270   778   777   ar
  1271   179   181    1
  1272   179   200    1
  1273   179   163    1
  1274   476   455    2
  1275   765   763    1
  1276   462   463    1
  1277   462   460    1
  1278   144   146    1
  1279   144   145    1
  1280  1799  1800   ar
  1281  1799  1805   ar
  1282   543   545    1
  1283   543   544    1
  1284   502   504    1
  1285   502   500    1
  1286   504   505    1
  1287   158   160    1
  1288   782   783    1
  1289   782   784    1
  1290   167   168   ar
  1291  1813  1814    1
  1292   455   475    1
  1293   518   517   ar
  1294   150   148   ar
  1295   546   545    1
  1296   546   551    1
  1297  1800  1802   ar
  1298  1690  1692    1
  1299  1690  1691    1
  1300   505   522    1
  1301   524   522    1
  1302  1150  1148    1
  1303  1150  1152    1
  1304     5     4    1
  1305  1806  1805    2
  1306   785   784    1
  1307   785   790    1
  1308  1814  1812    1
  1309   763   761    1
  1310   545   547    1
  1311   484   485    1
  1312   484   482    1
  1313   563   542    2
  1314   176   170   ar
  1315   176   166    1
  1316   539   538   ar
  1317   776   777   ar
  1318   170   169   ar
  1319   800   799   ar
  1320   800   801   ar
  1321   148   149    2
  1322   460   461    1
  1323   162   163    1
  1324   162   160    1
  1325   162   164    1
  1326  1805  1804   ar
  1327  1148  1146    1
  1328  1727  1707    2
  1329     4     2    1
  1330   542   544    1
  1331   542   564    1
  1332   481   480    1
  1333   762   761    1
  1334   799   796   ar
  1335   535   536   ar
  1336  1692  1694    1
  1337  1692  1693    1
  1338   784   786    1
  1339  1691  1696    1
  1340   540   522    2
  1341   761   759    1
  1342   522   541    1
  1343   160   161    1
  1344   461   477    1
  1345   168   169   ar
  1346   551   549    1
  1347   551   562    1
  1348  1802  1803   ar
  1349  1155  1154    1
  1350   161   166    1
  1351   500   501    1
  1352   550   549    1
  1353   790   801    1
  1354   790   788    1
  1355   801   795   ar
  1356  1728  1707    1
  1357  1146  1147    1
  1358  1146  1144    1
  1359   164   166    1
  1360   164   165    1
  1361  1831  1812    2
  1362   538   536   ar
  1363  1152  1147    1
  1364  1152  1163    1
  1365  1812  1830    1
  1366  1812  1795    1
  1367   993   975    2
  1368  1694  1696    1
  1369  1694  1695    1
  1370  1707  1693    1
  1371  1707  1709    1
  1372  1156  1154   ar
  1373  1156  1157   ar
  1374  1804  1803   ar
  1375  1804  1807   ar
  1376   536   537    2
  1377   482   480    1
  1378   482   483    1
  1379   547   549    1
  1380   547   548    1
  1381   796   795   ar
  1382   796   797   ar
  1383  1803  1809   ar
  1384   940   939    1
  1385  1154  1153   ar
  1386   480   478    1
  1387   956   958    1
  1388   956   957    1
  1389     2     3    1
  1390   562   561   ar
  1391   562   556   ar
  1392   961   975    1
  1393   961   960    1
  1394   501   499    1
  1395  1696  1697    1
  1396   548   565    1
  1397  1704  1697   ar
  1398  1704  1703   ar
  1399     3     1    1
  1400   973   955    2
  1401   958   960    1
  1402   958   959    1
  1403   561   560   ar
  1404   963   962    1
  1405   795   794   ar
  1406   786   788    1
  1407   786   787    1
  1408   798   797    2
  1409  1144  1145    1
  1410  1163  1157   ar
  1411  1163  1162   ar
  1412   759   760    1
  1413  1157  1158   ar
  1414   797   791   ar
  1415   976   977    1
  1416   976   978    1
  1417   477   479    1
  1418   477   498    2
  1419   477   497    1
  1420  1796  1797    1
  1421  1796  1794    1
  1422  1796  1798    1
  1423  1697  1698   ar
  1424  1807  1808   ar
  1425   975   977    1
  1426   975   994    1
  1427   788   789    1
  1428  1703  1701   ar
  1429   483   499    1
  1430   479   478    1
  1431   760   758    1
  1432  1795  1794    1
  1433   960   962    1
  1434   556   555   ar
  1435   556   557   ar
  1436  1809  1808   ar
  1437  1809  1798    1
  1438   938   955    1
  1439   938   937    1
  1440   959   964    1
  1441  1709  1708    1
  1442  1153  1159   ar
  1443   746   745    1
  1444   560   557   ar
  1445   555   553   ar
  1446   787   804    1
  1447     1    23    1
  1448     1    22    1
  1449  1794  1792    1
  1450   794   792   ar
  1451  1145  1143    1
  1452  1015   995    2
  1453   957   955    1
  1454   962   964    1
  1455   499   521    2
  1456   499   520    1
  1457   955   974    1
  1458   939   937    1
  1459   939   941    1
  1460  1708  1710    1
  1461   978   979    1
  1462   978   980    1
  1463  1162  1161   ar
  1464  1798  1793    1
  1465   583   565    2
  1466   557   558   ar
  1467   565   584    1
  1468   565   567    1
  1469   791   792   ar
  1470  1158  1159   ar
  1471  1158  1161   ar
  1472  1698  1699    2
  1473  1698  1700   ar
  1474   964   965    1
  1475   981   995    1
  1476   981   980    1
  1477   744   758    1
  1478   744   743    1
  1479   937   935    1
  1480  1701  1700   ar
  1481  1701  1702    1
  1482   792   793    1
  1483  1784  1783    1
  1484  1159  1160    2
  1485   935   936    1
  1486   935   933    1
  1487   553   554    1
  1488   553   552   ar
  1489   944   943    1
  1490   826   804    2
  1491   941   936    1
  1492   941   952    1
  1493   758   779    2
  1494   758   780    1
  1495   995  1016    1
  1496   995   997    1
  1497  1164  1143    2
  1498   979   984    1
  1499   566   567    1
  1500   566   568    1
  1501   980   982    1
  1502   804   825    1
  1503   804   806    1
  1504   745   743    1
  1505   745   747    1
  1506   945   943   ar
  1507   945   946   ar
  1508  1143  1129    1
  1509  1143  1165    1
  1510   558   552   ar
  1511   558   559    2
  1512  1131  1130    1
  1513  1792  1793    1
  1514  1792  1790    1
  1515   741   743    1
  1516   741   739    1
  1517   741   742    1
  1518  1135  1134    2
  1519  1748  1729    2
  1520  1783  1782   ar
  1521  1783  1785   ar
  1522  1710  1711    1
  1523  1710  1712    1
  1524  1724  1725   ar
  1525  1724  1721   ar
  1526  1725  1726   ar
  1527  1791  1790    1
  1528  1791  1789    1
  1529   943   942   ar
  1530   933   934    1
  1531  1811  1789    2
  1532   983   982    1
  1533   747   742    1
  1534   747   748    1
  1535   965   972   ar
  1536   965   966   ar
  1537   750   749    2
  1538  1130  1128    1
  1539  1130  1132    1
  1540   739   740    1
  1541  1782  1780   ar
  1542   822   823   ar
  1543   822   819   ar
  1544   569   568    1
  1545   569   574    1
  1546  1129  1128    1
  1547  1711  1716    1
  1548   952   946   ar
  1549   952   951   ar
  1550   568   570    1
  1551   806   805    1
  1552   996   997    1
  1553   996   998    1
  1554  1134  1136   ar
  1555  1134  1133   ar
  1556   821   820    2
  1557  1136  1137   ar
  1558   982   984    1
  1559  1764  1763    1
  1560   946   947   ar
  1561  1785  1786   ar
  1562   984   985    1
  1563   972   971   ar
  1564   967   966    2
  1565   823   824   ar
  1566  1712  1713    1
  1567  1712  1714    1
  1568   724   723    1
  1569  1789  1810    1
  1570  1789  1775    1
  1571  1747  1729    1
  1572  1713  1729    1
  1573  1729  1731    1
  1574  1128  1126    1
  1575   582   581   ar
  1576   582   575   ar
  1577   966   968   ar
  1578   805   807    1
  1579  1726  1716    1
  1580  1726  1720   ar
  1581   819   820   ar
  1582   819   818   ar
  1583   727   728   ar
  1584   727   726   ar
  1585   581   579   ar
  1586   934   932    1
  1587  1780  1781    2
  1588  1780  1779   ar
  1589   749   748   ar
  1590   749   751   ar
  1591   820   814   ar
  1592  1721  1722   ar
  1593  1721  1720   ar
  1594   992   985   ar
  1595   992   991   ar
  1596  1132  1133    1
  1597  1132  1127    1
  1598   942   948   ar
  1599  1137  1138    1
  1600  1137  1139   ar
  1601  1723  1722    1
  1602  1133  1140   ar
  1603   728   729   ar
  1604   748   755   ar
  1605  1716  1714    1
  1606   574   575    1
  1607   574   572    1
  1608  1786  1779   ar
  1609  1763  1765   ar
  1610  1763  1762   ar
  1611   985   986   ar
  1612   740   738    1
  1613  1765  1766   ar
  1614   808   807    1
  1615   808   813    1
  1616   951   950   ar
  1617   881   880    1
  1618   953   932    2
  1619   756   738    2
  1620   575   576   ar
  1621   824   818   ar
  1622   824   813    1
  1623   998   999    1
  1624   998  1000    1
  1625  1744  1743    2
  1626   723   725    1
  1627   723   721    1
  1628   570   571    1
  1629   570   572    1
  1630  1035  1017    2
  1631   947   948   ar
  1632   947   950   ar
  1633   971   969   ar
  1634  1779  1778    1
  1635   907   906    2
  1636  1722  1717   ar
  1637  1714  1715    1
  1638   879   880   ar
  1639   879   885   ar
  1640  1720  1719   ar
  1641  1788  1769    2
  1642  1036  1017    1
  1643   726   731   ar
  1644   818   817   ar
  1645   886   885    2
  1646  1775  1774    1
  1647  1745  1743   ar
  1648  1745  1746   ar
  1649   905   906   ar
  1650   905   903   ar
  1651   991   989   ar
  1652   807   809    1
  1653  1140  1139   ar
  1654  1731  1730    1
  1655  1126  1127    1
  1656  1126  1124    1
  1657   579   580    2
  1658   579   578   ar
  1659  1111  1112   ar
  1660  1111  1116   ar
  1661  1001  1017    1
  1662  1001  1000    1
  1663   968   969   ar
  1664   948   949    2
  1665  1774  1776    1
  1666  1774  1772    1
  1667   932   918    1
  1668   932   954    1
  1669   814   815   ar
  1670   571   585    1
  1671  1776  1778    1
  1672  1776  1777    1
  1673   751   752   ar
  1674   904   903    2
  1675  1768  1749    2
  1676   722   738    1
  1677   722   721    1
  1678   920   919    1
  1679   738   757    1
  1680   725   735    1
  1681   725   720    1
  1682  1017  1019    1
  1683   813   811    1
  1684   880   882   ar
  1685  1762  1760   ar
  1686  1743  1742   ar
  1687   572   573    1
  1688  1117  1116    1
  1689   999  1004    1
  1690   755   754   ar
  1691   843   842    1
  1692  1000  1002    1
  1693   729   735   ar
  1694   729   730   ar
  1695   906   908   ar
  1696  1766  1759   ar
  1697  1112  1113   ar
  1698   885   884   ar
  1699   918   917    1
  1700   969   970    2
  1701   576   578   ar
  1702   576   577    2
  1703  1771  1769    1
  1704  1771  1770    1
  1705   721   719    1
  1706   903   902   ar
  1707   986   987    2
  1708   986   988   ar
  1709  1778  1773    1
  1710  1116  1115   ar
  1711   864   863    2
  1712  1746  1739   ar
  1713   607   585    2
  1714   817   815   ar
  1715  1769  1787    1
  1716  1769  1755    1
  1717   735   734   ar
  1718   809   811    1
  1719   809   810    1
  1720  1717  1718   ar
  1721   815   816    1
  1722  1719  1718   ar
  1723   720   719    1
  1724   731   730   ar
  1725   731   732    1
  1726   719   717    1
  1727  1013  1012   ar
  1728  1013  1014   ar
  1729  1730  1732    1
  1730   585   606    1
  1731   585   587    1
  1732  1124  1125    1
  1733   924   923    2
  1734   989   988   ar
  1735   989   990    1
  1736  1760  1759   ar
  1737  1760  1761    2
  1738   844   841   ar
  1739   844   845   ar
  1740   752   754   ar
  1741   752   753    2
  1742  1772  1773    1
  1743  1772  1770    1
  1744   730   733   ar
  1745   705   704   ar
  1746   705   706   ar
  1747  1759  1758    1
  1748  1113  1114   ar
  1749   811   812    1
  1750   919   917    1
  1751   919   921    1
  1752   842   841   ar
  1753   842   837   ar
  1754   848   827    2
  1755   882   883   ar
  1756  1742  1740   ar
  1757  1749  1767    1
  1758  1749  1735    1
  1759  1749  1751    1
  1760  1750  1751    1
  1761  1750  1752    1
  1762   917   915    1
  1763  1125  1123    1
  1764  1004  1002    1
  1765  1004  1014    1
  1766  1012  1009   ar
  1767  1019  1018    1
  1768  1002  1003    1
  1769   884   883   ar
  1770   884   887   ar
  1771  1115  1114   ar
  1772  1115  1118   ar
  1773   908   909   ar
  1774   704   709   ar
  1775  1754  1755    1
  1776  1754  1752    1
  1777  1754  1756    1
  1778   863   862   ar
  1779   863   865   ar
  1780   810   827    1
  1781   841   840   ar
  1782  1014  1008   ar
  1783   902   909   ar
  1784   902   901    1
  1785  1739  1740   ar
  1786  1739  1738    1
  1787   921   922    1
  1788   921   916    1
  1789   706   707   ar
  1790  1734  1735    1
  1791  1734  1732    1
  1792  1734  1736    1
  1793  1114  1120   ar
  1794   923   922   ar
  1795   923   925   ar
  1796   845   846   ar
  1797   883   889   ar
  1798   734   733   ar
  1799  1732  1733    1
  1800   837   838   ar
  1801   862   860   ar
  1802  1095  1094    1
  1803   717   718    1
  1804  1752  1753    1
  1805  1018  1020    1
  1806   587   586    1
  1807  1740  1741    2
  1808  1756  1758    1
  1809  1756  1757    1
  1810   827   829    1
  1811   827   847    1
  1812  1753  1758    1
  1813   922   929   ar
  1814   925   926   ar
  1815  1733  1738    1
  1816   901   899    1
  1817   901   896    1
  1818  1118  1119   ar
  1819   865   866   ar
  1820   887   888   ar
  1821   915   916    1
  1822   915   913    1
  1823  1089  1094   ar
  1824  1089  1090   ar
  1825  1738  1736    1
  1826   586   588    1
  1827   603   604   ar
  1828   603   600   ar
  1829   899   900    1
  1830   899   897    1
  1831  1009  1008   ar
  1832  1009  1010   ar
  1833  1123  1142    2
  1834  1123  1141    1
  1835  1123  1107    1
  1836  1033  1034   ar
  1837  1033  1031   ar
  1838  1736  1737    1
  1839   702   701    1
  1840   709   710    1
  1841   709   708   ar
  1842   840   846   ar
  1843   840   839   ar
  1844  1120  1119   ar
  1845  1120  1110    1
  1846  1008  1007   ar
  1847   604   605   ar
  1848  1108  1109    1
  1849  1108  1110    1
  1850  1108  1106    1
  1851  1094  1093   ar
  1852   846   836    1
  1853   707   708   ar
  1854   707   713   ar
  1855   829   828    1
  1856   718   716    1
  1857   683   682    1
  1858  1034  1027   ar
  1859   838   839   ar
  1860   926   927    1
  1861   926   928   ar
  1862   929   928   ar
  1863   889   888   ar
  1864   889   878    1
  1865  1058  1037    2
  1866   860   861    2
  1867   860   859   ar
  1868  1032  1031    1
  1869   602   601    2
  1870   701   703    1
  1871   701   699    1
  1872  1090  1091   ar
  1873  1110  1105    1
  1874  1020  1021    1
  1875  1020  1022    1
  1876   589   588    1
  1877   589   594    1
  1878   896   895    1
  1879   708   711   ar
  1880  1031  1030   ar
  1881   866   859   ar
  1882  1107  1106    1
  1883   913   914    1
  1884   600   601   ar
  1885   600   599   ar
  1886  1106  1104    1
  1887  1011  1010    1
  1888  1010  1005   ar
  1889   703   713    1
  1890   703   698    1
  1891   681   682   ar
  1892   681   687   ar
  1893  1021  1026    1
  1894   588   590    1
  1895   831   836    1
  1896   831   830    1
  1897  1007  1006   ar
  1898   713   712   ar
  1899   897   895    1
  1900   897   898    1
  1901  1074  1073    1
  1902   914   912    1
  1903   605   594    1
  1904   605   599   ar
  1905  1022  1023    1
  1906  1022  1024    1
  1907   601   595   ar
  1908  1093  1096   ar
  1909  1093  1092   ar
  1910   859   858    1
  1911   682   684   ar
  1912   878   876    1
  1913   878   873    1
  1914   836   834    1
  1915   828   830    1
  1916  1023  1037    1
  1917  1037  1057    1
  1918  1037  1039    1
  1919  1027  1026    1
  1920  1027  1028   ar
  1921   876   877    1
  1922   876   874    1
  1923   688   687    2
  1924   716   700    1
  1925   716   736    2
  1926   716   737    1
  1927   594   592    1
  1928   599   598   ar
  1929  1091  1092   ar
  1930   895   893    1
  1931  1096  1097   ar
  1932   700   699    1
  1933   898   912    1
  1934  1053  1052    1
  1935   699   697    1
  1936   687   686   ar
  1937  1105  1104    1
  1938   830   832    1
  1939  1026  1024    1
  1940  1092  1098   ar
  1941   590   591    1
  1942   590   592    1
  1943  1030  1028   ar
  1944   623   622    2
  1945   711   712   ar
  1946  1005  1006   ar
  1947   698   697    1
  1948   868   849    2
  1949  1104  1102    1
  1950   627   608    2
  1951   832   834    1
  1952   832   833    1
  1953   912   930    2
  1954   912   931    1
  1955  1073  1075   ar
  1956  1073  1072   ar
  1957  1054  1055   ar
  1958  1054  1051   ar
  1959   595   596   ar
  1960   684   685   ar
  1961  1024  1025    1
  1962   873   872    1
  1963  1028  1029    2
  1964   834   835    1
  1965   645   644    2
  1966   894   893    1
  1967   894   892    1
  1968   911   892    2
  1969   858   853    1
  1970   858   856    1
  1971   697   695    1
  1972  1103  1102    1
  1973  1103  1101    1
  1974   591   608    1
  1975   592   593    1
  1976  1039  1038    1
  1977  1075  1076   ar
  1978  1122  1101    2
  1979   874   872    1
  1980   874   875    1
  1981   624   622   ar
  1982   624   625   ar
  1983  1097  1098   ar
  1984   598   596   ar
  1985   622   621   ar
  1986  1052  1051   ar
  1987  1052  1047   ar
  1988  1098  1088    1
  1989  1072  1070   ar
  1990  1055  1056   ar
  1991   853   852    1
  1992   596   597    1
  1993   686   685   ar
  1994   686   689   ar
  1995  1051  1050   ar
  1996   608   626    1
  1997   608   610    1
  1998   892   875    1
  1999   892   910    1
  2000   685   691   ar
  2001   666   665    2
  2002  1078  1059    2
  2003   856   854    1
  2004   856   857    1
  2005   833   849    1
  2006   849   851    1
  2007   849   867    1
  2008   872   870    1
  2009   851   850    1
  2010   644   638   ar
  2011   644   643   ar
  2012  1101  1121    1
  2013  1101  1085    1
  2014  1086  1088    1
  2015  1086  1084    1
  2016  1086  1087    1
  2017   625   618   ar
  2018  1038  1040    1
  2019   854   852    1
  2020   854   855    1
  2021   638   639   ar
  2022  1076  1069   ar
  2023  1047  1048   ar
  2024   695   696    1
  2025   621   619   ar
  2026   871   870    1
  2027   871   869    1
  2028  1088  1083    1
  2029  1100  1079    2
  2030   891   869    2
  2031   852   850    1
  2032  1070  1069   ar
  2033  1070  1071    2
  2034   689   690   ar
  2035   610   609    1
  2036  1084  1085    1
  2037  1084  1082    1
  2038   665   664   ar
  2039   665   667   ar
  2040  1056  1050   ar
  2041  1056  1046    1
  2042   696   694    1
  2043   664   662   ar
  2044  1050  1049   ar
  2045   643   646   ar
  2046   643   642   ar
  2047   646   647   ar
  2048   691   690   ar
  2049   691   680    1
  2050  1059  1061    1
  2051  1059  1077    1
  2052  1059  1043    1
  2053  1069  1068    1
  2054   869   855    1
  2055   869   890    1
  2056  1042  1040    1
  2057  1042  1043    1
  2058  1042  1044    1
  2059   618   619   ar
  2060   618   617    1
  2061   678   679    1
  2062   678   680    1
  2063   678   676    1
  2064  1040  1041    1
  2065  1081  1079    1
  2066  1081  1080    1
  2067  1041  1046    1
  2068   619   620    2
  2069  1083  1082    1
  2070   639   640    1
  2071   639   641   ar
  2072  1048  1049   ar
  2073  1061  1060    1
  2074   680   675    1
  2075  1079  1099    1
  2076  1079  1065    1
  2077  1046  1044    1
  2078   663   662    2
  2079   662   661   ar
  2080   609   611    1
  2081  1082  1080    1
  2082   667   668   ar
  2083   642   641   ar
  2084   642   648   ar
  2085   612   617    1
  2086   612   611    1
  2087   647   648   ar
  2088  1044  1045    1
  2089   694   715    2
  2090   694   677    1
  2091   694   714    1
  2092  1064  1066    1
  2093  1064  1065    1
  2094  1064  1062    1
  2095  1068  1066    1
  2096  1068  1063    1
  2097   617   615    1
  2098   676   677    1
  2099   676   674    1
  2100  1066  1067    1
  2101   611   613    1
  2102   650   628    2
  2103   648   637    1
  2104  1063  1062    1
  2105  1060  1062    1
  2106   675   674    1
  2107   661   668   ar
  2108   661   660    1
  2109   613   615    1
  2110   613   614    1
  2111   615   616    1
  2112   674   672    1
  2113   614   628    1
  2114   628   630    1
  2115   628   649    1
  2116   660   658    1
  2117   660   655    1
  2118   637   632    1
  2119   637   635    1
  2120   630   629    1
  2121   672   673    1
  2122   632   631    1
  2123   658   659    1
  2124   658   656    1
  2125   635   633    1
  2126   635   636    1
  2127   670   651    2
  2128   655   654    1
  2129   633   631    1
  2130   633   634    1
  2131   629   631    1
  2132   673   671    1
  2133   656   654    1
  2134   656   657    1
  2135   693   671    2
  2136   653   651    1
  2137   653   652    1
  2138   654   652    1
  2139   651   634    1
  2140   651   669    1
  2141   671   657    1
  2142   671   692    1
