1yrj_lig
 OpenBabel02221317003D

 37 40  0  0  1  0  0  0  0  0999 V2000
   39.1190    6.0750    9.6890 C   0  0  1  0  0  0  0  0  0  0  0  0
   40.3120    6.0010   10.6620 C   0  0  1  0  0  0  0  0  0  0  0  0
   41.3260    4.9250   10.2420 C   0  0  0  0  0  0  0  0  0  0  0  0
   40.6160    3.5540   10.0940 C   0  0  1  0  0  0  0  0  0  0  0  0
   39.4650    3.6630    9.0760 C   0  0  1  0  0  0  0  0  0  0  0  0
   38.7650    2.2460    8.9340 C   0  0  1  0  0  0  0  0  0  0  0  0
   39.7940    1.2050    8.4640 C   0  0  1  0  0  0  0  0  0  0  0  0
   40.9500    1.1700    9.4930 C   0  0  2  0  0  0  0  0  0  0  0  0
   38.4800   -0.3780    6.9560 C   0  0  0  0  0  0  0  0  0  0  0  0
   40.9830    7.3030   10.8090 N   0  0  0  0  0  0  0  0  0  0  0  0
   39.1310   -0.1230    8.2790 N   0  0  0  0  0  0  0  0  0  0  0  0
   39.4390    6.6940    8.4290 O   0  0  0  0  0  0  0  0  0  0  0  0
   38.5440    4.7250    9.5290 O   0  0  0  0  0  0  0  0  0  0  0  0
   41.5450    2.4890    9.6520 O   0  0  0  0  0  0  0  0  0  0  0  0
   38.2910    1.8280   10.1970 O   0  0  0  0  0  0  0  0  0  0  0  0
   41.9860    0.2690    9.1000 O   0  0  0  0  0  0  0  0  0  0  0  0
   42.8100   -0.1710   10.2050 C   0  0  2  0  0  0  0  0  0  0  0  0
   44.1730   -0.7290    9.7640 C   0  0  1  0  0  0  0  0  0  0  0  0
   44.0100   -2.0800    9.0180 C   0  0  2  0  0  0  0  0  0  0  0  0
   43.2920   -3.0730    9.9030 C   0  0  1  0  0  0  0  0  0  0  0  0
   41.9140   -2.4960   10.3050 C   0  0  1  0  0  0  0  0  0  0  0  0
   41.1370   -3.4170   11.2430 C   0  0  0  0  0  0  0  0  0  0  0  0
   43.1480   -4.3450    9.1650 N   0  0  0  0  0  0  0  0  0  0  0  0
   42.1010   -1.2060   10.9930 O   0  0  0  0  0  0  0  0  0  0  0  0
   44.8270    0.2610    8.9570 O   0  0  0  0  0  0  0  0  0  0  0  0
   45.3020   -2.6080    8.6880 O   0  0  0  0  0  0  0  0  0  0  0  0
   41.7950   -3.4860   12.4800 O   0  0  0  0  0  0  0  0  0  0  0  0
   38.4510    7.5100    7.6090 C   0  0  1  0  0  0  0  0  0  0  0  0
   39.0500    8.9250    7.4510 C   0  0  1  0  0  0  0  0  0  0  0  0
   38.1460    9.8200    6.5690 C   0  0  2  0  0  0  0  0  0  0  0  0
   37.9650    9.1810    5.1870 C   0  0  1  0  0  0  0  0  0  0  0  0
   37.3300    7.7740    5.3280 C   0  0  0  0  0  0  0  0  0  0  0  0
   38.2480    6.9010    6.1900 C   0  0  2  0  0  0  0  0  0  0  0  0
   37.0910   10.0360    4.3530 N   0  0  0  0  0  0  0  0  0  0  0  0
   37.6260    5.5830    6.2840 N   0  0  0  0  0  0  0  0  0  0  0  0
   39.1710    9.5340    8.7550 O   0  0  0  0  0  0  0  0  0  0  0  0
   38.7640   11.1180    6.4350 O   0  0  0  0  0  0  0  0  0  0  0  0
  1  2  1  0  0  0  0
  1 12  1  6  0  0  0
  1 13  1  0  0  0  0
  2  3  1  0  0  0  0
  2 10  1  6  0  0  0
  4  3  1  6  0  0  0
  4  5  1  0  0  0  0
  4 14  1  0  0  0  0
  5  6  1  0  0  0  0
  5 13  1  1  0  0  0
  6  7  1  0  0  0  0
  6 15  1  1  0  0  0
  7  8  1  0  0  0  0
  7 11  1  1  0  0  0
  8 14  1  0  0  0  0
  8 16  1  6  0  0  0
  9 11  1  0  0  0  0
 17 16  1  6  0  0  0
 17 18  1  0  0  0  0
 17 24  1  0  0  0  0
 18 19  1  0  0  0  0
 18 25  1  6  0  0  0
 19 20  1  0  0  0  0
 19 26  1  1  0  0  0
 20 21  1  0  0  0  0
 20 23  1  6  0  0  0
 21 22  1  1  0  0  0
 21 24  1  0  0  0  0
 22 27  1  0  0  0  0
 28 12  1  6  0  0  0
 28 29  1  0  0  0  0
 28 33  1  0  0  0  0
 29 30  1  0  0  0  0
 29 36  1  1  0  0  0
 30 31  1  0  0  0  0
 30 37  1  6  0  0  0
 31 32  1  0  0  0  0
 31 34  1  1  0  0  0
 32 33  1  0  0  0  0
 33 35  1  1  0  0  0
M  END
$$$$
