1yrj_lig
 OpenBabel11021811423D
libRbt.so/2013.1/901 2013/11/27
 37 40  0  0  0  0  0  0  0  0999 V2000
   39.3394    6.1592   10.1503 C   0  0  1  0  0  0  0  0  0  0  0  0
   40.5451    5.9799   11.0935 C   0  0  1  0  0  0  0  0  0  0  0  0
   41.4832    4.8602   10.6153 C   0  0  0  0  0  0  0  0  0  0  0  0
   40.6883    3.5403   10.4374 C   0  0  1  0  0  0  0  0  0  0  0  0
   39.5257    3.7535    9.4495 C   0  0  1  0  0  0  0  0  0  0  0  0
   38.7382    2.3869    9.2757 C   0  0  1  0  0  0  0  0  0  0  0  0
   39.6923    1.3029    8.7484 C   0  0  1  0  0  0  0  0  0  0  0  0
   40.8645    1.1628    9.7497 C   0  0  2  0  0  0  0  0  0  0  0  0
   39.7027   -1.1065    7.9110 C   0  0  0  0  0  0  0  0  0  0  0  0
   41.2969    7.2333   11.2690 N   0  0  0  0  0  0  0  0  0  0  0  0
   38.9462    0.0243    8.5339 N   0  0  0  0  0  0  0  0  0  0  0  0
   39.6710    6.8012    8.9049 O   0  0  0  0  0  0  0  0  0  0  0  0
   38.6803    4.8525    9.9581 O   0  0  0  0  0  0  0  0  0  0  0  0
   41.5417    2.4374    9.9395 O   0  0  0  0  0  0  0  0  0  0  0  0
   38.2652    1.9545   10.5343 O   0  0  0  0  0  0  0  0  0  0  0  0
   41.8357    0.2154    9.3039 O   0  0  0  0  0  0  0  0  0  0  0  0
   42.8580   -0.0618   10.2896 C   0  0  2  0  0  0  0  0  0  0  0  0
   44.2046   -0.4724    9.6718 C   0  0  1  0  0  0  0  0  0  0  0  0
   44.1116   -1.8709    9.0056 C   0  0  2  0  0  0  0  0  0  0  0  0
   43.6599   -2.8955   10.0210 C   0  0  1  0  0  0  0  0  0  0  0  0
   42.2906   -2.4699   10.6018 C   0  0  1  0  0  0  0  0  0  0  0  0
   41.7794   -3.4275   11.6758 C   0  0  0  0  0  0  0  0  0  0  0  0
   43.5766   -4.2129    9.3571 N   0  0  0  0  0  0  0  0  0  0  0  0
   42.4067   -1.1320   11.2093 O   0  0  0  0  0  0  0  0  0  0  0  0
   44.6049    0.5456    8.7431 O   0  0  0  0  0  0  0  0  0  0  0  0
   45.4004   -2.2545    8.5069 O   0  0  0  0  0  0  0  0  0  0  0  0
   40.7366   -2.8163   12.3878 O   0  0  0  0  0  0  0  0  0  0  0  0
   38.6728    7.5749    8.0567 C   0  0  1  0  0  0  0  0  0  0  0  0
   39.2843    8.9684    7.7918 C   0  0  1  0  0  0  0  0  0  0  0  0
   38.3695    9.8157    6.8746 C   0  0  2  0  0  0  0  0  0  0  0  0
   38.1471    9.0901    5.5423 C   0  0  1  0  0  0  0  0  0  0  0  0
   37.4993    7.7039    5.7905 C   0  0  0  0  0  0  0  0  0  0  0  0
   38.4279    6.8771    6.6861 C   0  0  2  0  0  0  0  0  0  0  0  0
   37.2630    9.9002    4.6748 N   0  0  0  0  0  0  0  0  0  0  0  0
   37.7929    5.5765    6.8813 N   0  0  0  0  0  0  0  0  0  0  0  0
   39.4445    9.6598    9.0497 O   0  0  0  0  0  0  0  0  0  0  0  0
   38.9993   11.0938    6.6409 O   0  0  0  0  0  0  0  0  0  0  0  0
  1  2  1  0  0  0  0
  1 12  1  6  0  0  0
  1 13  1  0  0  0  0
  2  3  1  0  0  0  0
  2 10  1  6  0  0  0
  4  3  1  6  0  0  0
  4  5  1  0  0  0  0
  4 14  1  0  0  0  0
  5  6  1  0  0  0  0
  5 13  1  1  0  0  0
  6  7  1  0  0  0  0
  6 15  1  1  0  0  0
  7  8  1  0  0  0  0
  7 11  1  1  0  0  0
  8 14  1  0  0  0  0
  8 16  1  6  0  0  0
  9 11  1  0  0  0  0
 17 16  1  6  0  0  0
 17 18  1  0  0  0  0
 17 24  1  0  0  0  0
 18 19  1  0  0  0  0
 18 25  1  6  0  0  0
 19 20  1  0  0  0  0
 19 26  1  1  0  0  0
 20 21  1  0  0  0  0
 20 23  1  6  0  0  0
 21 22  1  1  0  0  0
 21 24  1  0  0  0  0
 22 27  1  0  0  0  0
 28 12  1  1  0  0  0
 28 29  1  0  0  0  0
 28 33  1  0  0  0  0
 29 30  1  0  0  0  0
 29 36  1  1  0  0  0
 30 31  1  0  0  0  0
 30 37  1  6  0  0  0
 31 32  1  0  0  0  0
 31 34  1  6  0  0  0
 32 33  1  0  0  0  0
 33 35  1  1  0  0  0
M  END
>  <CHROM.1>
-155.15721504,174.95804446,-172.80549258,-151.57107294,164.92285115,127.00955417
40.56912012,3.12450871,9.08284815,-2.00899219,0.59281195,-3.13275735

>  <Name>
1yrj_lig

>  <RI>
224

>  <Rbt.Current_Directory>
/home/itssahil/PROJECTS/Mol_Feturizer/New_Systems/rnas/1yrj

>  <Rbt.Executable>
rbdock ($Id: //depot/dev/client3/rdock/2013.1/src/exe/rbdock.cxx#4 $)

>  <Rbt.Library>
libRbt.so (2013.1, Build901 2013/11/27)

>  <Rbt.Parameter_File>
/export/apps/rDock/src/rDock_2013.1_src/data/scripts/dock_solv.prm

>  <Rbt.Receptor>
prm/pocket_docking_2.prm

>  <SCORE>
-23.5274

>  <SCORE.INTER>
-23.2304

>  <SCORE.INTER.CONST>
1

>  <SCORE.INTER.POLAR>
-2.36108

>  <SCORE.INTER.ROT>
6

>  <SCORE.INTER.SOLV>
18.2569

>  <SCORE.INTER.VDW>
-21.3023

>  <SCORE.INTER.norm>
-0.627848

>  <SCORE.INTRA>
-0.426649

>  <SCORE.INTRA.DIHEDRAL>
-1.65517

>  <SCORE.INTRA.DIHEDRAL.0>
15.6389

>  <SCORE.INTRA.POLAR>
0

>  <SCORE.INTRA.POLAR.0>
0

>  <SCORE.INTRA.REPUL>
0

>  <SCORE.INTRA.REPUL.0>
0

>  <SCORE.INTRA.SOLV>
-0.482171

>  <SCORE.INTRA.SOLV.lig_0>
-90.9181

>  <SCORE.INTRA.VDW>
0.64202

>  <SCORE.INTRA.VDW.0>
-3.14158

>  <SCORE.INTRA.norm>
-0.0115311

>  <SCORE.RESTR>
0.129593

>  <SCORE.RESTR.CAVITY>
0.129593

>  <SCORE.RESTR.norm>
0.00350251

>  <SCORE.SYSTEM>
0

>  <SCORE.SYSTEM.CONST>
0

>  <SCORE.SYSTEM.DIHEDRAL>
0

>  <SCORE.SYSTEM.SOLV>
0

>  <SCORE.SYSTEM.norm>
0

>  <SCORE.heavy>
37

>  <SCORE.norm>
-0.635876

>  <RMSD>
0.545

$$$$
1yrj_lig
 OpenBabel11021811423D
libRbt.so/2013.1/901 2013/11/27
 37 40  0  0  0  0  0  0  0  0999 V2000
   39.3340    6.1520   10.2419 C   0  0  1  0  0  0  0  0  0  0  0  0
   40.5453    5.9665   11.1768 C   0  0  1  0  0  0  0  0  0  0  0  0
   41.4872    4.8588   10.6787 C   0  0  0  0  0  0  0  0  0  0  0  0
   40.6989    3.5370   10.4862 C   0  0  1  0  0  0  0  0  0  0  0  0
   39.5304    3.7573    9.5069 C   0  0  1  0  0  0  0  0  0  0  0  0
   38.7496    2.3888    9.3180 C   0  0  1  0  0  0  0  0  0  0  0  0
   39.7072    1.3176    8.7712 C   0  0  1  0  0  0  0  0  0  0  0  0
   40.8851    1.1703    9.7649 C   0  0  2  0  0  0  0  0  0  0  0  0
   37.9980    0.0089    7.4028 C   0  0  0  0  0  0  0  0  0  0  0  0
   41.2908    7.2216   11.3661 N   0  0  0  0  0  0  0  0  0  0  0  0
   38.9672    0.0380    8.5425 N   0  0  0  0  0  0  0  0  0  0  0  0
   39.6560    6.8131    9.0040 O   0  0  0  0  0  0  0  0  0  0  0  0
   38.6813    4.8444   10.0347 O   0  0  0  0  0  0  0  0  0  0  0  0
   41.5560    2.4460    9.9690 O   0  0  0  0  0  0  0  0  0  0  0  0
   38.2852    1.9364   10.5727 O   0  0  0  0  0  0  0  0  0  0  0  0
   41.8593    0.2347    9.3013 O   0  0  0  0  0  0  0  0  0  0  0  0
   42.9045   -0.0274   10.2670 C   0  0  2  0  0  0  0  0  0  0  0  0
   44.2145   -0.5174    9.6287 C   0  0  1  0  0  0  0  0  0  0  0  0
   44.0514   -1.9443    9.0409 C   0  0  2  0  0  0  0  0  0  0  0  0
   43.6000   -2.8981   10.1232 C   0  0  1  0  0  0  0  0  0  0  0  0
   42.2665   -2.3942   10.7244 C   0  0  1  0  0  0  0  0  0  0  0  0
   41.7598   -3.2760   11.8636 C   0  0  0  0  0  0  0  0  0  0  0  0
   43.4493   -4.2443    9.5331 N   0  0  0  0  0  0  0  0  0  0  0  0
   42.4487   -1.0317   11.2561 O   0  0  0  0  0  0  0  0  0  0  0  0
   44.6175    0.4361    8.6349 O   0  0  0  0  0  0  0  0  0  0  0  0
   45.3087   -2.3991    8.5221 O   0  0  0  0  0  0  0  0  0  0  0  0
   40.7642   -2.5912   12.5762 O   0  0  0  0  0  0  0  0  0  0  0  0
   38.6156    7.3646    8.0407 C   0  0  1  0  0  0  0  0  0  0  0  0
   39.0471    8.8031    7.6795 C   0  0  1  0  0  0  0  0  0  0  0  0
   38.0834    9.4332    6.6449 C   0  0  2  0  0  0  0  0  0  0  0  0
   38.0435    8.5743    5.3754 C   0  0  1  0  0  0  0  0  0  0  0  0
   37.5761    7.1365    5.7176 C   0  0  0  0  0  0  0  0  0  0  0  0
   38.5520    6.5267    6.7294 C   0  0  2  0  0  0  0  0  0  0  0  0
   37.1122    9.1762    4.3953 N   0  0  0  0  0  0  0  0  0  0  0  0
   38.0889    5.1707    7.0117 N   0  0  0  0  0  0  0  0  0  0  0  0
   39.0346    9.6132    8.8751 O   0  0  0  0  0  0  0  0  0  0  0  0
   38.5467   10.7630    6.3262 O   0  0  0  0  0  0  0  0  0  0  0  0
  1  2  1  0  0  0  0
  1 12  1  6  0  0  0
  1 13  1  0  0  0  0
  2  3  1  0  0  0  0
  2 10  1  6  0  0  0
  4  3  1  6  0  0  0
  4  5  1  0  0  0  0
  4 14  1  0  0  0  0
  5  6  1  0  0  0  0
  5 13  1  1  0  0  0
  6  7  1  0  0  0  0
  6 15  1  1  0  0  0
  7  8  1  0  0  0  0
  7 11  1  1  0  0  0
  8 14  1  0  0  0  0
  8 16  1  6  0  0  0
  9 11  1  0  0  0  0
 17 16  1  6  0  0  0
 17 18  1  0  0  0  0
 17 24  1  0  0  0  0
 18 19  1  0  0  0  0
 18 25  1  6  0  0  0
 19 20  1  0  0  0  0
 19 26  1  1  0  0  0
 20 21  1  0  0  0  0
 20 23  1  6  0  0  0
 21 22  1  1  0  0  0
 21 24  1  0  0  0  0
 22 27  1  0  0  0  0
 28 12  1  1  0  0  0
 28 29  1  0  0  0  0
 28 33  1  0  0  0  0
 29 30  1  0  0  0  0
 29 36  1  1  0  0  0
 30 31  1  0  0  0  0
 30 37  1  6  0  0  0
 31 32  1  0  0  0  0
 31 34  1  6  0  0  0
 32 33  1  0  0  0  0
 33 35  1  1  0  0  0
M  END
>  <CHROM.1>
-167.20888771,70.88499023,-174.11991933,-155.63639660,164.86295228,131.61659021
40.48282662,3.06494803,9.07520179,-2.17144745,0.84994487,-2.93813829

>  <Name>
1yrj_lig

>  <RI>
0

>  <Rbt.Current_Directory>
/home/itssahil/PROJECTS/Mol_Feturizer/New_Systems/rnas/1yrj

>  <Rbt.Executable>
rbdock ($Id: //depot/dev/client3/rdock/2013.1/src/exe/rbdock.cxx#4 $)

>  <Rbt.Library>
libRbt.so (2013.1, Build901 2013/11/27)

>  <Rbt.Parameter_File>
/export/apps/rDock/src/rDock_2013.1_src/data/scripts/dock_solv.prm

>  <Rbt.Receptor>
prm/pocket_docking_3.prm

>  <SCORE>
-28.196

>  <SCORE.INTER>
-25.9702

>  <SCORE.INTER.CONST>
1

>  <SCORE.INTER.POLAR>
-2.35938

>  <SCORE.INTER.ROT>
6

>  <SCORE.INTER.SOLV>
17.6232

>  <SCORE.INTER.VDW>
-22.9233

>  <SCORE.INTER.norm>
-0.701897

>  <SCORE.INTRA>
-2.22585

>  <SCORE.INTRA.DIHEDRAL>
-4.63644

>  <SCORE.INTRA.DIHEDRAL.0>
15.6389

>  <SCORE.INTRA.POLAR>
0

>  <SCORE.INTRA.POLAR.0>
0

>  <SCORE.INTRA.REPUL>
0

>  <SCORE.INTRA.REPUL.0>
0

>  <SCORE.INTRA.SOLV>
-0.396048

>  <SCORE.INTRA.SOLV.lig_0>
-90.9181

>  <SCORE.INTRA.VDW>
0.290397

>  <SCORE.INTRA.VDW.0>
-3.14158

>  <SCORE.INTRA.norm>
-0.060158

>  <SCORE.RESTR>
0

>  <SCORE.RESTR.CAVITY>
0

>  <SCORE.RESTR.norm>
0

>  <SCORE.SYSTEM>
0

>  <SCORE.SYSTEM.CONST>
0

>  <SCORE.SYSTEM.DIHEDRAL>
0

>  <SCORE.SYSTEM.SOLV>
0

>  <SCORE.SYSTEM.norm>
0

>  <SCORE.heavy>
37

>  <SCORE.norm>
-0.762055

>  <RMSD>
0.560

$$$$
1yrj_lig
 OpenBabel11021811423D
libRbt.so/2013.1/901 2013/11/27
 37 40  0  0  0  0  0  0  0  0999 V2000
   39.2994    6.1680   10.2935 C   0  0  1  0  0  0  0  0  0  0  0  0
   40.5032    5.9965   11.2406 C   0  0  1  0  0  0  0  0  0  0  0  0
   41.4784    4.9209   10.7362 C   0  0  0  0  0  0  0  0  0  0  0  0
   40.7256    3.5836   10.5117 C   0  0  1  0  0  0  0  0  0  0  0  0
   39.5642    3.7917    9.5212 C   0  0  1  0  0  0  0  0  0  0  0  0
   38.8200    2.4078    9.2996 C   0  0  1  0  0  0  0  0  0  0  0  0
   39.8106    1.3699    8.7473 C   0  0  1  0  0  0  0  0  0  0  0  0
   40.9794    1.2348    9.7534 C   0  0  2  0  0  0  0  0  0  0  0  0
   39.7253   -0.8450    7.4850 C   0  0  0  0  0  0  0  0  0  0  0  0
   41.2150    7.2662   11.4602 N   0  0  0  0  0  0  0  0  0  0  0  0
   39.1055    0.0765    8.4879 N   0  0  0  0  0  0  0  0  0  0  0  0
   39.6202    6.8577    9.0709 O   0  0  0  0  0  0  0  0  0  0  0  0
   38.6820    4.8484   10.0562 O   0  0  0  0  0  0  0  0  0  0  0  0
   41.6159    2.5229    9.9874 O   0  0  0  0  0  0  0  0  0  0  0  0
   38.3515    1.9229   10.5405 O   0  0  0  0  0  0  0  0  0  0  0  0
   41.9822    0.3314    9.2869 O   0  0  0  0  0  0  0  0  0  0  0  0
   42.9297   -0.0493   10.3120 C   0  0  2  0  0  0  0  0  0  0  0  0
   44.2779   -0.5269    9.7483 C   0  0  1  0  0  0  0  0  0  0  0  0
   44.1300   -1.8909    9.0232 C   0  0  2  0  0  0  0  0  0  0  0  0
   43.5585   -2.9189    9.9726 C   0  0  1  0  0  0  0  0  0  0  0  0
   42.1906   -2.4236   10.4989 C   0  0  1  0  0  0  0  0  0  0  0  0
   41.5609   -3.3829   11.5064 C   0  0  0  0  0  0  0  0  0  0  0  0
   43.4253   -4.2029    9.2536 N   0  0  0  0  0  0  0  0  0  0  0  0
   42.3608   -1.1194   11.1641 O   0  0  0  0  0  0  0  0  0  0  0  0
   44.7932    0.4948    8.8824 O   0  0  0  0  0  0  0  0  0  0  0  0
   45.4160   -2.3420    8.5765 O   0  0  0  0  0  0  0  0  0  0  0  0
   40.4517   -2.7680   12.1060 O   0  0  0  0  0  0  0  0  0  0  0  0
   38.5787    7.3830    8.0944 C   0  0  1  0  0  0  0  0  0  0  0  0
   38.9976    8.8196    7.7113 C   0  0  1  0  0  0  0  0  0  0  0  0
   38.0323    9.4230    6.6624 C   0  0  2  0  0  0  0  0  0  0  0  0
   38.0063    8.5430    5.4071 C   0  0  1  0  0  0  0  0  0  0  0  0
   37.5515    7.1065    5.7710 C   0  0  0  0  0  0  0  0  0  0  0  0
   38.5289    6.5231    6.7968 C   0  0  2  0  0  0  0  0  0  0  0  0
   37.0734    9.1195    4.4133 N   0  0  0  0  0  0  0  0  0  0  0  0
   38.0780    5.1674    7.0994 N   0  0  0  0  0  0  0  0  0  0  0  0
   38.9720    9.6491    8.8933 O   0  0  0  0  0  0  0  0  0  0  0  0
   38.4839   10.7520    6.3238 O   0  0  0  0  0  0  0  0  0  0  0  0
  1  2  1  0  0  0  0
  1 12  1  6  0  0  0
  1 13  1  0  0  0  0
  2  3  1  0  0  0  0
  2 10  1  6  0  0  0
  4  3  1  6  0  0  0
  4  5  1  0  0  0  0
  4 14  1  0  0  0  0
  5  6  1  0  0  0  0
  5 13  1  1  0  0  0
  6  7  1  0  0  0  0
  6 15  1  1  0  0  0
  7  8  1  0  0  0  0
  7 11  1  1  0  0  0
  8 14  1  0  0  0  0
  8 16  1  6  0  0  0
  9 11  1  0  0  0  0
 17 16  1  6  0  0  0
 17 18  1  0  0  0  0
 17 24  1  0  0  0  0
 18 19  1  0  0  0  0
 18 25  1  6  0  0  0
 19 20  1  0  0  0  0
 19 26  1  1  0  0  0
 20 21  1  0  0  0  0
 20 23  1  6  0  0  0
 21 22  1  1  0  0  0
 21 24  1  0  0  0  0
 22 27  1  0  0  0  0
 28 12  1  1  0  0  0
 28 29  1  0  0  0  0
 28 33  1  0  0  0  0
 29 30  1  0  0  0  0
 29 36  1  1  0  0  0
 30 31  1  0  0  0  0
 30 37  1  6  0  0  0
 31 32  1  0  0  0  0
 31 34  1  6  0  0  0
 32 33  1  0  0  0  0
 33 35  1  1  0  0  0
M  END
>  <CHROM.1>
-168.07778367,156.53290514,-166.97942538,-156.85649682,169.92312564,134.11880703
40.52753081,3.04835565,9.06359613,-2.26859600,0.94819101,-2.79267834

>  <Name>
1yrj_lig

>  <RI>
224

>  <Rbt.Current_Directory>
/home/itssahil/PROJECTS/Mol_Feturizer/New_Systems/rnas/1yrj

>  <Rbt.Executable>
rbdock ($Id: //depot/dev/client3/rdock/2013.1/src/exe/rbdock.cxx#4 $)

>  <Rbt.Library>
libRbt.so (2013.1, Build901 2013/11/27)

>  <Rbt.Parameter_File>
/export/apps/rDock/src/rDock_2013.1_src/data/scripts/dock_solv.prm

>  <Rbt.Receptor>
prm/pocket_docking_2.prm

>  <SCORE>
-25.9357

>  <SCORE.INTER>
-23.0874

>  <SCORE.INTER.CONST>
1

>  <SCORE.INTER.POLAR>
-2.1517

>  <SCORE.INTER.ROT>
6

>  <SCORE.INTER.SOLV>
17.0834

>  <SCORE.INTER.VDW>
-21.5138

>  <SCORE.INTER.norm>
-0.623984

>  <SCORE.INTRA>
-2.87391

>  <SCORE.INTRA.DIHEDRAL>
-4.73296

>  <SCORE.INTRA.DIHEDRAL.0>
15.6389

>  <SCORE.INTRA.POLAR>
0

>  <SCORE.INTRA.POLAR.0>
0

>  <SCORE.INTRA.REPUL>
0

>  <SCORE.INTRA.REPUL.0>
0

>  <SCORE.INTRA.SOLV>
-0.221141

>  <SCORE.INTRA.SOLV.lig_0>
-90.9181

>  <SCORE.INTRA.VDW>
-0.396859

>  <SCORE.INTRA.VDW.0>
-3.14158

>  <SCORE.INTRA.norm>
-0.0776733

>  <SCORE.RESTR>
0.0255871

>  <SCORE.RESTR.CAVITY>
0.0255871

>  <SCORE.RESTR.norm>
0.000691544

>  <SCORE.SYSTEM>
0

>  <SCORE.SYSTEM.CONST>
0

>  <SCORE.SYSTEM.DIHEDRAL>
0

>  <SCORE.SYSTEM.SOLV>
0

>  <SCORE.SYSTEM.norm>
0

>  <SCORE.heavy>
37

>  <SCORE.norm>
-0.700966

>  <RMSD>
0.601

$$$$
1yrj_lig
 OpenBabel11021811423D
libRbt.so/2013.1/901 2013/11/27
 37 40  0  0  0  0  0  0  0  0999 V2000
   39.3230    6.1821   10.2910 C   0  0  1  0  0  0  0  0  0  0  0  0
   40.5365    5.9820   11.2198 C   0  0  1  0  0  0  0  0  0  0  0  0
   41.4709    4.8739   10.7086 C   0  0  0  0  0  0  0  0  0  0  0  0
   40.6749    3.5580   10.5072 C   0  0  1  0  0  0  0  0  0  0  0  0
   39.5042    3.7931    9.5340 C   0  0  1  0  0  0  0  0  0  0  0  0
   38.7156    2.4304    9.3358 C   0  0  1  0  0  0  0  0  0  0  0  0
   39.6656    1.3592    8.7761 C   0  0  1  0  0  0  0  0  0  0  0  0
   40.8461    1.1969    9.7642 C   0  0  2  0  0  0  0  0  0  0  0  0
   37.9705    0.0605    7.3808 C   0  0  0  0  0  0  0  0  0  0  0  0
   41.2894    7.2315   11.4176 N   0  0  0  0  0  0  0  0  0  0  0  0
   38.9180    0.0855    8.5387 N   0  0  0  0  0  0  0  0  0  0  0  0
   39.6441    6.8525    9.0578 O   0  0  0  0  0  0  0  0  0  0  0  0
   38.6627    4.8799   10.0745 O   0  0  0  0  0  0  0  0  0  0  0  0
   41.5245    2.4671    9.9773 O   0  0  0  0  0  0  0  0  0  0  0  0
   38.2531    1.9693   10.5880 O   0  0  0  0  0  0  0  0  0  0  0  0
   41.8138    0.2603    9.2889 O   0  0  0  0  0  0  0  0  0  0  0  0
   42.8504   -0.0304   10.2556 C   0  0  2  0  0  0  0  0  0  0  0  0
   44.1768   -0.4684    9.6134 C   0  0  1  0  0  0  0  0  0  0  0  0
   44.0453   -1.8683    8.9566 C   0  0  2  0  0  0  0  0  0  0  0  0
   43.5956   -2.8795    9.9863 C   0  0  1  0  0  0  0  0  0  0  0  0
   42.2461   -2.4263   10.5919 C   0  0  1  0  0  0  0  0  0  0  0  0
   41.7392   -3.3691   11.6810 C   0  0  0  0  0  0  0  0  0  0  0  0
   43.4754   -4.1985    9.3312 N   0  0  0  0  0  0  0  0  0  0  0  0
   42.3984   -1.0877   11.1898 O   0  0  0  0  0  0  0  0  0  0  0  0
   44.5767    0.5375    8.6714 O   0  0  0  0  0  0  0  0  0  0  0  0
   45.3168   -2.2777    8.4345 O   0  0  0  0  0  0  0  0  0  0  0  0
   40.8796   -2.6694   12.5408 O   0  0  0  0  0  0  0  0  0  0  0  0
   38.6134    7.2343    8.0060 C   0  0  1  0  0  0  0  0  0  0  0  0
   38.9461    8.6699    7.5429 C   0  0  1  0  0  0  0  0  0  0  0  0
   37.9890    9.1304    6.4168 C   0  0  2  0  0  0  0  0  0  0  0  0
   38.0831    8.1708    5.2246 C   0  0  1  0  0  0  0  0  0  0  0  0
   37.7157    6.7314    5.6671 C   0  0  0  0  0  0  0  0  0  0  0  0
   38.6843    6.2902    6.7693 C   0  0  2  0  0  0  0  0  0  0  0  0
   37.1578    8.6105    4.1564 N   0  0  0  0  0  0  0  0  0  0  0  0
   38.3178    4.9275    7.1454 N   0  0  0  0  0  0  0  0  0  0  0  0
   38.8076    9.5706    8.6634 O   0  0  0  0  0  0  0  0  0  0  0  0
   38.3599   10.4642    6.0066 O   0  0  0  0  0  0  0  0  0  0  0  0
  1  2  1  0  0  0  0
  1 12  1  6  0  0  0
  1 13  1  0  0  0  0
  2  3  1  0  0  0  0
  2 10  1  6  0  0  0
  4  3  1  6  0  0  0
  4  5  1  0  0  0  0
  4 14  1  0  0  0  0
  5  6  1  0  0  0  0
  5 13  1  1  0  0  0
  6  7  1  0  0  0  0
  6 15  1  1  0  0  0
  7  8  1  0  0  0  0
  7 11  1  1  0  0  0
  8 14  1  0  0  0  0
  8 16  1  6  0  0  0
  9 11  1  0  0  0  0
 17 16  1  6  0  0  0
 17 18  1  0  0  0  0
 17 24  1  0  0  0  0
 18 19  1  0  0  0  0
 18 25  1  6  0  0  0
 19 20  1  0  0  0  0
 19 26  1  1  0  0  0
 20 21  1  0  0  0  0
 20 23  1  6  0  0  0
 21 22  1  1  0  0  0
 21 24  1  0  0  0  0
 22 27  1  0  0  0  0
 28 12  1  1  0  0  0
 28 29  1  0  0  0  0
 28 33  1  0  0  0  0
 29 30  1  0  0  0  0
 29 36  1  1  0  0  0
 30 31  1  0  0  0  0
 30 37  1  6  0  0  0
 31 32  1  0  0  0  0
 31 34  1  6  0  0  0
 32 33  1  0  0  0  0
 33 35  1  1  0  0  0
M  END
>  <CHROM.1>
-176.66281492,72.40145870,-173.28415234,-153.36440721,155.60087611,136.27200975
40.46730683,3.00967633,9.02644086,-2.33255503,0.98641811,-2.74776568

>  <Name>
1yrj_lig

>  <RI>
224

>  <Rbt.Current_Directory>
/home/itssahil/PROJECTS/Mol_Feturizer/New_Systems/rnas/1yrj

>  <Rbt.Executable>
rbdock ($Id: //depot/dev/client3/rdock/2013.1/src/exe/rbdock.cxx#4 $)

>  <Rbt.Library>
libRbt.so (2013.1, Build901 2013/11/27)

>  <Rbt.Parameter_File>
/export/apps/rDock/src/rDock_2013.1_src/data/scripts/dock_solv.prm

>  <Rbt.Receptor>
prm/pocket_docking_2.prm

>  <SCORE>
-27.9911

>  <SCORE.INTER>
-26.4819

>  <SCORE.INTER.CONST>
1

>  <SCORE.INTER.POLAR>
-2.43423

>  <SCORE.INTER.ROT>
6

>  <SCORE.INTER.SOLV>
16.5412

>  <SCORE.INTER.VDW>
-22.6543

>  <SCORE.INTER.norm>
-0.715728

>  <SCORE.INTRA>
-1.55423

>  <SCORE.INTRA.DIHEDRAL>
-4.34832

>  <SCORE.INTRA.DIHEDRAL.0>
15.6389

>  <SCORE.INTRA.POLAR>
0

>  <SCORE.INTRA.POLAR.0>
0

>  <SCORE.INTRA.REPUL>
0

>  <SCORE.INTRA.REPUL.0>
0

>  <SCORE.INTRA.SOLV>
0.303612

>  <SCORE.INTRA.SOLV.lig_0>
-90.9181

>  <SCORE.INTRA.VDW>
0.468124

>  <SCORE.INTRA.VDW.0>
-3.14158

>  <SCORE.INTRA.norm>
-0.0420062

>  <SCORE.RESTR>
0.0450987

>  <SCORE.RESTR.CAVITY>
0.0450987

>  <SCORE.RESTR.norm>
0.00121888

>  <SCORE.SYSTEM>
0

>  <SCORE.SYSTEM.CONST>
0

>  <SCORE.SYSTEM.DIHEDRAL>
0

>  <SCORE.SYSTEM.SOLV>
0

>  <SCORE.SYSTEM.norm>
0

>  <SCORE.heavy>
37

>  <SCORE.norm>
-0.756515

>  <RMSD>
0.664

$$$$
1yrj_lig
 OpenBabel11021811423D
libRbt.so/2013.1/901 2013/11/27
 37 40  0  0  0  0  0  0  0  0999 V2000
   39.2463    6.0591   10.2376 C   0  0  1  0  0  0  0  0  0  0  0  0
   40.4441    5.9043   11.1950 C   0  0  1  0  0  0  0  0  0  0  0  0
   41.4246    4.8231   10.7134 C   0  0  0  0  0  0  0  0  0  0  0  0
   40.6756    3.4811   10.5043 C   0  0  1  0  0  0  0  0  0  0  0  0
   39.5204    3.6719    9.5033 C   0  0  1  0  0  0  0  0  0  0  0  0
   38.7802    2.2834    9.2978 C   0  0  1  0  0  0  0  0  0  0  0  0
   39.7762    1.2392    8.7678 C   0  0  1  0  0  0  0  0  0  0  0  0
   40.9386    1.1215    9.7835 C   0  0  2  0  0  0  0  0  0  0  0  0
   38.2470   -0.1602    7.2812 C   0  0  0  0  0  0  0  0  0  0  0  0
   41.1522    7.1786   11.4001 N   0  0  0  0  0  0  0  0  0  0  0  0
   39.0752   -0.0594    8.5235 N   0  0  0  0  0  0  0  0  0  0  0  0
   39.5739    6.7308    9.0068 O   0  0  0  0  0  0  0  0  0  0  0  0
   38.6328    4.7350   10.0163 O   0  0  0  0  0  0  0  0  0  0  0  0
   41.5712    2.4142   10.0020 O   0  0  0  0  0  0  0  0  0  0  0  0
   38.3043    1.8165   10.5428 O   0  0  0  0  0  0  0  0  0  0  0  0
   41.9461    0.2130    9.3373 O   0  0  0  0  0  0  0  0  0  0  0  0
   42.8809   -0.1590   10.3771 C   0  0  2  0  0  0  0  0  0  0  0  0
   44.2105   -0.7069    9.8334 C   0  0  1  0  0  0  0  0  0  0  0  0
   44.0130   -2.0933    9.1646 C   0  0  2  0  0  0  0  0  0  0  0  0
   43.4067   -3.0607   10.1551 C   0  0  1  0  0  0  0  0  0  0  0  0
   42.0580   -2.4959   10.6607 C   0  0  1  0  0  0  0  0  0  0  0  0
   41.3960   -3.3903   11.7065 C   0  0  0  0  0  0  0  0  0  0  0  0
   43.2269   -4.3673    9.4891 N   0  0  0  0  0  0  0  0  0  0  0  0
   42.2755   -1.1726   11.2722 O   0  0  0  0  0  0  0  0  0  0  0  0
   44.7605    0.2597    8.9266 O   0  0  0  0  0  0  0  0  0  0  0  0
   45.2816   -2.6077    8.7367 O   0  0  0  0  0  0  0  0  0  0  0  0
   40.1177   -2.8944   12.0028 O   0  0  0  0  0  0  0  0  0  0  0  0
   38.5510    7.0991    7.9426 C   0  0  1  0  0  0  0  0  0  0  0  0
   38.8034    8.5742    7.5599 C   0  0  1  0  0  0  0  0  0  0  0  0
   37.8511    9.0293    6.4276 C   0  0  2  0  0  0  0  0  0  0  0  0
   38.0407    8.1384    5.1941 C   0  0  1  0  0  0  0  0  0  0  0  0
   37.7544    6.6583    5.5550 C   0  0  0  0  0  0  0  0  0  0  0  0
   38.7177    6.2244    6.6648 C   0  0  2  0  0  0  0  0  0  0  0  0
   37.1197    8.5718    4.1197 N   0  0  0  0  0  0  0  0  0  0  0  0
   38.4292    4.8242    6.9631 N   0  0  0  0  0  0  0  0  0  0  0  0
   38.5754    9.4072    8.7175 O   0  0  0  0  0  0  0  0  0  0  0  0
   38.1467   10.4026    6.0940 O   0  0  0  0  0  0  0  0  0  0  0  0
  1  2  1  0  0  0  0
  1 12  1  6  0  0  0
  1 13  1  0  0  0  0
  2  3  1  0  0  0  0
  2 10  1  6  0  0  0
  4  3  1  6  0  0  0
  4  5  1  0  0  0  0
  4 14  1  0  0  0  0
  5  6  1  0  0  0  0
  5 13  1  1  0  0  0
  6  7  1  0  0  0  0
  6 15  1  1  0  0  0
  7  8  1  0  0  0  0
  7 11  1  1  0  0  0
  8 14  1  0  0  0  0
  8 16  1  6  0  0  0
  9 11  1  0  0  0  0
 17 16  1  6  0  0  0
 17 18  1  0  0  0  0
 17 24  1  0  0  0  0
 18 19  1  0  0  0  0
 18 25  1  6  0  0  0
 19 20  1  0  0  0  0
 19 26  1  1  0  0  0
 20 21  1  0  0  0  0
 20 23  1  6  0  0  0
 21 22  1  1  0  0  0
 21 24  1  0  0  0  0
 22 27  1  0  0  0  0
 28 12  1  1  0  0  0
 28 29  1  0  0  0  0
 28 33  1  0  0  0  0
 29 30  1  0  0  0  0
 29 36  1  1  0  0  0
 30 31  1  0  0  0  0
 30 37  1  6  0  0  0
 31 32  1  0  0  0  0
 31 34  1  6  0  0  0
 32 33  1  0  0  0  0
 33 35  1  1  0  0  0
M  END
>  <CHROM.1>
-175.28087658,77.45856732,-166.49088131,-159.64330639,-173.39448327,131.94042026
40.41518899,2.88517928,9.03569001,-2.23692711,0.91684372,-2.86578335

>  <Name>
1yrj_lig

>  <RI>
224

>  <Rbt.Current_Directory>
/home/itssahil/PROJECTS/Mol_Feturizer/New_Systems/rnas/1yrj

>  <Rbt.Executable>
rbdock ($Id: //depot/dev/client3/rdock/2013.1/src/exe/rbdock.cxx#4 $)

>  <Rbt.Library>
libRbt.so (2013.1, Build901 2013/11/27)

>  <Rbt.Parameter_File>
/export/apps/rDock/src/rDock_2013.1_src/data/scripts/dock_solv.prm

>  <Rbt.Receptor>
prm/pocket_docking_2.prm

>  <SCORE>
-26.64

>  <SCORE.INTER>
-23.6077

>  <SCORE.INTER.CONST>
1

>  <SCORE.INTER.POLAR>
-1.85359

>  <SCORE.INTER.ROT>
6

>  <SCORE.INTER.SOLV>
16.7092

>  <SCORE.INTER.VDW>
-22.7296

>  <SCORE.INTER.norm>
-0.638046

>  <SCORE.INTRA>
-3.03232

>  <SCORE.INTRA.DIHEDRAL>
-5.81042

>  <SCORE.INTRA.DIHEDRAL.0>
15.6389

>  <SCORE.INTRA.POLAR>
0

>  <SCORE.INTRA.POLAR.0>
0

>  <SCORE.INTRA.REPUL>
0

>  <SCORE.INTRA.REPUL.0>
0

>  <SCORE.INTRA.SOLV>
-0.0142279

>  <SCORE.INTRA.SOLV.lig_0>
-90.9181

>  <SCORE.INTRA.VDW>
-0.119998

>  <SCORE.INTRA.VDW.0>
-3.14158

>  <SCORE.INTRA.norm>
-0.0819546

>  <SCORE.RESTR>
0

>  <SCORE.RESTR.CAVITY>
0

>  <SCORE.RESTR.norm>
0

>  <SCORE.SYSTEM>
0

>  <SCORE.SYSTEM.CONST>
0

>  <SCORE.SYSTEM.DIHEDRAL>
0

>  <SCORE.SYSTEM.SOLV>
0

>  <SCORE.SYSTEM.norm>
0

>  <SCORE.heavy>
37

>  <SCORE.norm>
-0.720001

>  <RMSD>
0.683

$$$$
1yrj_lig
 OpenBabel11021811423D
libRbt.so/2013.1/901 2013/11/27
 37 40  0  0  0  0  0  0  0  0999 V2000
   39.4289    6.0695   10.3148 C   0  0  1  0  0  0  0  0  0  0  0  0
   40.6606    5.8432   11.2132 C   0  0  1  0  0  0  0  0  0  0  0  0
   41.5674    4.7277   10.6693 C   0  0  0  0  0  0  0  0  0  0  0  0
   40.7487    3.4250   10.4734 C   0  0  1  0  0  0  0  0  0  0  0  0
   39.5592    3.6861    9.5300 C   0  0  1  0  0  0  0  0  0  0  0  0
   38.7474    2.3365    9.3366 C   0  0  1  0  0  0  0  0  0  0  0  0
   39.6692    1.2581    8.7443 C   0  0  1  0  0  0  0  0  0  0  0  0
   40.8699    1.0695    9.7031 C   0  0  2  0  0  0  0  0  0  0  0  0
   38.9195   -0.5645    7.1249 C   0  0  0  0  0  0  0  0  0  0  0  0
   41.4351    7.0802   11.4059 N   0  0  0  0  0  0  0  0  0  0  0  0
   38.8988   -0.0027    8.5117 N   0  0  0  0  0  0  0  0  0  0  0  0
   39.7307    6.7480    9.0812 O   0  0  0  0  0  0  0  0  0  0  0  0
   38.7457    4.7787   10.1007 O   0  0  0  0  0  0  0  0  0  0  0  0
   41.5706    2.3281    9.9131 O   0  0  0  0  0  0  0  0  0  0  0  0
   38.3076    1.8689   10.5946 O   0  0  0  0  0  0  0  0  0  0  0  0
   41.8132    0.1247    9.1962 O   0  0  0  0  0  0  0  0  0  0  0  0
   42.7718   -0.3136   10.1874 C   0  0  2  0  0  0  0  0  0  0  0  0
   43.9965   -1.0176    9.5809 C   0  0  1  0  0  0  0  0  0  0  0  0
   43.6096   -2.3946    8.9788 C   0  0  2  0  0  0  0  0  0  0  0  0
   42.9731   -3.2603   10.0420 C   0  0  1  0  0  0  0  0  0  0  0  0
   41.7286   -2.5386   10.6110 C   0  0  1  0  0  0  0  0  0  0  0  0
   41.0484   -3.3241   11.7300 C   0  0  0  0  0  0  0  0  0  0  0  0
   42.6122   -4.5600    9.4386 N   0  0  0  0  0  0  0  0  0  0  0  0
   42.1250   -1.2282   11.1570 O   0  0  0  0  0  0  0  0  0  0  0  0
   44.5827   -0.1441    8.6049 O   0  0  0  0  0  0  0  0  0  0  0  0
   44.7851   -3.0553    8.4904 O   0  0  0  0  0  0  0  0  0  0  0  0
   41.9518   -3.5070   12.7876 O   0  0  0  0  0  0  0  0  0  0  0  0
   38.6896    7.0998    8.0292 C   0  0  1  0  0  0  0  0  0  0  0  0
   38.9381    8.5672    7.6157 C   0  0  1  0  0  0  0  0  0  0  0  0
   37.9665    9.0043    6.4928 C   0  0  2  0  0  0  0  0  0  0  0  0
   38.1319    8.0911    5.2723 C   0  0  1  0  0  0  0  0  0  0  0  0
   37.8490    6.6185    5.6647 C   0  0  0  0  0  0  0  0  0  0  0  0
   38.8314    6.2021    6.7644 C   0  0  2  0  0  0  0  0  0  0  0  0
   37.1925    8.5076    4.2071 N   0  0  0  0  0  0  0  0  0  0  0  0
   38.5454    4.8081    7.0928 N   0  0  0  0  0  0  0  0  0  0  0  0
   38.7328    9.4212    8.7622 O   0  0  0  0  0  0  0  0  0  0  0  0
   38.2588   10.3708    6.1296 O   0  0  0  0  0  0  0  0  0  0  0  0
  1  2  1  0  0  0  0
  1 12  1  6  0  0  0
  1 13  1  0  0  0  0
  2  3  1  0  0  0  0
  2 10  1  6  0  0  0
  4  3  1  6  0  0  0
  4  5  1  0  0  0  0
  4 14  1  0  0  0  0
  5  6  1  0  0  0  0
  5 13  1  1  0  0  0
  6  7  1  0  0  0  0
  6 15  1  1  0  0  0
  7  8  1  0  0  0  0
  7 11  1  1  0  0  0
  8 14  1  0  0  0  0
  8 16  1  6  0  0  0
  9 11  1  0  0  0  0
 17 16  1  6  0  0  0
 17 18  1  0  0  0  0
 17 24  1  0  0  0  0
 18 19  1  0  0  0  0
 18 25  1  6  0  0  0
 19 20  1  0  0  0  0
 19 26  1  1  0  0  0
 20 21  1  0  0  0  0
 20 23  1  6  0  0  0
 21 22  1  1  0  0  0
 21 24  1  0  0  0  0
 22 27  1  0  0  0  0
 28 12  1  1  0  0  0
 28 29  1  0  0  0  0
 28 33  1  0  0  0  0
 29 30  1  0  0  0  0
 29 36  1  1  0  0  0
 30 31  1  0  0  0  0
 30 37  1  6  0  0  0
 31 32  1  0  0  0  0
 31 34  1  6  0  0  0
 32 33  1  0  0  0  0
 33 35  1  1  0  0  0
M  END
>  <CHROM.1>
-179.49074570,124.43018542,-166.18104791,-164.47697378,60.30858591,133.54537493
40.45153283,2.78521499,9.03342913,-2.42798377,1.08964017,-2.60983585

>  <Name>
1yrj_lig

>  <RI>
224

>  <Rbt.Current_Directory>
/home/itssahil/PROJECTS/Mol_Feturizer/New_Systems/rnas/1yrj

>  <Rbt.Executable>
rbdock ($Id: //depot/dev/client3/rdock/2013.1/src/exe/rbdock.cxx#4 $)

>  <Rbt.Library>
libRbt.so (2013.1, Build901 2013/11/27)

>  <Rbt.Parameter_File>
/export/apps/rDock/src/rDock_2013.1_src/data/scripts/dock_solv.prm

>  <Rbt.Receptor>
prm/pocket_docking_2.prm

>  <SCORE>
-25.9142

>  <SCORE.INTER>
-22.986

>  <SCORE.INTER.CONST>
1

>  <SCORE.INTER.POLAR>
-1.85359

>  <SCORE.INTER.ROT>
6

>  <SCORE.INTER.SOLV>
15.8235

>  <SCORE.INTER.VDW>
-22.0198

>  <SCORE.INTER.norm>
-0.621243

>  <SCORE.INTRA>
-2.93922

>  <SCORE.INTRA.DIHEDRAL>
-6.00378

>  <SCORE.INTRA.DIHEDRAL.0>
15.6389

>  <SCORE.INTRA.POLAR>
0

>  <SCORE.INTRA.POLAR.0>
0

>  <SCORE.INTRA.REPUL>
0

>  <SCORE.INTRA.REPUL.0>
0

>  <SCORE.INTRA.SOLV>
0.98728

>  <SCORE.INTRA.SOLV.lig_0>
-90.9181

>  <SCORE.INTRA.VDW>
-0.43097

>  <SCORE.INTRA.VDW.0>
-3.14158

>  <SCORE.INTRA.norm>
-0.0794383

>  <SCORE.RESTR>
0.0110403

>  <SCORE.RESTR.CAVITY>
0.0110403

>  <SCORE.RESTR.norm>
0.000298386

>  <SCORE.SYSTEM>
0

>  <SCORE.SYSTEM.CONST>
0

>  <SCORE.SYSTEM.DIHEDRAL>
0

>  <SCORE.SYSTEM.SOLV>
0

>  <SCORE.SYSTEM.norm>
0

>  <SCORE.heavy>
37

>  <SCORE.norm>
-0.700383

>  <RMSD>
0.687

$$$$
1yrj_lig
 OpenBabel11021811423D
libRbt.so/2013.1/901 2013/11/27
 37 40  0  0  0  0  0  0  0  0999 V2000
   39.3722    6.0292   10.2764 C   0  0  1  0  0  0  0  0  0  0  0  0
   40.5946    5.8174   11.1909 C   0  0  1  0  0  0  0  0  0  0  0  0
   41.5144    4.7033   10.6663 C   0  0  0  0  0  0  0  0  0  0  0  0
   40.7059    3.3941   10.4711 C   0  0  1  0  0  0  0  0  0  0  0  0
   39.5260    3.6407    9.5119 C   0  0  1  0  0  0  0  0  0  0  0  0
   38.7245    2.2847    9.3196 C   0  0  1  0  0  0  0  0  0  0  0  0
   39.6597    1.2074    8.7466 C   0  0  1  0  0  0  0  0  0  0  0  0
   40.8501    1.0336    9.7207 C   0  0  2  0  0  0  0  0  0  0  0  0
   38.0281   -0.1159    7.2996 C   0  0  0  0  0  0  0  0  0  0  0  0
   41.3594    7.0605   11.3828 N   0  0  0  0  0  0  0  0  0  0  0  0
   38.8996   -0.0598    8.5148 N   0  0  0  0  0  0  0  0  0  0  0  0
   39.6843    6.7000    9.0412 O   0  0  0  0  0  0  0  0  0  0  0  0
   38.6993    4.7327   10.0645 O   0  0  0  0  0  0  0  0  0  0  0  0
   41.5408    2.2979    9.9289 O   0  0  0  0  0  0  0  0  0  0  0  0
   38.2729    1.8242   10.5760 O   0  0  0  0  0  0  0  0  0  0  0  0
   41.8050    0.0906    9.2321 O   0  0  0  0  0  0  0  0  0  0  0  0
   42.8092   -0.2650   10.2113 C   0  0  2  0  0  0  0  0  0  0  0  0
   44.0421   -0.9491    9.5985 C   0  0  1  0  0  0  0  0  0  0  0  0
   43.6918   -2.3660    9.0711 C   0  0  2  0  0  0  0  0  0  0  0  0
   43.1219   -3.2055   10.1915 C   0  0  1  0  0  0  0  0  0  0  0  0
   41.8675   -2.5062   10.7667 C   0  0  1  0  0  0  0  0  0  0  0  0
   41.2524   -3.2648   11.9406 C   0  0  0  0  0  0  0  0  0  0  0  0
   42.7946   -4.5443    9.6586 N   0  0  0  0  0  0  0  0  0  0  0  0
   42.2281   -1.1580   11.2407 O   0  0  0  0  0  0  0  0  0  0  0  0
   44.5640   -0.0997    8.5664 O   0  0  0  0  0  0  0  0  0  0  0  0
   44.8774   -3.0033    8.5759 O   0  0  0  0  0  0  0  0  0  0  0  0
   42.1799   -3.3307   12.9910 O   0  0  0  0  0  0  0  0  0  0  0  0
   38.6499    7.0573    7.9844 C   0  0  1  0  0  0  0  0  0  0  0  0
   38.8968    8.5289    7.5851 C   0  0  1  0  0  0  0  0  0  0  0  0
   37.9321    8.9724    6.4587 C   0  0  2  0  0  0  0  0  0  0  0  0
   38.1095    8.0700    5.2318 C   0  0  1  0  0  0  0  0  0  0  0  0
   37.8285    6.5932    5.6097 C   0  0  0  0  0  0  0  0  0  0  0  0
   38.8040    6.1707    6.7133 C   0  0  2  0  0  0  0  0  0  0  0  0
   37.1768    8.4924    4.1632 N   0  0  0  0  0  0  0  0  0  0  0  0
   38.5200    4.7731    7.0278 N   0  0  0  0  0  0  0  0  0  0  0  0
   38.6802    9.3727    8.7371 O   0  0  0  0  0  0  0  0  0  0  0  0
   38.2228   10.3428    6.1090 O   0  0  0  0  0  0  0  0  0  0  0  0
  1  2  1  0  0  0  0
  1 12  1  6  0  0  0
  1 13  1  0  0  0  0
  2  3  1  0  0  0  0
  2 10  1  6  0  0  0
  4  3  1  6  0  0  0
  4  5  1  0  0  0  0
  4 14  1  0  0  0  0
  5  6  1  0  0  0  0
  5 13  1  1  0  0  0
  6  7  1  0  0  0  0
  6 15  1  1  0  0  0
  7  8  1  0  0  0  0
  7 11  1  1  0  0  0
  8 14  1  0  0  0  0
  8 16  1  6  0  0  0
  9 11  1  0  0  0  0
 17 16  1  6  0  0  0
 17 18  1  0  0  0  0
 17 24  1  0  0  0  0
 18 19  1  0  0  0  0
 18 25  1  6  0  0  0
 19 20  1  0  0  0  0
 19 26  1  1  0  0  0
 20 21  1  0  0  0  0
 20 23  1  6  0  0  0
 21 22  1  1  0  0  0
 21 24  1  0  0  0  0
 22 27  1  0  0  0  0
 28 12  1  1  0  0  0
 28 29  1  0  0  0  0
 28 33  1  0  0  0  0
 29 30  1  0  0  0  0
 29 36  1  1  0  0  0
 30 31  1  0  0  0  0
 30 37  1  6  0  0  0
 31 32  1  0  0  0  0
 31 34  1  6  0  0  0
 32 33  1  0  0  0  0
 33 35  1  1  0  0  0
M  END
>  <CHROM.1>
-178.46171074,77.55196597,-170.15058225,-163.76191242,62.00957634,132.50964135
40.43675660,2.79201713,9.05640719,-2.39301324,1.05122469,-2.67649607

>  <Name>
1yrj_lig

>  <RI>
224

>  <Rbt.Current_Directory>
/home/itssahil/PROJECTS/Mol_Feturizer/New_Systems/rnas/1yrj

>  <Rbt.Executable>
rbdock ($Id: //depot/dev/client3/rdock/2013.1/src/exe/rbdock.cxx#4 $)

>  <Rbt.Library>
libRbt.so (2013.1, Build901 2013/11/27)

>  <Rbt.Parameter_File>
/export/apps/rDock/src/rDock_2013.1_src/data/scripts/dock_solv.prm

>  <Rbt.Receptor>
prm/pocket_docking_2.prm

>  <SCORE>
-26.8106

>  <SCORE.INTER>
-23.7294

>  <SCORE.INTER.CONST>
1

>  <SCORE.INTER.POLAR>
-1.85333

>  <SCORE.INTER.ROT>
6

>  <SCORE.INTER.SOLV>
16.2154

>  <SCORE.INTER.VDW>
-22.647

>  <SCORE.INTER.norm>
-0.641334

>  <SCORE.INTRA>
-3.10361

>  <SCORE.INTRA.DIHEDRAL>
-7.13542

>  <SCORE.INTRA.DIHEDRAL.0>
15.6389

>  <SCORE.INTRA.POLAR>
0

>  <SCORE.INTRA.POLAR.0>
0

>  <SCORE.INTRA.REPUL>
0

>  <SCORE.INTRA.REPUL.0>
0

>  <SCORE.INTRA.SOLV>
0.830031

>  <SCORE.INTRA.SOLV.lig_0>
-90.9181

>  <SCORE.INTRA.VDW>
0.0490834

>  <SCORE.INTRA.VDW.0>
-3.14158

>  <SCORE.INTRA.norm>
-0.0838814

>  <SCORE.RESTR>
0.0223845

>  <SCORE.RESTR.CAVITY>
0.0223845

>  <SCORE.RESTR.norm>
0.000604985

>  <SCORE.SYSTEM>
0

>  <SCORE.SYSTEM.CONST>
0

>  <SCORE.SYSTEM.DIHEDRAL>
0

>  <SCORE.SYSTEM.SOLV>
0

>  <SCORE.SYSTEM.norm>
0

>  <SCORE.heavy>
37

>  <SCORE.norm>
-0.724611

>  <RMSD>
0.694

$$$$
1yrj_lig
 OpenBabel11021811423D
libRbt.so/2013.1/901 2013/11/27
 37 40  0  0  0  0  0  0  0  0999 V2000
   39.3266    6.0302   10.2616 C   0  0  1  0  0  0  0  0  0  0  0  0
   40.5404    5.8264   11.1893 C   0  0  1  0  0  0  0  0  0  0  0  0
   41.4662    4.7094   10.6817 C   0  0  0  0  0  0  0  0  0  0  0  0
   40.6610    3.3980   10.4883 C   0  0  1  0  0  0  0  0  0  0  0  0
   39.4901    3.6363    9.5161 C   0  0  1  0  0  0  0  0  0  0  0  0
   38.6918    2.2781    9.3260 C   0  0  1  0  0  0  0  0  0  0  0  0
   39.6335    1.1977    8.7698 C   0  0  1  0  0  0  0  0  0  0  0  0
   40.8147    1.0322    9.7566 C   0  0  2  0  0  0  0  0  0  0  0  0
   37.9591   -0.1108    7.3588 C   0  0  0  0  0  0  0  0  0  0  0  0
   41.3021    7.0717   11.3795 N   0  0  0  0  0  0  0  0  0  0  0  0
   38.8769   -0.0720    8.5400 N   0  0  0  0  0  0  0  0  0  0  0  0
   39.6499    6.6923    9.0246 O   0  0  0  0  0  0  0  0  0  0  0  0
   38.6570    4.7315   10.0527 O   0  0  0  0  0  0  0  0  0  0  0  0
   41.5021    2.2988    9.9622 O   0  0  0  0  0  0  0  0  0  0  0  0
   38.2286    1.8263   10.5813 O   0  0  0  0  0  0  0  0  0  0  0  0
   41.7752    0.0867    9.2841 O   0  0  0  0  0  0  0  0  0  0  0  0
   42.8433   -0.1627   10.2278 C   0  0  2  0  0  0  0  0  0  0  0  0
   44.1372   -0.6628    9.5650 C   0  0  1  0  0  0  0  0  0  0  0  0
   43.9591   -2.0977    9.0014 C   0  0  2  0  0  0  0  0  0  0  0  0
   43.5334   -3.0357   10.1077 C   0  0  1  0  0  0  0  0  0  0  0  0
   42.2152   -2.5223   10.7339 C   0  0  1  0  0  0  0  0  0  0  0  0
   41.7358   -3.3875   11.8972 C   0  0  0  0  0  0  0  0  0  0  0  0
   43.3678   -4.3900    9.5404 N   0  0  0  0  0  0  0  0  0  0  0  0
   42.4110   -1.1526   11.2417 O   0  0  0  0  0  0  0  0  0  0  0  0
   44.5165    0.2762    8.5484 O   0  0  0  0  0  0  0  0  0  0  0  0
   45.2032   -2.5609    8.4587 O   0  0  0  0  0  0  0  0  0  0  0  0
   40.9000   -2.6284   12.7298 O   0  0  0  0  0  0  0  0  0  0  0  0
   38.6234    7.0526    7.9611 C   0  0  1  0  0  0  0  0  0  0  0  0
   38.8264    8.5453    7.6198 C   0  0  1  0  0  0  0  0  0  0  0  0
   37.8678    8.9966    6.4912 C   0  0  2  0  0  0  0  0  0  0  0  0
   38.0991    8.1462    5.2365 C   0  0  1  0  0  0  0  0  0  0  0  0
   37.8626    6.6479    5.5555 C   0  0  0  0  0  0  0  0  0  0  0  0
   38.8317    6.2187    6.6622 C   0  0  2  0  0  0  0  0  0  0  0  0
   37.1721    8.5754    4.1655 N   0  0  0  0  0  0  0  0  0  0  0  0
   38.5907    4.8017    6.9208 N   0  0  0  0  0  0  0  0  0  0  0  0
   38.5594    9.3385    8.7968 O   0  0  0  0  0  0  0  0  0  0  0  0
   38.1171   10.3879    6.1968 O   0  0  0  0  0  0  0  0  0  0  0  0
  1  2  1  0  0  0  0
  1 12  1  6  0  0  0
  1 13  1  0  0  0  0
  2  3  1  0  0  0  0
  2 10  1  6  0  0  0
  4  3  1  6  0  0  0
  4  5  1  0  0  0  0
  4 14  1  0  0  0  0
  5  6  1  0  0  0  0
  5 13  1  1  0  0  0
  6  7  1  0  0  0  0
  6 15  1  1  0  0  0
  7  8  1  0  0  0  0
  7 11  1  1  0  0  0
  8 14  1  0  0  0  0
  8 16  1  6  0  0  0
  9 11  1  0  0  0  0
 17 16  1  6  0  0  0
 17 18  1  0  0  0  0
 17 24  1  0  0  0  0
 18 19  1  0  0  0  0
 18 25  1  6  0  0  0
 19 20  1  0  0  0  0
 19 26  1  1  0  0  0
 20 21  1  0  0  0  0
 20 23  1  6  0  0  0
 21 22  1  1  0  0  0
 21 24  1  0  0  0  0
 22 27  1  0  0  0  0
 28 12  1  1  0  0  0
 28 29  1  0  0  0  0
 28 33  1  0  0  0  0
 29 30  1  0  0  0  0
 29 36  1  1  0  0  0
 30 31  1  0  0  0  0
 30 37  1  6  0  0  0
 31 32  1  0  0  0  0
 31 34  1  6  0  0  0
 32 33  1  0  0  0  0
 33 35  1  1  0  0  0
M  END
>  <CHROM.1>
-177.85972244,74.26055340,-175.80536748,-155.48884332,156.71626911,129.02314252
40.44288916,2.86804946,9.04151476,-2.49055400,1.07249273,-2.56848650

>  <Name>
1yrj_lig

>  <RI>
224

>  <Rbt.Current_Directory>
/home/itssahil/PROJECTS/Mol_Feturizer/New_Systems/rnas/1yrj

>  <Rbt.Executable>
rbdock ($Id: //depot/dev/client3/rdock/2013.1/src/exe/rbdock.cxx#4 $)

>  <Rbt.Library>
libRbt.so (2013.1, Build901 2013/11/27)

>  <Rbt.Parameter_File>
/export/apps/rDock/src/rDock_2013.1_src/data/scripts/dock_solv.prm

>  <Rbt.Receptor>
prm/pocket_docking_2.prm

>  <SCORE>
-28.0721

>  <SCORE.INTER>
-26.3655

>  <SCORE.INTER.CONST>
1

>  <SCORE.INTER.POLAR>
-2.44286

>  <SCORE.INTER.ROT>
6

>  <SCORE.INTER.SOLV>
17.225

>  <SCORE.INTER.VDW>
-22.7758

>  <SCORE.INTER.norm>
-0.71258

>  <SCORE.INTRA>
-1.74474

>  <SCORE.INTRA.DIHEDRAL>
-4.17598

>  <SCORE.INTRA.DIHEDRAL.0>
15.6389

>  <SCORE.INTRA.POLAR>
0

>  <SCORE.INTRA.POLAR.0>
0

>  <SCORE.INTRA.REPUL>
0

>  <SCORE.INTRA.REPUL.0>
0

>  <SCORE.INTRA.SOLV>
-0.0336571

>  <SCORE.INTRA.SOLV.lig_0>
-90.9181

>  <SCORE.INTRA.VDW>
0.360077

>  <SCORE.INTRA.VDW.0>
-3.14158

>  <SCORE.INTRA.norm>
-0.0471551

>  <SCORE.RESTR>
0.0380789

>  <SCORE.RESTR.CAVITY>
0.0380789

>  <SCORE.RESTR.norm>
0.00102916

>  <SCORE.SYSTEM>
0

>  <SCORE.SYSTEM.CONST>
0

>  <SCORE.SYSTEM.DIHEDRAL>
0

>  <SCORE.SYSTEM.SOLV>
0

>  <SCORE.SYSTEM.norm>
0

>  <SCORE.heavy>
37

>  <SCORE.norm>
-0.758706

>  <RMSD>
0.699

$$$$
1yrj_lig
 OpenBabel11021811423D
libRbt.so/2013.1/901 2013/11/27
 37 40  0  0  0  0  0  0  0  0999 V2000
   39.3685    6.0236   10.2972 C   0  0  1  0  0  0  0  0  0  0  0  0
   40.5950    5.8094   11.2056 C   0  0  1  0  0  0  0  0  0  0  0  0
   41.5152    4.7003   10.6711 C   0  0  0  0  0  0  0  0  0  0  0  0
   40.7088    3.3904   10.4717 C   0  0  1  0  0  0  0  0  0  0  0  0
   39.5245    3.6397    9.5187 C   0  0  1  0  0  0  0  0  0  0  0  0
   38.7254    2.2830    9.3219 C   0  0  1  0  0  0  0  0  0  0  0  0
   39.6606    1.2111    8.7390 C   0  0  1  0  0  0  0  0  0  0  0  0
   40.8554    1.0345    9.7074 C   0  0  2  0  0  0  0  0  0  0  0  0
   39.1539   -0.7671    7.2105 C   0  0  0  0  0  0  0  0  0  0  0  0
   41.3578    7.0531   11.4016 N   0  0  0  0  0  0  0  0  0  0  0  0
   38.9024   -0.0565    8.5032 N   0  0  0  0  0  0  0  0  0  0  0  0
   39.6742    6.7020    9.0646 O   0  0  0  0  0  0  0  0  0  0  0  0
   38.6976    4.7268   10.0807 O   0  0  0  0  0  0  0  0  0  0  0  0
   41.5440    2.2992    9.9201 O   0  0  0  0  0  0  0  0  0  0  0  0
   38.2798    1.8144   10.5774 O   0  0  0  0  0  0  0  0  0  0  0  0
   41.8104    0.0965    9.2098 O   0  0  0  0  0  0  0  0  0  0  0  0
   42.7963   -0.2921   10.1949 C   0  0  2  0  0  0  0  0  0  0  0  0
   44.0224   -0.9920    9.5863 C   0  0  1  0  0  0  0  0  0  0  0  0
   43.6506   -2.3944    9.0357 C   0  0  2  0  0  0  0  0  0  0  0  0
   43.0517   -3.2377   10.1379 C   0  0  1  0  0  0  0  0  0  0  0  0
   41.8048   -2.5218   10.7089 C   0  0  1  0  0  0  0  0  0  0  0  0
   41.1618   -3.2840   11.8653 C   0  0  0  0  0  0  0  0  0  0  0  0
   42.7044   -4.5624    9.5829 N   0  0  0  0  0  0  0  0  0  0  0  0
   42.1863   -1.1875   11.2054 O   0  0  0  0  0  0  0  0  0  0  0  0
   44.5725   -0.1391    8.5719 O   0  0  0  0  0  0  0  0  0  0  0  0
   44.8289   -3.0482    8.5448 O   0  0  0  0  0  0  0  0  0  0  0  0
   42.0578   -3.3392   12.9433 O   0  0  0  0  0  0  0  0  0  0  0  0
   38.6363    7.0543    8.0095 C   0  0  1  0  0  0  0  0  0  0  0  0
   38.8564    8.5357    7.6314 C   0  0  1  0  0  0  0  0  0  0  0  0
   37.8867    8.9764    6.5081 C   0  0  2  0  0  0  0  0  0  0  0  0
   38.0848    8.0946    5.2695 C   0  0  1  0  0  0  0  0  0  0  0  0
   37.8308    6.6077    5.6261 C   0  0  0  0  0  0  0  0  0  0  0  0
   38.8109    6.1884    6.7268 C   0  0  2  0  0  0  0  0  0  0  0  0
   37.1473    8.5141    4.2038 N   0  0  0  0  0  0  0  0  0  0  0  0
   38.5526    4.7815    7.0211 N   0  0  0  0  0  0  0  0  0  0  0  0
   38.6204    9.3591    8.7942 O   0  0  0  0  0  0  0  0  0  0  0  0
   38.1523   10.3568    6.1784 O   0  0  0  0  0  0  0  0  0  0  0  0
  1  2  1  0  0  0  0
  1 12  1  6  0  0  0
  1 13  1  0  0  0  0
  2  3  1  0  0  0  0
  2 10  1  6  0  0  0
  4  3  1  6  0  0  0
  4  5  1  0  0  0  0
  4 14  1  0  0  0  0
  5  6  1  0  0  0  0
  5 13  1  1  0  0  0
  6  7  1  0  0  0  0
  6 15  1  1  0  0  0
  7  8  1  0  0  0  0
  7 11  1  1  0  0  0
  8 14  1  0  0  0  0
  8 16  1  6  0  0  0
  9 11  1  0  0  0  0
 17 16  1  6  0  0  0
 17 18  1  0  0  0  0
 17 24  1  0  0  0  0
 18 19  1  0  0  0  0
 18 25  1  6  0  0  0
 19 20  1  0  0  0  0
 19 26  1  1  0  0  0
 20 21  1  0  0  0  0
 20 23  1  6  0  0  0
 21 22  1  1  0  0  0
 21 24  1  0  0  0  0
 22 27  1  0  0  0  0
 28 12  1  1  0  0  0
 28 29  1  0  0  0  0
 28 33  1  0  0  0  0
 29 30  1  0  0  0  0
 29 36  1  1  0  0  0
 30 31  1  0  0  0  0
 30 37  1  6  0  0  0
 31 32  1  0  0  0  0
 31 34  1  6  0  0  0
 32 33  1  0  0  0  0
 33 35  1  1  0  0  0
M  END
>  <CHROM.1>
-178.90783639,136.31698685,-168.45018885,-164.74135999,64.19159330,131.67995358
40.44639237,2.76666938,9.05284583,-2.51538316,1.11003395,-2.52329318

>  <Name>
1yrj_lig

>  <RI>
224

>  <Rbt.Current_Directory>
/home/itssahil/PROJECTS/Mol_Feturizer/New_Systems/rnas/1yrj

>  <Rbt.Executable>
rbdock ($Id: //depot/dev/client3/rdock/2013.1/src/exe/rbdock.cxx#4 $)

>  <Rbt.Library>
libRbt.so (2013.1, Build901 2013/11/27)

>  <Rbt.Parameter_File>
/export/apps/rDock/src/rDock_2013.1_src/data/scripts/dock_solv.prm

>  <Rbt.Receptor>
prm/pocket_docking_2.prm

>  <SCORE>
-25.9575

>  <SCORE.INTER>
-22.8254

>  <SCORE.INTER.CONST>
1

>  <SCORE.INTER.POLAR>
-1.85359

>  <SCORE.INTER.ROT>
6

>  <SCORE.INTER.SOLV>
16.3344

>  <SCORE.INTER.VDW>
-22.0831

>  <SCORE.INTER.norm>
-0.616901

>  <SCORE.INTRA>
-3.13218

>  <SCORE.INTRA.DIHEDRAL>
-6.20759

>  <SCORE.INTRA.DIHEDRAL.0>
15.6389

>  <SCORE.INTRA.POLAR>
0

>  <SCORE.INTRA.POLAR.0>
0

>  <SCORE.INTRA.REPUL>
0

>  <SCORE.INTRA.REPUL.0>
0

>  <SCORE.INTRA.SOLV>
0.786701

>  <SCORE.INTRA.SOLV.lig_0>
-90.9181

>  <SCORE.INTRA.VDW>
-0.421729

>  <SCORE.INTRA.VDW.0>
-3.14158

>  <SCORE.INTRA.norm>
-0.0846534

>  <SCORE.RESTR>
0

>  <SCORE.RESTR.CAVITY>
0

>  <SCORE.RESTR.norm>
0

>  <SCORE.SYSTEM>
0

>  <SCORE.SYSTEM.CONST>
0

>  <SCORE.SYSTEM.DIHEDRAL>
0

>  <SCORE.SYSTEM.SOLV>
0

>  <SCORE.SYSTEM.norm>
0

>  <SCORE.heavy>
37

>  <SCORE.norm>
-0.701555

>  <RMSD>
0.699

$$$$
1yrj_lig
 OpenBabel11021811423D
libRbt.so/2013.1/901 2013/11/27
 37 40  0  0  0  0  0  0  0  0999 V2000
   39.3537    5.8585   10.0260 C   0  0  1  0  0  0  0  0  0  0  0  0
   40.5849    5.7189   10.9426 C   0  0  1  0  0  0  0  0  0  0  0  0
   41.5048    4.5726   10.4932 C   0  0  0  0  0  0  0  0  0  0  0  0
   40.7003    3.2497   10.4019 C   0  0  1  0  0  0  0  0  0  0  0  0
   39.5110    3.4208    9.4378 C   0  0  1  0  0  0  0  0  0  0  0  0
   38.7138    2.0514    9.3528 C   0  0  1  0  0  0  0  0  0  0  0  0
   39.6485    0.9383    8.8522 C   0  0  1  0  0  0  0  0  0  0  0  0
   40.8481    0.8409    9.8258 C   0  0  2  0  0  0  0  0  0  0  0  0
   37.8608   -0.4177    7.6390 C   0  0  0  0  0  0  0  0  0  0  0  0
   41.3460    6.9756   11.0359 N   0  0  0  0  0  0  0  0  0  0  0  0
   38.8919   -0.3453    8.7210 N   0  0  0  0  0  0  0  0  0  0  0  0
   39.6523    6.4378    8.7421 O   0  0  0  0  0  0  0  0  0  0  0  0
   38.6845    4.5475    9.9160 O   0  0  0  0  0  0  0  0  0  0  0  0
   41.5351    2.1196    9.9344 O   0  0  0  0  0  0  0  0  0  0  0  0
   38.2750    1.6829   10.6437 O   0  0  0  0  0  0  0  0  0  0  0  0
   41.8027   -0.1320    9.3994 O   0  0  0  0  0  0  0  0  0  0  0  0
   42.8079   -0.4223   10.3989 C   0  0  2  0  0  0  0  0  0  0  0  0
   44.0623   -1.0989    9.8225 C   0  0  1  0  0  0  0  0  0  0  0  0
   43.7520   -2.5442    9.3504 C   0  0  2  0  0  0  0  0  0  0  0  0
   43.1946   -3.3524   10.4997 C   0  0  1  0  0  0  0  0  0  0  0  0
   41.9186   -2.6628   11.0377 C   0  0  1  0  0  0  0  0  0  0  0  0
   41.3136   -3.3890   12.2371 C   0  0  0  0  0  0  0  0  0  0  0  0
   42.9053   -4.7194   10.0189 N   0  0  0  0  0  0  0  0  0  0  0  0
   42.2414   -1.2879   11.4595 O   0  0  0  0  0  0  0  0  0  0  0  0
   44.5708   -0.2786    8.7606 O   0  0  0  0  0  0  0  0  0  0  0  0
   44.9570   -3.1705    8.8893 O   0  0  0  0  0  0  0  0  0  0  0  0
   40.6906   -4.5685   11.8027 O   0  0  0  0  0  0  0  0  0  0  0  0
   38.6385    7.1917    7.8946 C   0  0  1  0  0  0  0  0  0  0  0  0
   38.8853    8.6993    8.1236 C   0  0  1  0  0  0  0  0  0  0  0  0
   37.9422    9.5599    7.2483 C   0  0  2  0  0  0  0  0  0  0  0  0
   38.1509    9.2239    5.7669 C   0  0  1  0  0  0  0  0  0  0  0  0
   37.8704    7.7202    5.5155 C   0  0  0  0  0  0  0  0  0  0  0  0
   38.8247    6.8880    6.3785 C   0  0  2  0  0  0  0  0  0  0  0  0
   37.2386   10.0419    4.9369 N   0  0  0  0  0  0  0  0  0  0  0  0
   38.5422    5.4823    6.1007 N   0  0  0  0  0  0  0  0  0  0  0  0
   38.6394    9.0117    9.5120 O   0  0  0  0  0  0  0  0  0  0  0  0
   38.2323   10.9547    7.4832 O   0  0  0  0  0  0  0  0  0  0  0  0
  1  2  1  0  0  0  0
  1 12  1  6  0  0  0
  1 13  1  0  0  0  0
  2  3  1  0  0  0  0
  2 10  1  6  0  0  0
  4  3  1  6  0  0  0
  4  5  1  0  0  0  0
  4 14  1  0  0  0  0
  5  6  1  0  0  0  0
  5 13  1  1  0  0  0
  6  7  1  0  0  0  0
  6 15  1  1  0  0  0
  7  8  1  0  0  0  0
  7 11  1  1  0  0  0
  8 14  1  0  0  0  0
  8 16  1  6  0  0  0
  9 11  1  0  0  0  0
 17 16  1  6  0  0  0
 17 18  1  0  0  0  0
 17 24  1  0  0  0  0
 18 19  1  0  0  0  0
 18 25  1  6  0  0  0
 19 20  1  0  0  0  0
 19 26  1  1  0  0  0
 20 21  1  0  0  0  0
 20 23  1  6  0  0  0
 21 22  1  1  0  0  0
 21 24  1  0  0  0  0
 22 27  1  0  0  0  0
 28 12  1  1  0  0  0
 28 29  1  0  0  0  0
 28 33  1  0  0  0  0
 29 30  1  0  0  0  0
 29 36  1  1  0  0  0
 30 31  1  0  0  0  0
 30 37  1  6  0  0  0
 31 32  1  0  0  0  0
 31 34  1  6  0  0  0
 32 33  1  0  0  0  0
 33 35  1  1  0  0  0
M  END
>  <CHROM.1>
-154.24911921,68.73609656,-169.47748329,-161.65594480,-73.61763746,99.37800124
40.39858728,2.79365349,9.17120007,-1.99123956,0.62247185,-3.13937042

>  <Name>
1yrj_lig

>  <RI>
224

>  <Rbt.Current_Directory>
/home/itssahil/PROJECTS/Mol_Feturizer/New_Systems/rnas/1yrj

>  <Rbt.Executable>
rbdock ($Id: //depot/dev/client3/rdock/2013.1/src/exe/rbdock.cxx#4 $)

>  <Rbt.Library>
libRbt.so (2013.1, Build901 2013/11/27)

>  <Rbt.Parameter_File>
/export/apps/rDock/src/rDock_2013.1_src/data/scripts/dock_solv.prm

>  <Rbt.Receptor>
prm/pocket_docking_2.prm

>  <SCORE>
-24.7878

>  <SCORE.INTER>
-22.6902

>  <SCORE.INTER.CONST>
1

>  <SCORE.INTER.POLAR>
-1.85359

>  <SCORE.INTER.ROT>
6

>  <SCORE.INTER.SOLV>
17.9978

>  <SCORE.INTER.VDW>
-22.5474

>  <SCORE.INTER.norm>
-0.613249

>  <SCORE.INTRA>
-2.09762

>  <SCORE.INTRA.DIHEDRAL>
-4.72745

>  <SCORE.INTRA.DIHEDRAL.0>
15.6389

>  <SCORE.INTRA.POLAR>
0

>  <SCORE.INTRA.POLAR.0>
0

>  <SCORE.INTRA.REPUL>
0

>  <SCORE.INTRA.REPUL.0>
0

>  <SCORE.INTRA.SOLV>
-0.608961

>  <SCORE.INTRA.SOLV.lig_0>
-90.9181

>  <SCORE.INTRA.VDW>
0.57059

>  <SCORE.INTRA.VDW.0>
-3.14158

>  <SCORE.INTRA.norm>
-0.0566924

>  <SCORE.RESTR>
0

>  <SCORE.RESTR.CAVITY>
0

>  <SCORE.RESTR.norm>
0

>  <SCORE.SYSTEM>
0

>  <SCORE.SYSTEM.CONST>
0

>  <SCORE.SYSTEM.DIHEDRAL>
0

>  <SCORE.SYSTEM.SOLV>
0

>  <SCORE.SYSTEM.norm>
0

>  <SCORE.heavy>
37

>  <SCORE.norm>
-0.669942

>  <RMSD>
0.699

$$$$
1yrj_lig
 OpenBabel11021811423D
libRbt.so/2013.1/901 2013/11/27
 37 40  0  0  0  0  0  0  0  0999 V2000
   39.3879    5.9962   10.2337 C   0  0  1  0  0  0  0  0  0  0  0  0
   40.6138    5.7889   11.1446 C   0  0  1  0  0  0  0  0  0  0  0  0
   41.5257    4.6645   10.6283 C   0  0  0  0  0  0  0  0  0  0  0  0
   40.7101    3.3571   10.4517 C   0  0  1  0  0  0  0  0  0  0  0  0
   39.5267    3.5985    9.4955 C   0  0  1  0  0  0  0  0  0  0  0  0
   38.7179    2.2442    9.3224 C   0  0  1  0  0  0  0  0  0  0  0  0
   39.6451    1.1561    8.7571 C   0  0  1  0  0  0  0  0  0  0  0  0
   40.8395    0.9875    9.7274 C   0  0  2  0  0  0  0  0  0  0  0  0
   38.0333   -0.1918    7.3108 C   0  0  0  0  0  0  0  0  0  0  0  0
   41.3854    7.0304   11.3188 N   0  0  0  0  0  0  0  0  0  0  0  0
   38.8779   -0.1100    8.5433 N   0  0  0  0  0  0  0  0  0  0  0  0
   39.6973    6.6515    8.9895 O   0  0  0  0  0  0  0  0  0  0  0  0
   38.7078    4.7006   10.0397 O   0  0  0  0  0  0  0  0  0  0  0  0
   41.5371    2.2509    9.9180 O   0  0  0  0  0  0  0  0  0  0  0  0
   38.2702    1.8001   10.5860 O   0  0  0  0  0  0  0  0  0  0  0  0
   41.7874    0.0346    9.2450 O   0  0  0  0  0  0  0  0  0  0  0  0
   42.8037   -0.3031   10.2180 C   0  0  2  0  0  0  0  0  0  0  0  0
   44.0268   -1.0031    9.6034 C   0  0  1  0  0  0  0  0  0  0  0  0
   43.6663   -2.4298    9.1105 C   0  0  2  0  0  0  0  0  0  0  0  0
   43.1093   -3.2443   10.2556 C   0  0  1  0  0  0  0  0  0  0  0  0
   41.8643   -2.5298   10.8325 C   0  0  1  0  0  0  0  0  0  0  0  0
   41.2631   -3.2621   12.0301 C   0  0  0  0  0  0  0  0  0  0  0  0
   42.7719   -4.5930    9.7551 N   0  0  0  0  0  0  0  0  0  0  0  0
   42.2342   -1.1729   11.2734 O   0  0  0  0  0  0  0  0  0  0  0  0
   44.5370   -0.1768    8.5469 O   0  0  0  0  0  0  0  0  0  0  0  0
   44.8436   -3.0804    8.6130 O   0  0  0  0  0  0  0  0  0  0  0  0
   42.2105   -3.3244   13.0627 O   0  0  0  0  0  0  0  0  0  0  0  0
   38.6556    7.0287    7.9469 C   0  0  1  0  0  0  0  0  0  0  0  0
   38.9060    8.5047    7.5665 C   0  0  1  0  0  0  0  0  0  0  0  0
   37.9338    8.9688    6.4549 C   0  0  2  0  0  0  0  0  0  0  0  0
   38.0964    8.0832    5.2138 C   0  0  1  0  0  0  0  0  0  0  0  0
   37.8117    6.6025    5.5730 C   0  0  0  0  0  0  0  0  0  0  0  0
   38.7945    6.1597    6.6619 C   0  0  2  0  0  0  0  0  0  0  0  0
   37.1566    8.5252    4.1594 N   0  0  0  0  0  0  0  0  0  0  0  0
   38.5067    4.7590    6.9589 N   0  0  0  0  0  0  0  0  0  0  0  0
   38.7033    9.3328    8.7323 O   0  0  0  0  0  0  0  0  0  0  0  0
   38.2280   10.3426    6.1224 O   0  0  0  0  0  0  0  0  0  0  0  0
  1  2  1  0  0  0  0
  1 12  1  6  0  0  0
  1 13  1  0  0  0  0
  2  3  1  0  0  0  0
  2 10  1  6  0  0  0
  4  3  1  6  0  0  0
  4  5  1  0  0  0  0
  4 14  1  0  0  0  0
  5  6  1  0  0  0  0
  5 13  1  1  0  0  0
  6  7  1  0  0  0  0
  6 15  1  1  0  0  0
  7  8  1  0  0  0  0
  7 11  1  1  0  0  0
  8 14  1  0  0  0  0
  8 16  1  6  0  0  0
  9 11  1  0  0  0  0
 17 16  1  6  0  0  0
 17 18  1  0  0  0  0
 17 24  1  0  0  0  0
 18 19  1  0  0  0  0
 18 25  1  6  0  0  0
 19 20  1  0  0  0  0
 19 26  1  1  0  0  0
 20 21  1  0  0  0  0
 20 23  1  6  0  0  0
 21 22  1  1  0  0  0
 21 24  1  0  0  0  0
 22 27  1  0  0  0  0
 28 12  1  1  0  0  0
 28 29  1  0  0  0  0
 28 33  1  0  0  0  0
 29 30  1  0  0  0  0
 29 36  1  1  0  0  0
 30 31  1  0  0  0  0
 30 37  1  6  0  0  0
 31 32  1  0  0  0  0
 31 34  1  6  0  0  0
 32 33  1  0  0  0  0
 33 35  1  1  0  0  0
M  END
>  <CHROM.1>
-177.09142817,79.39844924,-170.82515251,-163.90595945,61.21507062,130.79270857
40.43421153,2.75996332,9.05749359,-2.37907910,1.04715481,-2.69779358

>  <Name>
1yrj_lig

>  <RI>
224

>  <Rbt.Current_Directory>
/home/itssahil/PROJECTS/Mol_Feturizer/New_Systems/rnas/1yrj

>  <Rbt.Executable>
rbdock ($Id: //depot/dev/client3/rdock/2013.1/src/exe/rbdock.cxx#4 $)

>  <Rbt.Library>
libRbt.so (2013.1, Build901 2013/11/27)

>  <Rbt.Parameter_File>
/export/apps/rDock/src/rDock_2013.1_src/data/scripts/dock_solv.prm

>  <Rbt.Receptor>
prm/pocket_docking_2.prm

>  <SCORE>
-26.7276

>  <SCORE.INTER>
-23.581

>  <SCORE.INTER.CONST>
1

>  <SCORE.INTER.POLAR>
-1.85359

>  <SCORE.INTER.ROT>
6

>  <SCORE.INTER.SOLV>
16.518

>  <SCORE.INTER.VDW>
-22.648

>  <SCORE.INTER.norm>
-0.637323

>  <SCORE.INTRA>
-3.14797

>  <SCORE.INTRA.DIHEDRAL>
-6.96362

>  <SCORE.INTRA.DIHEDRAL.0>
15.6389

>  <SCORE.INTRA.POLAR>
0

>  <SCORE.INTRA.POLAR.0>
0

>  <SCORE.INTRA.REPUL>
0

>  <SCORE.INTRA.REPUL.0>
0

>  <SCORE.INTRA.SOLV>
0.656389

>  <SCORE.INTRA.SOLV.lig_0>
-90.9181

>  <SCORE.INTRA.VDW>
0.00564553

>  <SCORE.INTRA.VDW.0>
-3.14158

>  <SCORE.INTRA.norm>
-0.0850803

>  <SCORE.RESTR>
0.0012786

>  <SCORE.RESTR.CAVITY>
0.0012786

>  <SCORE.RESTR.norm>
3.45569e-05

>  <SCORE.SYSTEM>
0

>  <SCORE.SYSTEM.CONST>
0

>  <SCORE.SYSTEM.DIHEDRAL>
0

>  <SCORE.SYSTEM.SOLV>
0

>  <SCORE.SYSTEM.norm>
0

>  <SCORE.heavy>
37

>  <SCORE.norm>
-0.722369

>  <RMSD>
0.701

$$$$
1yrj_lig
 OpenBabel11021811423D
libRbt.so/2013.1/901 2013/11/27
 37 40  0  0  0  0  0  0  0  0999 V2000
   39.4197    6.0514   10.3104 C   0  0  1  0  0  0  0  0  0  0  0  0
   40.6558    5.8290   11.2037 C   0  0  1  0  0  0  0  0  0  0  0  0
   41.5641    4.7168   10.6556 C   0  0  0  0  0  0  0  0  0  0  0  0
   40.7491    3.4114   10.4625 C   0  0  1  0  0  0  0  0  0  0  0  0
   39.5549    3.6689    9.5241 C   0  0  1  0  0  0  0  0  0  0  0  0
   38.7468    2.3166    9.3333 C   0  0  1  0  0  0  0  0  0  0  0  0
   39.6699    1.2416    8.7368 C   0  0  1  0  0  0  0  0  0  0  0  0
   40.8751    1.0567    9.6906 C   0  0  2  0  0  0  0  0  0  0  0  0
   39.2487   -0.8126    7.2845 C   0  0  0  0  0  0  0  0  0  0  0  0
   41.4269    7.0685   11.3937 N   0  0  0  0  0  0  0  0  0  0  0  0
   38.9028   -0.0217    8.5068 N   0  0  0  0  0  0  0  0  0  0  0  0
   39.7142    6.7315    9.0759 O   0  0  0  0  0  0  0  0  0  0  0  0
   38.7400    4.7584   10.0985 O   0  0  0  0  0  0  0  0  0  0  0  0
   41.5724    2.3175    9.8983 O   0  0  0  0  0  0  0  0  0  0  0  0
   38.3138    1.8469   10.5929 O   0  0  0  0  0  0  0  0  0  0  0  0
   41.8196    0.1153    9.1794 O   0  0  0  0  0  0  0  0  0  0  0  0
   42.8185   -0.2763   10.1502 C   0  0  2  0  0  0  0  0  0  0  0  0
   44.0417   -0.9639    9.5220 C   0  0  1  0  0  0  0  0  0  0  0  0
   43.6716   -2.3634    8.9630 C   0  0  2  0  0  0  0  0  0  0  0  0
   43.0897   -3.2198   10.0643 C   0  0  1  0  0  0  0  0  0  0  0  0
   41.8452   -2.5160   10.6552 C   0  0  1  0  0  0  0  0  0  0  0  0
   41.2192   -3.2920   11.8119 C   0  0  0  0  0  0  0  0  0  0  0  0
   42.7437   -4.5415    9.5014 N   0  0  0  0  0  0  0  0  0  0  0  0
   42.2246   -1.1840   11.1594 O   0  0  0  0  0  0  0  0  0  0  0  0
   44.5758   -0.0989    8.5092 O   0  0  0  0  0  0  0  0  0  0  0  0
   44.8482   -3.0061    8.4535 O   0  0  0  0  0  0  0  0  0  0  0  0
   42.1563   -3.4223   12.8476 O   0  0  0  0  0  0  0  0  0  0  0  0
   38.6687    7.0741    8.0252 C   0  0  1  0  0  0  0  0  0  0  0  0
   38.8902    8.5501    7.6271 C   0  0  1  0  0  0  0  0  0  0  0  0
   37.9126    8.9801    6.5065 C   0  0  2  0  0  0  0  0  0  0  0  0
   38.0977    8.0826    5.2772 C   0  0  1  0  0  0  0  0  0  0  0  0
   37.8421    6.6009    5.6541 C   0  0  0  0  0  0  0  0  0  0  0  0
   38.8299    6.1921    6.7518 C   0  0  2  0  0  0  0  0  0  0  0  0
   37.1527    8.4919    4.2142 N   0  0  0  0  0  0  0  0  0  0  0  0
   38.5698    4.7897    7.0655 N   0  0  0  0  0  0  0  0  0  0  0  0
   38.6664    9.3885    8.7816 O   0  0  0  0  0  0  0  0  0  0  0  0
   38.1797   10.3554    6.1576 O   0  0  0  0  0  0  0  0  0  0  0  0
  1  2  1  0  0  0  0
  1 12  1  6  0  0  0
  1 13  1  0  0  0  0
  2  3  1  0  0  0  0
  2 10  1  6  0  0  0
  4  3  1  6  0  0  0
  4  5  1  0  0  0  0
  4 14  1  0  0  0  0
  5  6  1  0  0  0  0
  5 13  1  1  0  0  0
  6  7  1  0  0  0  0
  6 15  1  1  0  0  0
  7  8  1  0  0  0  0
  7 11  1  1  0  0  0
  8 14  1  0  0  0  0
  8 16  1  6  0  0  0
  9 11  1  0  0  0  0
 17 16  1  6  0  0  0
 17 18  1  0  0  0  0
 17 24  1  0  0  0  0
 18 19  1  0  0  0  0
 18 25  1  6  0  0  0
 19 20  1  0  0  0  0
 19 26  1  1  0  0  0
 20 21  1  0  0  0  0
 20 23  1  6  0  0  0
 21 22  1  1  0  0  0
 21 24  1  0  0  0  0
 22 27  1  0  0  0  0
 28 12  1  1  0  0  0
 28 29  1  0  0  0  0
 28 33  1  0  0  0  0
 29 30  1  0  0  0  0
 29 36  1  1  0  0  0
 30 31  1  0  0  0  0
 30 37  1  6  0  0  0
 31 32  1  0  0  0  0
 31 34  1  6  0  0  0
 32 33  1  0  0  0  0
 33 35  1  1  0  0  0
M  END
>  <CHROM.1>
-179.80385893,143.14663652,-168.69435209,-163.97796246,60.60394806,132.64534585
40.47992846,2.77959008,9.03616221,-2.50726811,1.10641229,-2.52594397

>  <Name>
1yrj_lig

>  <RI>
224

>  <Rbt.Current_Directory>
/home/itssahil/PROJECTS/Mol_Feturizer/New_Systems/rnas/1yrj

>  <Rbt.Executable>
rbdock ($Id: //depot/dev/client3/rdock/2013.1/src/exe/rbdock.cxx#4 $)

>  <Rbt.Library>
libRbt.so (2013.1, Build901 2013/11/27)

>  <Rbt.Parameter_File>
/export/apps/rDock/src/rDock_2013.1_src/data/scripts/dock_solv.prm

>  <Rbt.Receptor>
prm/pocket_docking_2.prm

>  <SCORE>
-25.8601

>  <SCORE.INTER>
-22.686

>  <SCORE.INTER.CONST>
1

>  <SCORE.INTER.POLAR>
-1.84559

>  <SCORE.INTER.ROT>
6

>  <SCORE.INTER.SOLV>
15.9495

>  <SCORE.INTER.VDW>
-21.8885

>  <SCORE.INTER.norm>
-0.613134

>  <SCORE.INTRA>
-3.17415

>  <SCORE.INTRA.DIHEDRAL>
-6.48867

>  <SCORE.INTRA.DIHEDRAL.0>
15.6389

>  <SCORE.INTRA.POLAR>
0

>  <SCORE.INTRA.POLAR.0>
0

>  <SCORE.INTRA.REPUL>
0

>  <SCORE.INTRA.REPUL.0>
0

>  <SCORE.INTRA.SOLV>
0.94775

>  <SCORE.INTRA.SOLV.lig_0>
-90.9181

>  <SCORE.INTRA.VDW>
-0.403684

>  <SCORE.INTRA.VDW.0>
-3.14158

>  <SCORE.INTRA.norm>
-0.0857877

>  <SCORE.RESTR>
0

>  <SCORE.RESTR.CAVITY>
0

>  <SCORE.RESTR.norm>
0

>  <SCORE.SYSTEM>
0

>  <SCORE.SYSTEM.CONST>
0

>  <SCORE.SYSTEM.DIHEDRAL>
0

>  <SCORE.SYSTEM.SOLV>
0

>  <SCORE.SYSTEM.norm>
0

>  <SCORE.heavy>
37

>  <SCORE.norm>
-0.698922

>  <RMSD>
0.704

$$$$
1yrj_lig
 OpenBabel11021811423D
libRbt.so/2013.1/901 2013/11/27
 37 40  0  0  0  0  0  0  0  0999 V2000
   39.1891    5.6819    9.7645 C   0  0  1  0  0  0  0  0  0  0  0  0
   40.3737    5.6295   10.7491 C   0  0  1  0  0  0  0  0  0  0  0  0
   41.3617    4.5066   10.3950 C   0  0  0  0  0  0  0  0  0  0  0  0
   40.6169    3.1484   10.3152 C   0  0  1  0  0  0  0  0  0  0  0  0
   39.4755    3.2323    9.2841 C   0  0  1  0  0  0  0  0  0  0  0  0
   38.7395    1.8283    9.2129 C   0  0  1  0  0  0  0  0  0  0  0  0
   39.7437    0.7373    8.8071 C   0  0  1  0  0  0  0  0  0  0  0  0
   40.8920    0.7278    9.8453 C   0  0  2  0  0  0  0  0  0  0  0  0
   38.3783   -0.8802    7.3838 C   0  0  0  0  0  0  0  0  0  0  0  0
   41.0776    6.9197   10.8312 N   0  0  0  0  0  0  0  0  0  0  0  0
   39.0473   -0.5811    8.6885 N   0  0  0  0  0  0  0  0  0  0  0  0
   39.5330    6.2238    8.4756 O   0  0  0  0  0  0  0  0  0  0  0  0
   38.5799    4.3405    9.6726 O   0  0  0  0  0  0  0  0  0  0  0  0
   41.5204    2.0376    9.9379 O   0  0  0  0  0  0  0  0  0  0  0  0
   38.2469    1.4911   10.4928 O   0  0  0  0  0  0  0  0  0  0  0  0
   41.9065   -0.2195    9.5089 O   0  0  0  0  0  0  0  0  0  0  0  0
   42.8485   -0.4530   10.5821 C   0  0  2  0  0  0  0  0  0  0  0  0
   44.2367   -0.8927   10.0891 C   0  0  1  0  0  0  0  0  0  0  0  0
   44.1889   -2.3198    9.4813 C   0  0  2  0  0  0  0  0  0  0  0  0
   43.6556   -3.2969   10.5039 C   0  0  1  0  0  0  0  0  0  0  0  0
   42.2476   -2.8439   10.9577 C   0  0  1  0  0  0  0  0  0  0  0  0
   41.6507   -3.7513   12.0310 C   0  0  0  0  0  0  0  0  0  0  0  0
   43.6175   -4.6429    9.8956 N   0  0  0  0  0  0  0  0  0  0  0  0
   42.3228   -1.4800   11.5115 O   0  0  0  0  0  0  0  0  0  0  0  0
   44.7121    0.0817    9.1492 O   0  0  0  0  0  0  0  0  0  0  0  0
   45.5105   -2.7271    9.1014 O   0  0  0  0  0  0  0  0  0  0  0  0
   40.2881   -3.4565   12.1864 O   0  0  0  0  0  0  0  0  0  0  0  0
   38.7033    7.2694    7.7456 C   0  0  1  0  0  0  0  0  0  0  0  0
   39.3312    8.6463    8.0557 C   0  0  1  0  0  0  0  0  0  0  0  0
   38.5954    9.7796    7.3005 C   0  0  2  0  0  0  0  0  0  0  0  0
   38.6447    9.5204    5.7901 C   0  0  1  0  0  0  0  0  0  0  0  0
   37.9843    8.1574    5.4601 C   0  0  0  0  0  0  0  0  0  0  0  0
   38.7374    7.0497    6.2041 C   0  0  2  0  0  0  0  0  0  0  0  0
   37.9301   10.6014    5.0752 N   0  0  0  0  0  0  0  0  0  0  0  0
   38.0984    5.7839    5.8544 N   0  0  0  0  0  0  0  0  0  0  0  0
   39.2356    8.8992    9.4745 O   0  0  0  0  0  0  0  0  0  0  0  0
   39.2370   11.0363    7.6064 O   0  0  0  0  0  0  0  0  0  0  0  0
  1  2  1  0  0  0  0
  1 12  1  6  0  0  0
  1 13  1  0  0  0  0
  2  3  1  0  0  0  0
  2 10  1  6  0  0  0
  4  3  1  6  0  0  0
  4  5  1  0  0  0  0
  4 14  1  0  0  0  0
  5  6  1  0  0  0  0
  5 13  1  1  0  0  0
  6  7  1  0  0  0  0
  6 15  1  1  0  0  0
  7  8  1  0  0  0  0
  7 11  1  1  0  0  0
  8 14  1  0  0  0  0
  8 16  1  6  0  0  0
  9 11  1  0  0  0  0
 17 16  1  6  0  0  0
 17 18  1  0  0  0  0
 17 24  1  0  0  0  0
 18 19  1  0  0  0  0
 18 25  1  6  0  0  0
 19 20  1  0  0  0  0
 19 26  1  1  0  0  0
 20 21  1  0  0  0  0
 20 23  1  6  0  0  0
 21 22  1  1  0  0  0
 21 24  1  0  0  0  0
 22 27  1  0  0  0  0
 28 12  1  1  0  0  0
 28 29  1  0  0  0  0
 28 33  1  0  0  0  0
 29 30  1  0  0  0  0
 29 36  1  1  0  0  0
 30 31  1  0  0  0  0
 30 37  1  6  0  0  0
 31 32  1  0  0  0  0
 31 34  1  6  0  0  0
 32 33  1  0  0  0  0
 33 35  1  1  0  0  0
M  END
>  <CHROM.1>
-133.70659529,84.83680387,-168.07159042,-152.78926746,-167.62473099,96.40712073
40.56613393,2.82278441,9.14258109,1.91602801,-0.31057672,-0.15766302

>  <Name>
1yrj_lig

>  <RI>
224

>  <Rbt.Current_Directory>
/home/itssahil/PROJECTS/Mol_Feturizer/New_Systems/rnas/1yrj

>  <Rbt.Executable>
rbdock ($Id: //depot/dev/client3/rdock/2013.1/src/exe/rbdock.cxx#4 $)

>  <Rbt.Library>
libRbt.so (2013.1, Build901 2013/11/27)

>  <Rbt.Parameter_File>
/export/apps/rDock/src/rDock_2013.1_src/data/scripts/dock_solv.prm

>  <Rbt.Receptor>
prm/pocket_docking_2.prm

>  <SCORE>
-21.0858

>  <SCORE.INTER>
-20.8421

>  <SCORE.INTER.CONST>
1

>  <SCORE.INTER.POLAR>
-1.85359

>  <SCORE.INTER.ROT>
6

>  <SCORE.INTER.SOLV>
17.1717

>  <SCORE.INTER.VDW>
-21.04

>  <SCORE.INTER.norm>
-0.563299

>  <SCORE.INTRA>
-0.26354

>  <SCORE.INTRA.DIHEDRAL>
0.155946

>  <SCORE.INTRA.DIHEDRAL.0>
15.6389

>  <SCORE.INTRA.POLAR>
0

>  <SCORE.INTRA.POLAR.0>
0

>  <SCORE.INTRA.REPUL>
0

>  <SCORE.INTRA.REPUL.0>
0

>  <SCORE.INTRA.SOLV>
-0.992039

>  <SCORE.INTRA.SOLV.lig_0>
-90.9181

>  <SCORE.INTRA.VDW>
0.154506

>  <SCORE.INTRA.VDW.0>
-3.14158

>  <SCORE.INTRA.norm>
-0.00712272

>  <SCORE.RESTR>
0.0198451

>  <SCORE.RESTR.CAVITY>
0.0198451

>  <SCORE.RESTR.norm>
0.000536353

>  <SCORE.SYSTEM>
0

>  <SCORE.SYSTEM.CONST>
0

>  <SCORE.SYSTEM.DIHEDRAL>
0

>  <SCORE.SYSTEM.SOLV>
0

>  <SCORE.SYSTEM.norm>
0

>  <SCORE.heavy>
37

>  <SCORE.norm>
-0.569886

>  <RMSD>
0.710

$$$$
1yrj_lig
 OpenBabel11021811423D
libRbt.so/2013.1/901 2013/11/27
 37 40  0  0  0  0  0  0  0  0999 V2000
   39.4114    6.0144   10.2538 C   0  0  1  0  0  0  0  0  0  0  0  0
   40.6432    5.8163   11.1587 C   0  0  1  0  0  0  0  0  0  0  0  0
   41.5552    4.6912   10.6440 C   0  0  0  0  0  0  0  0  0  0  0  0
   40.7424    3.3805   10.4805 C   0  0  1  0  0  0  0  0  0  0  0  0
   39.5526    3.6125    9.5298 C   0  0  1  0  0  0  0  0  0  0  0  0
   38.7467    2.2549    9.3700 C   0  0  1  0  0  0  0  0  0  0  0  0
   39.6737    1.1658    8.8060 C   0  0  1  0  0  0  0  0  0  0  0  0
   40.8743    1.0068    9.7702 C   0  0  2  0  0  0  0  0  0  0  0  0
   38.0062   -0.1705    7.4132 C   0  0  0  0  0  0  0  0  0  0  0  0
   41.4122    7.0610   11.3206 N   0  0  0  0  0  0  0  0  0  0  0  0
   38.9089   -0.1038    8.6047 N   0  0  0  0  0  0  0  0  0  0  0  0
   39.7114    6.6627    9.0037 O   0  0  0  0  0  0  0  0  0  0  0  0
   38.7339    4.7156   10.0720 O   0  0  0  0  0  0  0  0  0  0  0  0
   41.5694    2.2733    9.9488 O   0  0  0  0  0  0  0  0  0  0  0  0
   38.3078    1.8174   10.6390 O   0  0  0  0  0  0  0  0  0  0  0  0
   41.8222    0.0535    9.2881 O   0  0  0  0  0  0  0  0  0  0  0  0
   42.8084   -0.3223   10.2780 C   0  0  2  0  0  0  0  0  0  0  0  0
   44.0404   -1.0181    9.6767 C   0  0  1  0  0  0  0  0  0  0  0  0
   43.6789   -2.4264    9.1343 C   0  0  2  0  0  0  0  0  0  0  0  0
   43.0830   -3.2665   10.2406 C   0  0  1  0  0  0  0  0  0  0  0  0
   41.8302   -2.5550   10.8042 C   0  0  1  0  0  0  0  0  0  0  0  0
   41.1895   -3.3138   11.9641 C   0  0  0  0  0  0  0  0  0  0  0  0
   42.7455   -4.5969    9.6935 N   0  0  0  0  0  0  0  0  0  0  0  0
   42.2018   -1.2150   11.2929 O   0  0  0  0  0  0  0  0  0  0  0  0
   44.5872   -0.1682    8.6580 O   0  0  0  0  0  0  0  0  0  0  0  0
   44.8626   -3.0756    8.6503 O   0  0  0  0  0  0  0  0  0  0  0  0
   42.1076   -3.4141   13.0200 O   0  0  0  0  0  0  0  0  0  0  0  0
   38.6640    7.0193    7.9596 C   0  0  1  0  0  0  0  0  0  0  0  0
   38.8802    8.5025    7.5861 C   0  0  1  0  0  0  0  0  0  0  0  0
   37.9004    8.9479    6.4735 C   0  0  2  0  0  0  0  0  0  0  0  0
   38.0876    8.0717    5.2292 C   0  0  1  0  0  0  0  0  0  0  0  0
   37.8372    6.5831    5.5815 C   0  0  0  0  0  0  0  0  0  0  0  0
   38.8273    6.1593    6.6714 C   0  0  2  0  0  0  0  0  0  0  0  0
   37.1405    8.4956    4.1739 N   0  0  0  0  0  0  0  0  0  0  0  0
   38.5721    4.7510    6.9618 N   0  0  0  0  0  0  0  0  0  0  0  0
   38.6545    9.3207    8.7546 O   0  0  0  0  0  0  0  0  0  0  0  0
   38.1626   10.3298    6.1476 O   0  0  0  0  0  0  0  0  0  0  0  0
  1  2  1  0  0  0  0
  1 12  1  6  0  0  0
  1 13  1  0  0  0  0
  2  3  1  0  0  0  0
  2 10  1  6  0  0  0
  4  3  1  6  0  0  0
  4  5  1  0  0  0  0
  4 14  1  0  0  0  0
  5  6  1  0  0  0  0
  5 13  1  1  0  0  0
  6  7  1  0  0  0  0
  6 15  1  1  0  0  0
  7  8  1  0  0  0  0
  7 11  1  1  0  0  0
  8 14  1  0  0  0  0
  8 16  1  6  0  0  0
  9 11  1  0  0  0  0
 17 16  1  6  0  0  0
 17 18  1  0  0  0  0
 17 24  1  0  0  0  0
 18 19  1  0  0  0  0
 18 25  1  6  0  0  0
 19 20  1  0  0  0  0
 19 26  1  1  0  0  0
 20 21  1  0  0  0  0
 20 23  1  6  0  0  0
 21 22  1  1  0  0  0
 21 24  1  0  0  0  0
 22 27  1  0  0  0  0
 28 12  1  1  0  0  0
 28 29  1  0  0  0  0
 28 33  1  0  0  0  0
 29 30  1  0  0  0  0
 29 36  1  1  0  0  0
 30 31  1  0  0  0  0
 30 37  1  6  0  0  0
 31 32  1  0  0  0  0
 31 34  1  6  0  0  0
 32 33  1  0  0  0  0
 33 35  1  1  0  0  0
M  END
>  <CHROM.1>
-177.65315268,76.51499061,-168.09646804,-163.67734297,61.27393295,129.74912164
40.43767195,2.75748229,9.08095920,-2.35091179,1.03251319,-2.72831787

>  <Name>
1yrj_lig

>  <RI>
224

>  <Rbt.Current_Directory>
/home/itssahil/PROJECTS/Mol_Feturizer/New_Systems/rnas/1yrj

>  <Rbt.Executable>
rbdock ($Id: //depot/dev/client3/rdock/2013.1/src/exe/rbdock.cxx#4 $)

>  <Rbt.Library>
libRbt.so (2013.1, Build901 2013/11/27)

>  <Rbt.Parameter_File>
/export/apps/rDock/src/rDock_2013.1_src/data/scripts/dock_solv.prm

>  <Rbt.Receptor>
prm/pocket_docking_2.prm

>  <SCORE>
-26.7109

>  <SCORE.INTER>
-23.7079

>  <SCORE.INTER.CONST>
1

>  <SCORE.INTER.POLAR>
-1.85359

>  <SCORE.INTER.ROT>
6

>  <SCORE.INTER.SOLV>
16.6744

>  <SCORE.INTER.VDW>
-22.7847

>  <SCORE.INTER.norm>
-0.640754

>  <SCORE.INTRA>
-3.00305

>  <SCORE.INTRA.DIHEDRAL>
-6.64943

>  <SCORE.INTRA.DIHEDRAL.0>
15.6389

>  <SCORE.INTRA.POLAR>
0

>  <SCORE.INTRA.POLAR.0>
0

>  <SCORE.INTRA.REPUL>
0

>  <SCORE.INTRA.REPUL.0>
0

>  <SCORE.INTRA.SOLV>
0.655656

>  <SCORE.INTRA.SOLV.lig_0>
-90.9181

>  <SCORE.INTRA.VDW>
-0.00616536

>  <SCORE.INTRA.VDW.0>
-3.14158

>  <SCORE.INTRA.norm>
-0.0811635

>  <SCORE.RESTR>
0

>  <SCORE.RESTR.CAVITY>
0

>  <SCORE.RESTR.norm>
0

>  <SCORE.SYSTEM>
0

>  <SCORE.SYSTEM.CONST>
0

>  <SCORE.SYSTEM.DIHEDRAL>
0

>  <SCORE.SYSTEM.SOLV>
0

>  <SCORE.SYSTEM.norm>
0

>  <SCORE.heavy>
37

>  <SCORE.norm>
-0.721918

>  <RMSD>
0.712

$$$$
1yrj_lig
 OpenBabel11021811423D
libRbt.so/2013.1/901 2013/11/27
 37 40  0  0  0  0  0  0  0  0999 V2000
   39.3524    6.0186   10.2450 C   0  0  1  0  0  0  0  0  0  0  0  0
   40.5711    5.8113   11.1655 C   0  0  1  0  0  0  0  0  0  0  0  0
   41.4865    4.6864   10.6569 C   0  0  0  0  0  0  0  0  0  0  0  0
   40.6718    3.3792   10.4747 C   0  0  1  0  0  0  0  0  0  0  0  0
   39.4960    3.6205    9.5093 C   0  0  1  0  0  0  0  0  0  0  0  0
   38.6881    2.2664    9.3306 C   0  0  1  0  0  0  0  0  0  0  0  0
   39.6193    1.1776    8.7730 C   0  0  1  0  0  0  0  0  0  0  0  0
   40.8060    1.0092    9.7527 C   0  0  2  0  0  0  0  0  0  0  0  0
   39.0335   -0.7709    7.2346 C   0  0  0  0  0  0  0  0  0  0  0  0
   41.3417    7.0527   11.3451 N   0  0  0  0  0  0  0  0  0  0  0  0
   38.8533   -0.0883    8.5540 N   0  0  0  0  0  0  0  0  0  0  0  0
   39.6716    6.6732    9.0029 O   0  0  0  0  0  0  0  0  0  0  0  0
   38.6733    4.7232   10.0465 O   0  0  0  0  0  0  0  0  0  0  0  0
   41.5026    2.2724    9.9480 O   0  0  0  0  0  0  0  0  0  0  0  0
   38.2304    1.8231   10.5910 O   0  0  0  0  0  0  0  0  0  0  0  0
   41.7573    0.0556    9.2781 O   0  0  0  0  0  0  0  0  0  0  0  0
   42.8390   -0.1840   10.2089 C   0  0  2  0  0  0  0  0  0  0  0  0
   44.1192   -0.7034    9.5343 C   0  0  1  0  0  0  0  0  0  0  0  0
   43.9237   -2.1467    8.9986 C   0  0  2  0  0  0  0  0  0  0  0  0
   43.5103   -3.0629   10.1275 C   0  0  1  0  0  0  0  0  0  0  0  0
   42.2053   -2.5307   10.7656 C   0  0  1  0  0  0  0  0  0  0  0  0
   41.7395   -3.3727   11.9513 C   0  0  0  0  0  0  0  0  0  0  0  0
   43.3277   -4.4257    9.5865 N   0  0  0  0  0  0  0  0  0  0  0  0
   42.4172   -1.1536   11.2465 O   0  0  0  0  0  0  0  0  0  0  0  0
   44.4875    0.2157    8.4957 O   0  0  0  0  0  0  0  0  0  0  0  0
   45.1562   -2.6267    8.4443 O   0  0  0  0  0  0  0  0  0  0  0  0
   40.8667   -2.6158   12.7470 O   0  0  0  0  0  0  0  0  0  0  0  0
   38.6406    7.0326    7.9435 C   0  0  1  0  0  0  0  0  0  0  0  0
   38.8507    8.5218    7.5908 C   0  0  1  0  0  0  0  0  0  0  0  0
   37.8879    8.9714    6.4653 C   0  0  2  0  0  0  0  0  0  0  0  0
   38.1059    8.1112    5.2149 C   0  0  1  0  0  0  0  0  0  0  0  0
   37.8621    6.6165    5.5456 C   0  0  0  0  0  0  0  0  0  0  0  0
   38.8355    6.1888    6.6490 C   0  0  2  0  0  0  0  0  0  0  0  0
   37.1749    8.5389    4.1469 N   0  0  0  0  0  0  0  0  0  0  0  0
   38.5873    4.7751    6.9187 N   0  0  0  0  0  0  0  0  0  0  0  0
   38.5961    9.3246    8.7641 O   0  0  0  0  0  0  0  0  0  0  0  0
   38.1439   10.3592    6.1598 O   0  0  0  0  0  0  0  0  0  0  0  0
  1  2  1  0  0  0  0
  1 12  1  6  0  0  0
  1 13  1  0  0  0  0
  2  3  1  0  0  0  0
  2 10  1  6  0  0  0
  4  3  1  6  0  0  0
  4  5  1  0  0  0  0
  4 14  1  0  0  0  0
  5  6  1  0  0  0  0
  5 13  1  1  0  0  0
  6  7  1  0  0  0  0
  6 15  1  1  0  0  0
  7  8  1  0  0  0  0
  7 11  1  1  0  0  0
  8 14  1  0  0  0  0
  8 16  1  6  0  0  0
  9 11  1  0  0  0  0
 17 16  1  6  0  0  0
 17 18  1  0  0  0  0
 17 24  1  0  0  0  0
 18 19  1  0  0  0  0
 18 25  1  6  0  0  0
 19 20  1  0  0  0  0
 19 26  1  1  0  0  0
 20 21  1  0  0  0  0
 20 23  1  6  0  0  0
 21 22  1  1  0  0  0
 21 24  1  0  0  0  0
 22 27  1  0  0  0  0
 28 12  1  1  0  0  0
 28 29  1  0  0  0  0
 28 33  1  0  0  0  0
 29 30  1  0  0  0  0
 29 36  1  1  0  0  0
 30 31  1  0  0  0  0
 30 37  1  6  0  0  0
 31 32  1  0  0  0  0
 31 34  1  6  0  0  0
 32 33  1  0  0  0  0
 33 35  1  1  0  0  0
M  END
>  <CHROM.1>
-177.98332879,132.01587058,-176.52067019,-155.83105920,159.72819140,129.17544713
40.47382075,2.82716260,9.02983630,-2.67901393,1.13814538,-2.35442651

>  <Name>
1yrj_lig

>  <RI>
224

>  <Rbt.Current_Directory>
/home/itssahil/PROJECTS/Mol_Feturizer/New_Systems/rnas/1yrj

>  <Rbt.Executable>
rbdock ($Id: //depot/dev/client3/rdock/2013.1/src/exe/rbdock.cxx#4 $)

>  <Rbt.Library>
libRbt.so (2013.1, Build901 2013/11/27)

>  <Rbt.Parameter_File>
/export/apps/rDock/src/rDock_2013.1_src/data/scripts/dock_solv.prm

>  <Rbt.Receptor>
prm/pocket_docking_2.prm

>  <SCORE>
-27.4167

>  <SCORE.INTER>
-25.4835

>  <SCORE.INTER.CONST>
1

>  <SCORE.INTER.POLAR>
-2.41558

>  <SCORE.INTER.ROT>
6

>  <SCORE.INTER.SOLV>
17.234

>  <SCORE.INTER.VDW>
-22.2817

>  <SCORE.INTER.norm>
-0.688742

>  <SCORE.INTRA>
-2.02297

>  <SCORE.INTRA.DIHEDRAL>
-3.73242

>  <SCORE.INTRA.DIHEDRAL.0>
15.6389

>  <SCORE.INTRA.POLAR>
0

>  <SCORE.INTRA.POLAR.0>
0

>  <SCORE.INTRA.REPUL>
0

>  <SCORE.INTRA.REPUL.0>
0

>  <SCORE.INTRA.SOLV>
-0.0546062

>  <SCORE.INTRA.SOLV.lig_0>
-90.9181

>  <SCORE.INTRA.VDW>
-0.129457

>  <SCORE.INTRA.VDW.0>
-3.14158

>  <SCORE.INTRA.norm>
-0.0546748

>  <SCORE.RESTR>
0.0896917

>  <SCORE.RESTR.CAVITY>
0.0896917

>  <SCORE.RESTR.norm>
0.0024241

>  <SCORE.SYSTEM>
0

>  <SCORE.SYSTEM.CONST>
0

>  <SCORE.SYSTEM.DIHEDRAL>
0

>  <SCORE.SYSTEM.SOLV>
0

>  <SCORE.SYSTEM.norm>
0

>  <SCORE.heavy>
37

>  <SCORE.norm>
-0.740993

>  <RMSD>
0.713

$$$$
1yrj_lig
 OpenBabel11021811423D
libRbt.so/2013.1/901 2013/11/27
 37 40  0  0  0  0  0  0  0  0999 V2000
   39.3671    6.0062   10.3187 C   0  0  1  0  0  0  0  0  0  0  0  0
   40.5938    5.7845   11.2251 C   0  0  1  0  0  0  0  0  0  0  0  0
   41.5110    4.6761   10.6844 C   0  0  0  0  0  0  0  0  0  0  0  0
   40.7016    3.3691   10.4788 C   0  0  1  0  0  0  0  0  0  0  0  0
   39.5173    3.6260    9.5278 C   0  0  1  0  0  0  0  0  0  0  0  0
   38.7149    2.2721    9.3246 C   0  0  1  0  0  0  0  0  0  0  0  0
   39.6474    1.2011    8.7357 C   0  0  1  0  0  0  0  0  0  0  0  0
   40.8423    1.0168    9.7024 C   0  0  2  0  0  0  0  0  0  0  0  0
   39.2664   -0.8646    7.2884 C   0  0  0  0  0  0  0  0  0  0  0  0
   41.3595    7.0255   11.4269 N   0  0  0  0  0  0  0  0  0  0  0  0
   38.8862   -0.0636    8.4939 N   0  0  0  0  0  0  0  0  0  0  0  0
   39.6736    6.6902    9.0893 O   0  0  0  0  0  0  0  0  0  0  0  0
   38.6932    4.7120   10.0959 O   0  0  0  0  0  0  0  0  0  0  0  0
   41.5340    2.2789    9.9211 O   0  0  0  0  0  0  0  0  0  0  0  0
   38.2691    1.7981   10.5780 O   0  0  0  0  0  0  0  0  0  0  0  0
   41.7949    0.0792    9.1994 O   0  0  0  0  0  0  0  0  0  0  0  0
   42.8173   -0.2688   10.1622 C   0  0  2  0  0  0  0  0  0  0  0  0
   44.0446   -0.9452    9.5299 C   0  0  1  0  0  0  0  0  0  0  0  0
   43.6954   -2.3649    9.0094 C   0  0  2  0  0  0  0  0  0  0  0  0
   43.1495   -3.2072   10.1396 C   0  0  1  0  0  0  0  0  0  0  0  0
   41.9000   -2.5159   10.7347 C   0  0  1  0  0  0  0  0  0  0  0  0
   41.3093   -3.2775   11.9191 C   0  0  0  0  0  0  0  0  0  0  0  0
   42.8226   -4.5486    9.6131 N   0  0  0  0  0  0  0  0  0  0  0  0
   42.2592   -1.1648   11.2017 O   0  0  0  0  0  0  0  0  0  0  0  0
   44.5439   -0.0932    8.4887 O   0  0  0  0  0  0  0  0  0  0  0  0
   44.8769   -2.9946    8.4954 O   0  0  0  0  0  0  0  0  0  0  0  0
   42.2365   -3.2954   12.9716 O   0  0  0  0  0  0  0  0  0  0  0  0
   38.6387    7.0342    8.0286 C   0  0  1  0  0  0  0  0  0  0  0  0
   38.8467    8.5184    7.6543 C   0  0  1  0  0  0  0  0  0  0  0  0
   37.8796    8.9517    6.5260 C   0  0  2  0  0  0  0  0  0  0  0  0
   38.0937    8.0740    5.2870 C   0  0  1  0  0  0  0  0  0  0  0  0
   37.8519    6.5841    5.6395 C   0  0  0  0  0  0  0  0  0  0  0  0
   38.8294    6.1724    6.7454 C   0  0  2  0  0  0  0  0  0  0  0  0
   37.1586    8.4863    4.2164 N   0  0  0  0  0  0  0  0  0  0  0  0
   38.5830    4.7625    7.0358 N   0  0  0  0  0  0  0  0  0  0  0  0
   38.5958    9.3374    8.8171 O   0  0  0  0  0  0  0  0  0  0  0  0
   38.1338   10.3351    6.2002 O   0  0  0  0  0  0  0  0  0  0  0  0
  1  2  1  0  0  0  0
  1 12  1  6  0  0  0
  1 13  1  0  0  0  0
  2  3  1  0  0  0  0
  2 10  1  6  0  0  0
  4  3  1  6  0  0  0
  4  5  1  0  0  0  0
  4 14  1  0  0  0  0
  5  6  1  0  0  0  0
  5 13  1  1  0  0  0
  6  7  1  0  0  0  0
  6 15  1  1  0  0  0
  7  8  1  0  0  0  0
  7 11  1  1  0  0  0
  8 14  1  0  0  0  0
  8 16  1  6  0  0  0
  9 11  1  0  0  0  0
 17 16  1  6  0  0  0
 17 18  1  0  0  0  0
 17 24  1  0  0  0  0
 18 19  1  0  0  0  0
 18 25  1  6  0  0  0
 19 20  1  0  0  0  0
 19 26  1  1  0  0  0
 20 21  1  0  0  0  0
 20 23  1  6  0  0  0
 21 22  1  1  0  0  0
 21 24  1  0  0  0  0
 22 27  1  0  0  0  0
 28 12  1  1  0  0  0
 28 29  1  0  0  0  0
 28 33  1  0  0  0  0
 29 30  1  0  0  0  0
 29 36  1  1  0  0  0
 30 31  1  0  0  0  0
 30 37  1  6  0  0  0
 31 32  1  0  0  0  0
 31 34  1  6  0  0  0
 32 33  1  0  0  0  0
 33 35  1  1  0  0  0
M  END
>  <CHROM.1>
-179.73033700,144.33830338,-171.18631543,-163.72104059,64.07929949,131.70712168
40.46956644,2.76028644,9.05969060,-2.57185641,1.11992974,-2.46153020

>  <Name>
1yrj_lig

>  <RI>
224

>  <Rbt.Current_Directory>
/home/itssahil/PROJECTS/Mol_Feturizer/New_Systems/rnas/1yrj

>  <Rbt.Executable>
rbdock ($Id: //depot/dev/client3/rdock/2013.1/src/exe/rbdock.cxx#4 $)

>  <Rbt.Library>
libRbt.so (2013.1, Build901 2013/11/27)

>  <Rbt.Parameter_File>
/export/apps/rDock/src/rDock_2013.1_src/data/scripts/dock_solv.prm

>  <Rbt.Receptor>
prm/pocket_docking_2.prm

>  <SCORE>
-25.8423

>  <SCORE.INTER>
-22.6551

>  <SCORE.INTER.CONST>
1

>  <SCORE.INTER.POLAR>
-1.8484

>  <SCORE.INTER.ROT>
6

>  <SCORE.INTER.SOLV>
16.2452

>  <SCORE.INTER.VDW>
-21.9571

>  <SCORE.INTER.norm>
-0.6123

>  <SCORE.INTRA>
-3.1872

>  <SCORE.INTRA.DIHEDRAL>
-6.55787

>  <SCORE.INTRA.DIHEDRAL.0>
15.6389

>  <SCORE.INTRA.POLAR>
0

>  <SCORE.INTRA.POLAR.0>
0

>  <SCORE.INTRA.REPUL>
0

>  <SCORE.INTRA.REPUL.0>
0

>  <SCORE.INTRA.SOLV>
0.826967

>  <SCORE.INTRA.SOLV.lig_0>
-90.9181

>  <SCORE.INTRA.VDW>
-0.321747

>  <SCORE.INTRA.VDW.0>
-3.14158

>  <SCORE.INTRA.norm>
-0.0861404

>  <SCORE.RESTR>
0

>  <SCORE.RESTR.CAVITY>
0

>  <SCORE.RESTR.norm>
0

>  <SCORE.SYSTEM>
0

>  <SCORE.SYSTEM.CONST>
0

>  <SCORE.SYSTEM.DIHEDRAL>
0

>  <SCORE.SYSTEM.SOLV>
0

>  <SCORE.SYSTEM.norm>
0

>  <SCORE.heavy>
37

>  <SCORE.norm>
-0.69844

>  <RMSD>
0.722

$$$$
1yrj_lig
 OpenBabel11021811423D
libRbt.so/2013.1/901 2013/11/27
 37 40  0  0  0  0  0  0  0  0999 V2000
   39.3682    6.0494   10.2686 C   0  0  1  0  0  0  0  0  0  0  0  0
   40.6035    5.8382   11.1657 C   0  0  1  0  0  0  0  0  0  0  0  0
   41.5041    4.7085   10.6413 C   0  0  0  0  0  0  0  0  0  0  0  0
   40.6804    3.4046   10.4769 C   0  0  1  0  0  0  0  0  0  0  0  0
   39.4872    3.6496    9.5339 C   0  0  1  0  0  0  0  0  0  0  0  0
   38.6702    2.2988    9.3729 C   0  0  1  0  0  0  0  0  0  0  0  0
   39.5857    1.2052    8.7992 C   0  0  1  0  0  0  0  0  0  0  0  0
   40.7904    1.0330    9.7560 C   0  0  2  0  0  0  0  0  0  0  0  0
   37.9564   -0.1408    7.3708 C   0  0  0  0  0  0  0  0  0  0  0  0
   41.3829    7.0764   11.3285 N   0  0  0  0  0  0  0  0  0  0  0  0
   38.8102   -0.0577    8.5969 N   0  0  0  0  0  0  0  0  0  0  0  0
   39.6663    6.7008    9.0196 O   0  0  0  0  0  0  0  0  0  0  0  0
   38.6799    4.7567   10.0852 O   0  0  0  0  0  0  0  0  0  0  0  0
   41.4961    2.2934    9.9359 O   0  0  0  0  0  0  0  0  0  0  0  0
   38.2350    1.8594   10.6425 O   0  0  0  0  0  0  0  0  0  0  0  0
   41.7283    0.0746    9.2646 O   0  0  0  0  0  0  0  0  0  0  0  0
   42.8175   -0.1811   10.1821 C   0  0  2  0  0  0  0  0  0  0  0  0
   44.0883   -0.6998    9.4895 C   0  0  1  0  0  0  0  0  0  0  0  0
   43.8797   -2.1360    8.9398 C   0  0  2  0  0  0  0  0  0  0  0  0
   43.4723   -3.0625   10.0626 C   0  0  1  0  0  0  0  0  0  0  0  0
   42.1764   -2.5304   10.7191 C   0  0  1  0  0  0  0  0  0  0  0  0
   41.7174   -3.3830   11.8999 C   0  0  0  0  0  0  0  0  0  0  0  0
   43.2770   -4.4182    9.5083 N   0  0  0  0  0  0  0  0  0  0  0  0
   42.4004   -1.1599   11.2131 O   0  0  0  0  0  0  0  0  0  0  0  0
   44.4516    0.2287    8.4576 O   0  0  0  0  0  0  0  0  0  0  0  0
   45.1042   -2.6165    8.3683 O   0  0  0  0  0  0  0  0  0  0  0  0
   40.9053   -2.6118   12.7446 O   0  0  0  0  0  0  0  0  0  0  0  0
   38.6213    7.0328    7.9649 C   0  0  1  0  0  0  0  0  0  0  0  0
   38.8085    8.5198    7.5910 C   0  0  1  0  0  0  0  0  0  0  0  0
   37.8299    8.9419    6.4684 C   0  0  2  0  0  0  0  0  0  0  0  0
   38.0482    8.0683    5.2274 C   0  0  1  0  0  0  0  0  0  0  0  0
   37.8272    6.5750    5.5797 C   0  0  0  0  0  0  0  0  0  0  0  0
   38.8158    6.1746    6.6798 C   0  0  2  0  0  0  0  0  0  0  0  0
   37.1021    8.4697    4.1624 N   0  0  0  0  0  0  0  0  0  0  0  0
   38.5888    4.7615    6.9701 N   0  0  0  0  0  0  0  0  0  0  0  0
   38.5537    9.3345    8.7560 O   0  0  0  0  0  0  0  0  0  0  0  0
   38.0648   10.3288    6.1427 O   0  0  0  0  0  0  0  0  0  0  0  0
  1  2  1  0  0  0  0
  1 12  1  6  0  0  0
  1 13  1  0  0  0  0
  2  3  1  0  0  0  0
  2 10  1  6  0  0  0
  4  3  1  6  0  0  0
  4  5  1  0  0  0  0
  4 14  1  0  0  0  0
  5  6  1  0  0  0  0
  5 13  1  1  0  0  0
  6  7  1  0  0  0  0
  6 15  1  1  0  0  0
  7  8  1  0  0  0  0
  7 11  1  1  0  0  0
  8 14  1  0  0  0  0
  8 16  1  6  0  0  0
  9 11  1  0  0  0  0
 17 16  1  6  0  0  0
 17 18  1  0  0  0  0
 17 24  1  0  0  0  0
 18 19  1  0  0  0  0
 18 25  1  6  0  0  0
 19 20  1  0  0  0  0
 19 26  1  1  0  0  0
 20 21  1  0  0  0  0
 20 23  1  6  0  0  0
 21 22  1  1  0  0  0
 21 24  1  0  0  0  0
 22 27  1  0  0  0  0
 28 12  1  1  0  0  0
 28 29  1  0  0  0  0
 28 33  1  0  0  0  0
 29 30  1  0  0  0  0
 29 36  1  1  0  0  0
 30 31  1  0  0  0  0
 30 37  1  6  0  0  0
 31 32  1  0  0  0  0
 31 34  1  6  0  0  0
 32 33  1  0  0  0  0
 33 35  1  1  0  0  0
M  END
>  <CHROM.1>
-179.53322014,79.69919388,-175.77309431,-155.53143321,157.07035033,129.66016445
40.42255221,2.85118515,9.02912054,-2.49105951,1.07514047,-2.56496674

>  <Name>
1yrj_lig

>  <RI>
224

>  <Rbt.Current_Directory>
/home/itssahil/PROJECTS/Mol_Feturizer/New_Systems/rnas/1yrj

>  <Rbt.Executable>
rbdock ($Id: //depot/dev/client3/rdock/2013.1/src/exe/rbdock.cxx#4 $)

>  <Rbt.Library>
libRbt.so (2013.1, Build901 2013/11/27)

>  <Rbt.Parameter_File>
/export/apps/rDock/src/rDock_2013.1_src/data/scripts/dock_solv.prm

>  <Rbt.Receptor>
prm/pocket_docking_2.prm

>  <SCORE>
-28.0191

>  <SCORE.INTER>
-26.2701

>  <SCORE.INTER.CONST>
1

>  <SCORE.INTER.POLAR>
-2.41976

>  <SCORE.INTER.ROT>
6

>  <SCORE.INTER.SOLV>
17.4505

>  <SCORE.INTER.VDW>
-22.8644

>  <SCORE.INTER.norm>
-0.710003

>  <SCORE.INTRA>
-1.76503

>  <SCORE.INTRA.DIHEDRAL>
-4.17331

>  <SCORE.INTRA.DIHEDRAL.0>
15.6389

>  <SCORE.INTRA.POLAR>
0

>  <SCORE.INTRA.POLAR.0>
0

>  <SCORE.INTRA.REPUL>
0

>  <SCORE.INTRA.REPUL.0>
0

>  <SCORE.INTRA.SOLV>
0.09123

>  <SCORE.INTRA.SOLV.lig_0>
-90.9181

>  <SCORE.INTRA.VDW>
0.276013

>  <SCORE.INTRA.VDW.0>
-3.14158

>  <SCORE.INTRA.norm>
-0.0477034

>  <SCORE.RESTR>
0.0160664

>  <SCORE.RESTR.CAVITY>
0.0160664

>  <SCORE.RESTR.norm>
0.000434227

>  <SCORE.SYSTEM>
0

>  <SCORE.SYSTEM.CONST>
0

>  <SCORE.SYSTEM.DIHEDRAL>
0

>  <SCORE.SYSTEM.SOLV>
0

>  <SCORE.SYSTEM.norm>
0

>  <SCORE.heavy>
37

>  <SCORE.norm>
-0.757272

>  <RMSD>
0.728

$$$$
1yrj_lig
 OpenBabel11021811423D
libRbt.so/2013.1/901 2013/11/27
 37 40  0  0  0  0  0  0  0  0999 V2000
   39.4002    5.9216   10.2231 C   0  0  1  0  0  0  0  0  0  0  0  0
   40.6275    5.7223   11.1339 C   0  0  1  0  0  0  0  0  0  0  0  0
   41.5407    4.5962   10.6238 C   0  0  0  0  0  0  0  0  0  0  0  0
   40.7272    3.2863   10.4567 C   0  0  1  0  0  0  0  0  0  0  0  0
   39.5423    3.5194    9.5003 C   0  0  1  0  0  0  0  0  0  0  0  0
   38.7357    2.1626    9.3369 C   0  0  1  0  0  0  0  0  0  0  0  0
   39.6642    1.0725    8.7776 C   0  0  1  0  0  0  0  0  0  0  0  0
   40.8600    0.9123    9.7476 C   0  0  2  0  0  0  0  0  0  0  0  0
   38.0164   -0.2695    7.3668 C   0  0  0  0  0  0  0  0  0  0  0  0
   41.3971    6.9663   11.2992 N   0  0  0  0  0  0  0  0  0  0  0  0
   38.8990   -0.1964    8.5730 N   0  0  0  0  0  0  0  0  0  0  0  0
   39.7069    6.5694    8.9743 O   0  0  0  0  0  0  0  0  0  0  0  0
   38.7222    4.6236   10.0383 O   0  0  0  0  0  0  0  0  0  0  0  0
   41.5556    2.1781    9.9292 O   0  0  0  0  0  0  0  0  0  0  0  0
   38.2903    1.7259   10.6040 O   0  0  0  0  0  0  0  0  0  0  0  0
   41.8091   -0.0421    9.2702 O   0  0  0  0  0  0  0  0  0  0  0  0
   42.8353   -0.3610   10.2391 C   0  0  2  0  0  0  0  0  0  0  0  0
   44.0675   -1.0407    9.6200 C   0  0  1  0  0  0  0  0  0  0  0  0
   43.7294   -2.4740    9.1304 C   0  0  2  0  0  0  0  0  0  0  0  0
   43.1915   -3.2964   10.2789 C   0  0  1  0  0  0  0  0  0  0  0  0
   41.9370   -2.6027   10.8605 C   0  0  1  0  0  0  0  0  0  0  0  0
   41.3537   -3.3436   12.0616 C   0  0  0  0  0  0  0  0  0  0  0  0
   42.8751   -4.6514    9.7816 N   0  0  0  0  0  0  0  0  0  0  0  0
   42.2855   -1.2391   11.2981 O   0  0  0  0  0  0  0  0  0  0  0  0
   44.5588   -0.2071    8.5603 O   0  0  0  0  0  0  0  0  0  0  0  0
   44.9156   -3.1049    8.6286 O   0  0  0  0  0  0  0  0  0  0  0  0
   42.3125   -3.4030   13.0840 O   0  0  0  0  0  0  0  0  0  0  0  0
   38.6649    6.9265    7.9250 C   0  0  1  0  0  0  0  0  0  0  0  0
   38.8075    8.4375    7.6377 C   0  0  1  0  0  0  0  0  0  0  0  0
   37.8297    8.8906    6.5266 C   0  0  2  0  0  0  0  0  0  0  0  0
   38.0923    8.0959    5.2419 C   0  0  1  0  0  0  0  0  0  0  0  0
   37.9164    6.5788    5.5067 C   0  0  0  0  0  0  0  0  0  0  0  0
   38.9038    6.1490    6.5968 C   0  0  2  0  0  0  0  0  0  0  0  0
   37.1470    8.5261    4.1875 N   0  0  0  0  0  0  0  0  0  0  0  0
   38.7199    4.7151    6.8041 N   0  0  0  0  0  0  0  0  0  0  0  0
   38.5113    9.1765    8.8428 O   0  0  0  0  0  0  0  0  0  0  0  0
   38.0227   10.3005    6.2825 O   0  0  0  0  0  0  0  0  0  0  0  0
  1  2  1  0  0  0  0
  1 12  1  6  0  0  0
  1 13  1  0  0  0  0
  2  3  1  0  0  0  0
  2 10  1  6  0  0  0
  4  3  1  6  0  0  0
  4  5  1  0  0  0  0
  4 14  1  0  0  0  0
  5  6  1  0  0  0  0
  5 13  1  1  0  0  0
  6  7  1  0  0  0  0
  6 15  1  1  0  0  0
  7  8  1  0  0  0  0
  7 11  1  1  0  0  0
  8 14  1  0  0  0  0
  8 16  1  6  0  0  0
  9 11  1  0  0  0  0
 17 16  1  6  0  0  0
 17 18  1  0  0  0  0
 17 24  1  0  0  0  0
 18 19  1  0  0  0  0
 18 25  1  6  0  0  0
 19 20  1  0  0  0  0
 19 26  1  1  0  0  0
 20 21  1  0  0  0  0
 20 23  1  6  0  0  0
 21 22  1  1  0  0  0
 21 24  1  0  0  0  0
 22 27  1  0  0  0  0
 28 12  1  1  0  0  0
 28 29  1  0  0  0  0
 28 33  1  0  0  0  0
 29 30  1  0  0  0  0
 29 36  1  1  0  0  0
 30 31  1  0  0  0  0
 30 37  1  6  0  0  0
 31 32  1  0  0  0  0
 31 34  1  6  0  0  0
 32 33  1  0  0  0  0
 33 35  1  1  0  0  0
M  END
>  <CHROM.1>
-177.67362348,77.33999814,-171.44384050,-162.90016399,60.48163115,125.15817575
40.45431288,2.69668378,9.07321698,-2.42011628,1.05621568,-2.65435594

>  <Name>
1yrj_lig

>  <RI>
224

>  <Rbt.Current_Directory>
/home/itssahil/PROJECTS/Mol_Feturizer/New_Systems/rnas/1yrj

>  <Rbt.Executable>
rbdock ($Id: //depot/dev/client3/rdock/2013.1/src/exe/rbdock.cxx#4 $)

>  <Rbt.Library>
libRbt.so (2013.1, Build901 2013/11/27)

>  <Rbt.Parameter_File>
/export/apps/rDock/src/rDock_2013.1_src/data/scripts/dock_solv.prm

>  <Rbt.Receptor>
prm/pocket_docking_2.prm

>  <SCORE>
-26.6319

>  <SCORE.INTER>
-23.5988

>  <SCORE.INTER.CONST>
1

>  <SCORE.INTER.POLAR>
-1.85359

>  <SCORE.INTER.ROT>
6

>  <SCORE.INTER.SOLV>
16.9357

>  <SCORE.INTER.VDW>
-22.7991

>  <SCORE.INTER.norm>
-0.637804

>  <SCORE.INTRA>
-3.03317

>  <SCORE.INTRA.DIHEDRAL>
-6.51573

>  <SCORE.INTRA.DIHEDRAL.0>
15.6389

>  <SCORE.INTRA.POLAR>
0

>  <SCORE.INTRA.POLAR.0>
0

>  <SCORE.INTRA.REPUL>
0

>  <SCORE.INTRA.REPUL.0>
0

>  <SCORE.INTRA.SOLV>
0.343507

>  <SCORE.INTRA.SOLV.lig_0>
-90.9181

>  <SCORE.INTRA.VDW>
0.0529439

>  <SCORE.INTRA.VDW.0>
-3.14158

>  <SCORE.INTRA.norm>
-0.0819775

>  <SCORE.RESTR>
0

>  <SCORE.RESTR.CAVITY>
0

>  <SCORE.RESTR.norm>
0

>  <SCORE.SYSTEM>
0

>  <SCORE.SYSTEM.CONST>
0

>  <SCORE.SYSTEM.DIHEDRAL>
0

>  <SCORE.SYSTEM.SOLV>
0

>  <SCORE.SYSTEM.norm>
0

>  <SCORE.heavy>
37

>  <SCORE.norm>
-0.719782

>  <RMSD>
0.741

$$$$
1yrj_lig
 OpenBabel11021811423D
libRbt.so/2013.1/901 2013/11/27
 37 40  0  0  0  0  0  0  0  0999 V2000
   39.3612    6.0332   10.2820 C   0  0  1  0  0  0  0  0  0  0  0  0
   40.5842    5.8215   11.1957 C   0  0  1  0  0  0  0  0  0  0  0  0
   41.5056    4.7099   10.6687 C   0  0  0  0  0  0  0  0  0  0  0  0
   40.6991    3.3998   10.4711 C   0  0  1  0  0  0  0  0  0  0  0  0
   39.5185    3.6465    9.5127 C   0  0  1  0  0  0  0  0  0  0  0  0
   38.7192    2.2896    9.3178 C   0  0  1  0  0  0  0  0  0  0  0  0
   39.6558    1.2150    8.7424 C   0  0  1  0  0  0  0  0  0  0  0  0
   40.8468    1.0410    9.7159 C   0  0  2  0  0  0  0  0  0  0  0  0
   39.1872   -0.7925    7.2401 C   0  0  0  0  0  0  0  0  0  0  0  0
   41.3471    7.0654   11.3900 N   0  0  0  0  0  0  0  0  0  0  0  0
   38.8976   -0.0530    8.5083 N   0  0  0  0  0  0  0  0  0  0  0  0
   39.6720    6.7070    9.0481 O   0  0  0  0  0  0  0  0  0  0  0  0
   38.6903    4.7361   10.0677 O   0  0  0  0  0  0  0  0  0  0  0  0
   41.5356    2.3060    9.9265 O   0  0  0  0  0  0  0  0  0  0  0  0
   38.2686    1.8259   10.5734 O   0  0  0  0  0  0  0  0  0  0  0  0
   41.8030    0.1005    9.2252 O   0  0  0  0  0  0  0  0  0  0  0  0
   42.7989   -0.2674   10.2083 C   0  0  2  0  0  0  0  0  0  0  0  0
   44.0351   -0.9477    9.5980 C   0  0  1  0  0  0  0  0  0  0  0  0
   43.6861   -2.3582    9.0532 C   0  0  2  0  0  0  0  0  0  0  0  0
   43.1058   -3.2082   10.1602 C   0  0  1  0  0  0  0  0  0  0  0  0
   41.8484   -2.5123   10.7330 C   0  0  1  0  0  0  0  0  0  0  0  0
   41.2227   -3.2818   11.8941 C   0  0  0  0  0  0  0  0  0  0  0  0
   42.7799   -4.5406    9.6108 N   0  0  0  0  0  0  0  0  0  0  0  0
   42.2080   -1.1698   11.2238 O   0  0  0  0  0  0  0  0  0  0  0  0
   44.5668   -0.0887    8.5789 O   0  0  0  0  0  0  0  0  0  0  0  0
   44.8741   -2.9929    8.5605 O   0  0  0  0  0  0  0  0  0  0  0  0
   40.7020   -4.4960   11.4226 O   0  0  0  0  0  0  0  0  0  0  0  0
   38.6370    7.0640    7.9919 C   0  0  1  0  0  0  0  0  0  0  0  0
   38.8818    8.5364    7.5941 C   0  0  1  0  0  0  0  0  0  0  0  0
   37.9163    8.9798    6.4683 C   0  0  2  0  0  0  0  0  0  0  0  0
   38.0946    8.0789    5.2405 C   0  0  1  0  0  0  0  0  0  0  0  0
   37.8157    6.6014    5.6169 C   0  0  0  0  0  0  0  0  0  0  0  0
   38.7919    6.1790    6.7198 C   0  0  2  0  0  0  0  0  0  0  0  0
   37.1611    8.5012    4.1724 N   0  0  0  0  0  0  0  0  0  0  0  0
   38.5099    4.7807    7.0329 N   0  0  0  0  0  0  0  0  0  0  0  0
   38.6643    9.3786    8.7470 O   0  0  0  0  0  0  0  0  0  0  0  0
   38.2050   10.3509    6.1201 O   0  0  0  0  0  0  0  0  0  0  0  0
  1  2  1  0  0  0  0
  1 12  1  6  0  0  0
  1 13  1  0  0  0  0
  2  3  1  0  0  0  0
  2 10  1  6  0  0  0
  4  3  1  6  0  0  0
  4  5  1  0  0  0  0
  4 14  1  0  0  0  0
  5  6  1  0  0  0  0
  5 13  1  1  0  0  0
  6  7  1  0  0  0  0
  6 15  1  1  0  0  0
  7  8  1  0  0  0  0
  7 11  1  1  0  0  0
  8 14  1  0  0  0  0
  8 16  1  6  0  0  0
  9 11  1  0  0  0  0
 17 16  1  6  0  0  0
 17 18  1  0  0  0  0
 17 24  1  0  0  0  0
 18 19  1  0  0  0  0
 18 25  1  6  0  0  0
 19 20  1  0  0  0  0
 19 26  1  1  0  0  0
 20 21  1  0  0  0  0
 20 23  1  6  0  0  0
 21 22  1  1  0  0  0
 21 24  1  0  0  0  0
 22 27  1  0  0  0  0
 28 12  1  1  0  0  0
 28 29  1  0  0  0  0
 28 33  1  0  0  0  0
 29 30  1  0  0  0  0
 29 36  1  1  0  0  0
 30 31  1  0  0  0  0
 30 37  1  6  0  0  0
 31 32  1  0  0  0  0
 31 34  1  6  0  0  0
 32 33  1  0  0  0  0
 33 35  1  1  0  0  0
M  END
>  <CHROM.1>
-178.50161642,138.31430767,-169.46922449,-163.72287128,-66.88662379,132.57720380
40.41501143,2.74138956,9.00385659,-2.29501190,1.02165044,-2.75292104

>  <Name>
1yrj_lig

>  <RI>
224

>  <Rbt.Current_Directory>
/home/itssahil/PROJECTS/Mol_Feturizer/New_Systems/rnas/1yrj

>  <Rbt.Executable>
rbdock ($Id: //depot/dev/client3/rdock/2013.1/src/exe/rbdock.cxx#4 $)

>  <Rbt.Library>
libRbt.so (2013.1, Build901 2013/11/27)

>  <Rbt.Parameter_File>
/export/apps/rDock/src/rDock_2013.1_src/data/scripts/dock_solv.prm

>  <Rbt.Receptor>
prm/pocket_docking_2.prm

>  <SCORE>
-25.4979

>  <SCORE.INTER>
-22.665

>  <SCORE.INTER.CONST>
1

>  <SCORE.INTER.POLAR>
-1.85359

>  <SCORE.INTER.ROT>
6

>  <SCORE.INTER.SOLV>
15.552

>  <SCORE.INTER.VDW>
-21.7154

>  <SCORE.INTER.norm>
-0.612567

>  <SCORE.INTRA>
-2.83816

>  <SCORE.INTRA.DIHEDRAL>
-6.21361

>  <SCORE.INTRA.DIHEDRAL.0>
15.6389

>  <SCORE.INTRA.POLAR>
0

>  <SCORE.INTRA.POLAR.0>
0

>  <SCORE.INTRA.REPUL>
0

>  <SCORE.INTRA.REPUL.0>
0

>  <SCORE.INTRA.SOLV>
1.19309

>  <SCORE.INTRA.SOLV.lig_0>
-90.9181

>  <SCORE.INTRA.VDW>
-0.327898

>  <SCORE.INTRA.VDW.0>
-3.14158

>  <SCORE.INTRA.norm>
-0.0767071

>  <SCORE.RESTR>
0.00528472

>  <SCORE.RESTR.CAVITY>
0.00528472

>  <SCORE.RESTR.norm>
0.00014283

>  <SCORE.SYSTEM>
0

>  <SCORE.SYSTEM.CONST>
0

>  <SCORE.SYSTEM.DIHEDRAL>
0

>  <SCORE.SYSTEM.SOLV>
0

>  <SCORE.SYSTEM.norm>
0

>  <SCORE.heavy>
37

>  <SCORE.norm>
-0.689132

>  <RMSD>
0.749

$$$$
1yrj_lig
 OpenBabel11021811423D
libRbt.so/2013.1/901 2013/11/27
 37 40  0  0  0  0  0  0  0  0999 V2000
   39.3580    5.9282   10.2734 C   0  0  1  0  0  0  0  0  0  0  0  0
   40.5867    5.7273   11.1819 C   0  0  1  0  0  0  0  0  0  0  0  0
   41.5079    4.6136   10.6589 C   0  0  0  0  0  0  0  0  0  0  0  0
   40.7038    3.2999   10.4768 C   0  0  1  0  0  0  0  0  0  0  0  0
   39.5172    3.5355    9.5232 C   0  0  1  0  0  0  0  0  0  0  0  0
   38.7202    2.1750    9.3443 C   0  0  1  0  0  0  0  0  0  0  0  0
   39.6564    1.0980    8.7725 C   0  0  1  0  0  0  0  0  0  0  0  0
   40.8534    0.9352    9.7406 C   0  0  2  0  0  0  0  0  0  0  0  0
   38.0611   -0.2600    7.3174 C   0  0  0  0  0  0  0  0  0  0  0  0
   41.3474    6.9747   11.3614 N   0  0  0  0  0  0  0  0  0  0  0  0
   38.9003   -0.1738    8.5533 N   0  0  0  0  0  0  0  0  0  0  0  0
   39.6600    6.5924    9.0322 O   0  0  0  0  0  0  0  0  0  0  0  0
   38.6892    4.6276   10.0738 O   0  0  0  0  0  0  0  0  0  0  0  0
   41.5400    2.2038    9.9367 O   0  0  0  0  0  0  0  0  0  0  0  0
   38.2780    1.7206   10.6062 O   0  0  0  0  0  0  0  0  0  0  0  0
   41.8093   -0.0068    9.2523 O   0  0  0  0  0  0  0  0  0  0  0  0
   42.8358   -0.3322   10.2188 C   0  0  2  0  0  0  0  0  0  0  0  0
   44.0575   -1.0293    9.5983 C   0  0  1  0  0  0  0  0  0  0  0  0
   43.7011   -2.4612    9.1180 C   0  0  2  0  0  0  0  0  0  0  0  0
   43.1587   -3.2712   10.2732 C   0  0  1  0  0  0  0  0  0  0  0  0
   41.9145   -2.5601   10.8561 C   0  0  1  0  0  0  0  0  0  0  0  0
   41.3278   -3.2877   12.0636 C   0  0  0  0  0  0  0  0  0  0  0  0
   42.8248   -4.6251    9.7846 N   0  0  0  0  0  0  0  0  0  0  0  0
   42.2804   -1.1982   11.2848 O   0  0  0  0  0  0  0  0  0  0  0  0
   44.5539   -0.2071    8.5321 O   0  0  0  0  0  0  0  0  0  0  0  0
   44.8779   -3.1084    8.6148 O   0  0  0  0  0  0  0  0  0  0  0  0
   42.2635   -3.2871   13.1088 O   0  0  0  0  0  0  0  0  0  0  0  0
   38.6173    6.9419    7.9809 C   0  0  1  0  0  0  0  0  0  0  0  0
   38.8014    8.4365    7.6366 C   0  0  1  0  0  0  0  0  0  0  0  0
   37.8249    8.8776    6.5194 C   0  0  2  0  0  0  0  0  0  0  0  0
   38.0495    8.0289    5.2623 C   0  0  1  0  0  0  0  0  0  0  0  0
   37.8317    6.5285    5.5848 C   0  0  0  0  0  0  0  0  0  0  0  0
   38.8182    6.1095    6.6800 C   0  0  2  0  0  0  0  0  0  0  0  0
   37.1056    8.4484    4.2024 N   0  0  0  0  0  0  0  0  0  0  0  0
   38.5943    4.6904    6.9420 N   0  0  0  0  0  0  0  0  0  0  0  0
   38.5406    9.2276    8.8164 O   0  0  0  0  0  0  0  0  0  0  0  0
   38.0569   10.2712    6.2214 O   0  0  0  0  0  0  0  0  0  0  0  0
  1  2  1  0  0  0  0
  1 12  1  6  0  0  0
  1 13  1  0  0  0  0
  2  3  1  0  0  0  0
  2 10  1  6  0  0  0
  4  3  1  6  0  0  0
  4  5  1  0  0  0  0
  4 14  1  0  0  0  0
  5  6  1  0  0  0  0
  5 13  1  1  0  0  0
  6  7  1  0  0  0  0
  6 15  1  1  0  0  0
  7  8  1  0  0  0  0
  7 11  1  1  0  0  0
  8 14  1  0  0  0  0
  8 16  1  6  0  0  0
  9 11  1  0  0  0  0
 17 16  1  6  0  0  0
 17 18  1  0  0  0  0
 17 24  1  0  0  0  0
 18 19  1  0  0  0  0
 18 25  1  6  0  0  0
 19 20  1  0  0  0  0
 19 26  1  1  0  0  0
 20 21  1  0  0  0  0
 20 23  1  6  0  0  0
 21 22  1  1  0  0  0
 21 24  1  0  0  0  0
 22 27  1  0  0  0  0
 28 12  1  1  0  0  0
 28 29  1  0  0  0  0
 28 33  1  0  0  0  0
 29 30  1  0  0  0  0
 29 36  1  1  0  0  0
 30 31  1  0  0  0  0
 30 37  1  6  0  0  0
 31 32  1  0  0  0  0
 31 34  1  6  0  0  0
 32 33  1  0  0  0  0
 33 35  1  1  0  0  0
M  END
>  <CHROM.1>
-178.29542202,79.73582264,-171.29014583,-164.41076406,63.74306739,129.00157342
40.42941351,2.70716461,9.08472636,-2.43456154,1.05970062,-2.63625612

>  <Name>
1yrj_lig

>  <RI>
224

>  <Rbt.Current_Directory>
/home/itssahil/PROJECTS/Mol_Feturizer/New_Systems/rnas/1yrj

>  <Rbt.Executable>
rbdock ($Id: //depot/dev/client3/rdock/2013.1/src/exe/rbdock.cxx#4 $)

>  <Rbt.Library>
libRbt.so (2013.1, Build901 2013/11/27)

>  <Rbt.Parameter_File>
/export/apps/rDock/src/rDock_2013.1_src/data/scripts/dock_solv.prm

>  <Rbt.Receptor>
prm/pocket_docking_2.prm

>  <SCORE>
-26.7578

>  <SCORE.INTER>
-23.6163

>  <SCORE.INTER.CONST>
1

>  <SCORE.INTER.POLAR>
-1.85359

>  <SCORE.INTER.ROT>
6

>  <SCORE.INTER.SOLV>
16.9957

>  <SCORE.INTER.VDW>
-22.8307

>  <SCORE.INTER.norm>
-0.638277

>  <SCORE.INTRA>
-3.14156

>  <SCORE.INTRA.DIHEDRAL>
-6.87775

>  <SCORE.INTRA.DIHEDRAL.0>
15.6389

>  <SCORE.INTRA.POLAR>
0

>  <SCORE.INTRA.POLAR.0>
0

>  <SCORE.INTRA.REPUL>
0

>  <SCORE.INTRA.REPUL.0>
0

>  <SCORE.INTRA.SOLV>
0.584263

>  <SCORE.INTRA.SOLV.lig_0>
-90.9181

>  <SCORE.INTRA.VDW>
0.00518392

>  <SCORE.INTRA.VDW.0>
-3.14158

>  <SCORE.INTRA.norm>
-0.084907

>  <SCORE.RESTR>
0

>  <SCORE.RESTR.CAVITY>
0

>  <SCORE.RESTR.norm>
0

>  <SCORE.SYSTEM>
0

>  <SCORE.SYSTEM.CONST>
0

>  <SCORE.SYSTEM.DIHEDRAL>
0

>  <SCORE.SYSTEM.SOLV>
0

>  <SCORE.SYSTEM.norm>
0

>  <SCORE.heavy>
37

>  <SCORE.norm>
-0.723184

>  <RMSD>
0.750

$$$$
1yrj_lig
 OpenBabel11021811423D
libRbt.so/2013.1/901 2013/11/27
 37 40  0  0  0  0  0  0  0  0999 V2000
   39.3181    5.6740    9.8567 C   0  0  1  0  0  0  0  0  0  0  0  0
   40.5180    5.5793   10.8193 C   0  0  1  0  0  0  0  0  0  0  0  0
   41.4793    4.4469   10.4244 C   0  0  0  0  0  0  0  0  0  0  0  0
   40.7087    3.1042   10.3286 C   0  0  1  0  0  0  0  0  0  0  0  0
   39.5517    3.2307    9.3195 C   0  0  1  0  0  0  0  0  0  0  0  0
   38.7891    1.8419    9.2312 C   0  0  1  0  0  0  0  0  0  0  0  0
   39.7664    0.7421    8.7850 C   0  0  1  0  0  0  0  0  0  0  0  0
   40.9317    0.6897    9.8027 C   0  0  2  0  0  0  0  0  0  0  0  0
   39.3905   -1.4097    7.4677 C   0  0  0  0  0  0  0  0  0  0  0  0
   41.2466    6.8547   10.9167 N   0  0  0  0  0  0  0  0  0  0  0  0
   39.0441   -0.5608    8.6504 N   0  0  0  0  0  0  0  0  0  0  0  0
   39.6499    6.2374    8.5739 O   0  0  0  0  0  0  0  0  0  0  0  0
   38.6831    4.3461    9.7469 O   0  0  0  0  0  0  0  0  0  0  0  0
   41.5853    1.9858    9.9123 O   0  0  0  0  0  0  0  0  0  0  0  0
   38.3122    1.4860   10.5120 O   0  0  0  0  0  0  0  0  0  0  0  0
   41.9229   -0.2680    9.4288 O   0  0  0  0  0  0  0  0  0  0  0  0
   42.8214   -0.6118   10.5095 C   0  0  2  0  0  0  0  0  0  0  0  0
   44.1666   -1.1781   10.0264 C   0  0  1  0  0  0  0  0  0  0  0  0
   43.9873   -2.5828    9.3917 C   0  0  2  0  0  0  0  0  0  0  0  0
   43.3453   -3.5198   10.3891 C   0  0  1  0  0  0  0  0  0  0  0  0
   41.9823   -2.9377   10.8329 C   0  0  1  0  0  0  0  0  0  0  0  0
   41.2832   -3.8000   11.8814 C   0  0  0  0  0  0  0  0  0  0  0  0
   43.1837   -4.8448    9.7554 N   0  0  0  0  0  0  0  0  0  0  0  0
   42.1835   -1.5977   11.4128 O   0  0  0  0  0  0  0  0  0  0  0  0
   44.7495   -0.2394    9.1109 O   0  0  0  0  0  0  0  0  0  0  0  0
   45.2677   -3.1121    9.0214 O   0  0  0  0  0  0  0  0  0  0  0  0
   39.9772   -3.3276   12.0787 O   0  0  0  0  0  0  0  0  0  0  0  0
   38.6571    6.9754    7.6884 C   0  0  1  0  0  0  0  0  0  0  0  0
   38.8310    8.4844    7.9690 C   0  0  1  0  0  0  0  0  0  0  0  0
   37.9060    9.3323    7.0626 C   0  0  2  0  0  0  0  0  0  0  0  0
   38.2115    9.0450    5.5878 C   0  0  1  0  0  0  0  0  0  0  0  0
   38.0051    7.5393    5.2829 C   0  0  0  0  0  0  0  0  0  0  0  0
   38.9408    6.7204    6.1784 C   0  0  2  0  0  0  0  0  0  0  0  0
   37.3163    9.8504    4.7272 N   0  0  0  0  0  0  0  0  0  0  0  0
   38.7300    5.3132    5.8496 N   0  0  0  0  0  0  0  0  0  0  0  0
   38.4946    8.7492    9.3484 O   0  0  0  0  0  0  0  0  0  0  0  0
   38.1273   10.7301    7.3488 O   0  0  0  0  0  0  0  0  0  0  0  0
  1  2  1  0  0  0  0
  1 12  1  6  0  0  0
  1 13  1  0  0  0  0
  2  3  1  0  0  0  0
  2 10  1  6  0  0  0
  4  3  1  6  0  0  0
  4  5  1  0  0  0  0
  4 14  1  0  0  0  0
  5  6  1  0  0  0  0
  5 13  1  1  0  0  0
  6  7  1  0  0  0  0
  6 15  1  1  0  0  0
  7  8  1  0  0  0  0
  7 11  1  1  0  0  0
  8 14  1  0  0  0  0
  8 16  1  6  0  0  0
  9 11  1  0  0  0  0
 17 16  1  6  0  0  0
 17 18  1  0  0  0  0
 17 24  1  0  0  0  0
 18 19  1  0  0  0  0
 18 25  1  6  0  0  0
 19 20  1  0  0  0  0
 19 26  1  1  0  0  0
 20 21  1  0  0  0  0
 20 23  1  6  0  0  0
 21 22  1  1  0  0  0
 21 24  1  0  0  0  0
 22 27  1  0  0  0  0
 28 12  1  1  0  0  0
 28 29  1  0  0  0  0
 28 33  1  0  0  0  0
 29 30  1  0  0  0  0
 29 36  1  1  0  0  0
 30 31  1  0  0  0  0
 30 37  1  6  0  0  0
 31 32  1  0  0  0  0
 31 34  1  6  0  0  0
 32 33  1  0  0  0  0
 33 35  1  1  0  0  0
M  END
>  <CHROM.1>
-153.05467516,138.48806134,-163.96363783,-157.63599143,-170.88808958,95.93197718
40.47271928,2.64032547,9.08356348,-2.06417796,0.76401918,-3.05182786

>  <Name>
1yrj_lig

>  <RI>
224

>  <Rbt.Current_Directory>
/home/itssahil/PROJECTS/Mol_Feturizer/New_Systems/rnas/1yrj

>  <Rbt.Executable>
rbdock ($Id: //depot/dev/client3/rdock/2013.1/src/exe/rbdock.cxx#4 $)

>  <Rbt.Library>
libRbt.so (2013.1, Build901 2013/11/27)

>  <Rbt.Parameter_File>
/export/apps/rDock/src/rDock_2013.1_src/data/scripts/dock_solv.prm

>  <Rbt.Receptor>
prm/pocket_docking_2.prm

>  <SCORE>
-24.1015

>  <SCORE.INTER>
-21.3639

>  <SCORE.INTER.CONST>
1

>  <SCORE.INTER.POLAR>
-1.85359

>  <SCORE.INTER.ROT>
6

>  <SCORE.INTER.SOLV>
18.0652

>  <SCORE.INTER.VDW>
-21.6857

>  <SCORE.INTER.norm>
-0.577403

>  <SCORE.INTRA>
-2.73756

>  <SCORE.INTRA.DIHEDRAL>
-3.25026

>  <SCORE.INTRA.DIHEDRAL.0>
15.6389

>  <SCORE.INTRA.POLAR>
0

>  <SCORE.INTRA.POLAR.0>
0

>  <SCORE.INTRA.REPUL>
0

>  <SCORE.INTRA.REPUL.0>
0

>  <SCORE.INTRA.SOLV>
-1.59489

>  <SCORE.INTRA.SOLV.lig_0>
-90.9181

>  <SCORE.INTRA.VDW>
-0.314989

>  <SCORE.INTRA.VDW.0>
-3.14158

>  <SCORE.INTRA.norm>
-0.0739882

>  <SCORE.RESTR>
0

>  <SCORE.RESTR.CAVITY>
0

>  <SCORE.RESTR.norm>
0

>  <SCORE.SYSTEM>
0

>  <SCORE.SYSTEM.CONST>
0

>  <SCORE.SYSTEM.DIHEDRAL>
0

>  <SCORE.SYSTEM.SOLV>
0

>  <SCORE.SYSTEM.norm>
0

>  <SCORE.heavy>
37

>  <SCORE.norm>
-0.651391

>  <RMSD>
0.754

$$$$
1yrj_lig
 OpenBabel11021811423D
libRbt.so/2013.1/901 2013/11/27
 37 40  0  0  0  0  0  0  0  0999 V2000
   39.3947    5.9075   10.1810 C   0  0  1  0  0  0  0  0  0  0  0  0
   40.6187    5.7062   11.0957 C   0  0  1  0  0  0  0  0  0  0  0  0
   41.5280    4.5738   10.5925 C   0  0  0  0  0  0  0  0  0  0  0  0
   40.7088    3.2670   10.4285 C   0  0  1  0  0  0  0  0  0  0  0  0
   39.5274    3.5018    9.4681 C   0  0  1  0  0  0  0  0  0  0  0  0
   38.7149    2.1482    9.3080 C   0  0  1  0  0  0  0  0  0  0  0  0
   39.6397    1.0515    8.7555 C   0  0  1  0  0  0  0  0  0  0  0  0
   40.8322    0.8896    9.7292 C   0  0  2  0  0  0  0  0  0  0  0  0
   39.1841   -1.0129    7.3281 C   0  0  0  0  0  0  0  0  0  0  0  0
   41.3937    6.9472   11.2581 N   0  0  0  0  0  0  0  0  0  0  0  0
   38.8691   -0.2145    8.5539 N   0  0  0  0  0  0  0  0  0  0  0  0
   39.7077    6.5489    8.9304 O   0  0  0  0  0  0  0  0  0  0  0  0
   38.7111    4.6120    9.9996 O   0  0  0  0  0  0  0  0  0  0  0  0
   41.5333    2.1528    9.9075 O   0  0  0  0  0  0  0  0  0  0  0  0
   38.2641    1.7187   10.5757 O   0  0  0  0  0  0  0  0  0  0  0  0
   41.7781   -0.0711    9.2581 O   0  0  0  0  0  0  0  0  0  0  0  0
   42.8181   -0.3678   10.2193 C   0  0  2  0  0  0  0  0  0  0  0  0
   44.0422   -1.0599    9.5981 C   0  0  1  0  0  0  0  0  0  0  0  0
   43.6989   -2.5039    9.1451 C   0  0  2  0  0  0  0  0  0  0  0  0
   43.1781   -3.3013   10.3188 C   0  0  1  0  0  0  0  0  0  0  0  0
   41.9310   -2.5960   10.9025 C   0  0  1  0  0  0  0  0  0  0  0  0
   41.3654   -3.3107   12.1277 C   0  0  0  0  0  0  0  0  0  0  0  0
   42.8563   -4.6671    9.8559 N   0  0  0  0  0  0  0  0  0  0  0  0
   42.2841   -1.2227   11.3050 O   0  0  0  0  0  0  0  0  0  0  0  0
   44.5177   -0.2495    8.5136 O   0  0  0  0  0  0  0  0  0  0  0  0
   44.8787   -3.1448    8.6407 O   0  0  0  0  0  0  0  0  0  0  0  0
   42.3165   -3.2932   13.1586 O   0  0  0  0  0  0  0  0  0  0  0  0
   38.6694    6.9114    7.8792 C   0  0  1  0  0  0  0  0  0  0  0  0
   38.8027    8.4268    7.6115 C   0  0  1  0  0  0  0  0  0  0  0  0
   37.8283    8.8865    6.5000 C   0  0  2  0  0  0  0  0  0  0  0  0
   38.1044    8.1097    5.2072 C   0  0  1  0  0  0  0  0  0  0  0  0
   37.9380    6.5882    5.4523 C   0  0  0  0  0  0  0  0  0  0  0  0
   38.9220    6.1522    6.5430 C   0  0  2  0  0  0  0  0  0  0  0  0
   37.1624    8.5460    4.1525 N   0  0  0  0  0  0  0  0  0  0  0  0
   38.7474    4.7145    6.7315 N   0  0  0  0  0  0  0  0  0  0  0  0
   38.4938    9.1487    8.8237 O   0  0  0  0  0  0  0  0  0  0  0  0
   38.0125   10.3007    6.2745 O   0  0  0  0  0  0  0  0  0  0  0  0
  1  2  1  0  0  0  0
  1 12  1  6  0  0  0
  1 13  1  0  0  0  0
  2  3  1  0  0  0  0
  2 10  1  6  0  0  0
  4  3  1  6  0  0  0
  4  5  1  0  0  0  0
  4 14  1  0  0  0  0
  5  6  1  0  0  0  0
  5 13  1  1  0  0  0
  6  7  1  0  0  0  0
  6 15  1  1  0  0  0
  7  8  1  0  0  0  0
  7 11  1  1  0  0  0
  8 14  1  0  0  0  0
  8 16  1  6  0  0  0
  9 11  1  0  0  0  0
 17 16  1  6  0  0  0
 17 18  1  0  0  0  0
 17 24  1  0  0  0  0
 18 19  1  0  0  0  0
 18 25  1  6  0  0  0
 19 20  1  0  0  0  0
 19 26  1  1  0  0  0
 20 21  1  0  0  0  0
 20 23  1  6  0  0  0
 21 22  1  1  0  0  0
 21 24  1  0  0  0  0
 22 27  1  0  0  0  0
 28 12  1  1  0  0  0
 28 29  1  0  0  0  0
 28 33  1  0  0  0  0
 29 30  1  0  0  0  0
 29 36  1  1  0  0  0
 30 31  1  0  0  0  0
 30 37  1  6  0  0  0
 31 32  1  0  0  0  0
 31 34  1  6  0  0  0
 32 33  1  0  0  0  0
 33 35  1  1  0  0  0
M  END
>  <CHROM.1>
-177.43470011,140.52964279,-172.79891107,-163.08892410,63.14443974,123.86401437
40.47762566,2.66788147,9.05677959,-2.58497485,1.12488795,-2.46832375

>  <Name>
1yrj_lig

>  <RI>
224

>  <Rbt.Current_Directory>
/home/itssahil/PROJECTS/Mol_Feturizer/New_Systems/rnas/1yrj

>  <Rbt.Executable>
rbdock ($Id: //depot/dev/client3/rdock/2013.1/src/exe/rbdock.cxx#4 $)

>  <Rbt.Library>
libRbt.so (2013.1, Build901 2013/11/27)

>  <Rbt.Parameter_File>
/export/apps/rDock/src/rDock_2013.1_src/data/scripts/dock_solv.prm

>  <Rbt.Receptor>
prm/pocket_docking_2.prm

>  <SCORE>
-25.8034

>  <SCORE.INTER>
-22.5814

>  <SCORE.INTER.CONST>
1

>  <SCORE.INTER.POLAR>
-1.85359

>  <SCORE.INTER.ROT>
6

>  <SCORE.INTER.SOLV>
16.9652

>  <SCORE.INTER.VDW>
-22.1307

>  <SCORE.INTER.norm>
-0.610308

>  <SCORE.INTRA>
-3.22453

>  <SCORE.INTRA.DIHEDRAL>
-5.89285

>  <SCORE.INTRA.DIHEDRAL.0>
15.6389

>  <SCORE.INTRA.POLAR>
0

>  <SCORE.INTRA.POLAR.0>
0

>  <SCORE.INTRA.REPUL>
0

>  <SCORE.INTRA.REPUL.0>
0

>  <SCORE.INTRA.SOLV>
0.191958

>  <SCORE.INTRA.SOLV.lig_0>
-90.9181

>  <SCORE.INTRA.VDW>
-0.374082

>  <SCORE.INTRA.VDW.0>
-3.14158

>  <SCORE.INTRA.norm>
-0.0871494

>  <SCORE.RESTR>
0.00245772

>  <SCORE.RESTR.CAVITY>
0.00245772

>  <SCORE.RESTR.norm>
6.64249e-05

>  <SCORE.SYSTEM>
0

>  <SCORE.SYSTEM.CONST>
0

>  <SCORE.SYSTEM.DIHEDRAL>
0

>  <SCORE.SYSTEM.SOLV>
0

>  <SCORE.SYSTEM.norm>
0

>  <SCORE.heavy>
37

>  <SCORE.norm>
-0.697391

>  <RMSD>
0.760

$$$$
1yrj_lig
 OpenBabel11021811423D
libRbt.so/2013.1/901 2013/11/27
 37 40  0  0  0  0  0  0  0  0999 V2000
   39.4300    6.0104   10.2736 C   0  0  1  0  0  0  0  0  0  0  0  0
   40.6658    5.8046   11.1714 C   0  0  1  0  0  0  0  0  0  0  0  0
   41.5734    4.6813   10.6453 C   0  0  0  0  0  0  0  0  0  0  0  0
   40.7576    3.3729   10.4775 C   0  0  1  0  0  0  0  0  0  0  0  0
   39.5638    3.6129    9.5340 C   0  0  1  0  0  0  0  0  0  0  0  0
   38.7548    2.2577    9.3694 C   0  0  1  0  0  0  0  0  0  0  0  0
   39.6773    1.1707    8.7942 C   0  0  1  0  0  0  0  0  0  0  0  0
   40.8821    1.0035    9.7517 C   0  0  2  0  0  0  0  0  0  0  0  0
   37.9331   -0.1218    7.4549 C   0  0  0  0  0  0  0  0  0  0  0  0
   41.4377    7.0470   11.3374 N   0  0  0  0  0  0  0  0  0  0  0  0
   38.9093   -0.0964    8.5886 N   0  0  0  0  0  0  0  0  0  0  0  0
   39.7252    6.6661    9.0262 O   0  0  0  0  0  0  0  0  0  0  0  0
   38.7495    4.7140   10.0869 O   0  0  0  0  0  0  0  0  0  0  0  0
   41.5802    2.2677    9.9349 O   0  0  0  0  0  0  0  0  0  0  0  0
   38.3211    1.8130   10.6378 O   0  0  0  0  0  0  0  0  0  0  0  0
   41.8260    0.0517    9.2592 O   0  0  0  0  0  0  0  0  0  0  0  0
   42.8176   -0.3303   10.2413 C   0  0  2  0  0  0  0  0  0  0  0  0
   44.0322   -1.0499    9.6325 C   0  0  1  0  0  0  0  0  0  0  0  0
   43.6434   -2.4572    9.1067 C   0  0  2  0  0  0  0  0  0  0  0  0
   43.0476   -3.2785   10.2271 C   0  0  1  0  0  0  0  0  0  0  0  0
   41.8120   -2.5432   10.7982 C   0  0  1  0  0  0  0  0  0  0  0  0
   41.1732   -3.2821   11.9720 C   0  0  0  0  0  0  0  0  0  0  0  0
   42.6840   -4.6084    9.6956 N   0  0  0  0  0  0  0  0  0  0  0  0
   42.2093   -1.2048   11.2708 O   0  0  0  0  0  0  0  0  0  0  0  0
   44.5802   -0.2173    8.6002 O   0  0  0  0  0  0  0  0  0  0  0  0
   44.8117   -3.1285    8.6153 O   0  0  0  0  0  0  0  0  0  0  0  0
   40.6384   -4.4985   11.5222 O   0  0  0  0  0  0  0  0  0  0  0  0
   38.6734    7.0317    7.9897 C   0  0  1  0  0  0  0  0  0  0  0  0
   38.8662    8.5269    7.6533 C   0  0  1  0  0  0  0  0  0  0  0  0
   37.8806    8.9840    6.5506 C   0  0  2  0  0  0  0  0  0  0  0  0
   38.0833    8.1420    5.2853 C   0  0  1  0  0  0  0  0  0  0  0  0
   37.8564    6.6413    5.6002 C   0  0  0  0  0  0  0  0  0  0  0  0
   38.8519    6.2065    6.6809 C   0  0  2  0  0  0  0  0  0  0  0  0
   37.1306    8.5766    4.2394 N   0  0  0  0  0  0  0  0  0  0  0  0
   38.6190    4.7875    6.9359 N   0  0  0  0  0  0  0  0  0  0  0  0
   38.6261    9.3122    8.8414 O   0  0  0  0  0  0  0  0  0  0  0  0
   38.1210   10.3775    6.2593 O   0  0  0  0  0  0  0  0  0  0  0  0
  1  2  1  0  0  0  0
  1 12  1  6  0  0  0
  1 13  1  0  0  0  0
  2  3  1  0  0  0  0
  2 10  1  6  0  0  0
  4  3  1  6  0  0  0
  4  5  1  0  0  0  0
  4 14  1  0  0  0  0
  5  6  1  0  0  0  0
  5 13  1  1  0  0  0
  6  7  1  0  0  0  0
  6 15  1  1  0  0  0
  7  8  1  0  0  0  0
  7 11  1  1  0  0  0
  8 14  1  0  0  0  0
  8 16  1  6  0  0  0
  9 11  1  0  0  0  0
 17 16  1  6  0  0  0
 17 18  1  0  0  0  0
 17 24  1  0  0  0  0
 18 19  1  0  0  0  0
 18 25  1  6  0  0  0
 19 20  1  0  0  0  0
 19 26  1  1  0  0  0
 20 21  1  0  0  0  0
 20 23  1  6  0  0  0
 21 22  1  1  0  0  0
 21 24  1  0  0  0  0
 22 27  1  0  0  0  0
 28 12  1  1  0  0  0
 28 29  1  0  0  0  0
 28 33  1  0  0  0  0
 29 30  1  0  0  0  0
 29 36  1  1  0  0  0
 30 31  1  0  0  0  0
 30 37  1  6  0  0  0
 31 32  1  0  0  0  0
 31 34  1  6  0  0  0
 32 33  1  0  0  0  0
 33 35  1  1  0  0  0
M  END
>  <CHROM.1>
-177.62126098,72.54569164,-168.19325216,-164.85091644,-65.88857687,128.22487170
40.38930150,2.73118657,9.04354851,-2.15493137,0.89999728,-2.92728980

>  <Name>
1yrj_lig

>  <RI>
224

>  <Rbt.Current_Directory>
/home/itssahil/PROJECTS/Mol_Feturizer/New_Systems/rnas/1yrj

>  <Rbt.Executable>
rbdock ($Id: //depot/dev/client3/rdock/2013.1/src/exe/rbdock.cxx#4 $)

>  <Rbt.Library>
libRbt.so (2013.1, Build901 2013/11/27)

>  <Rbt.Parameter_File>
/export/apps/rDock/src/rDock_2013.1_src/data/scripts/dock_solv.prm

>  <Rbt.Receptor>
prm/pocket_docking_2.prm

>  <SCORE>
-26.2065

>  <SCORE.INTER>
-23.4893

>  <SCORE.INTER.CONST>
1

>  <SCORE.INTER.POLAR>
-1.85359

>  <SCORE.INTER.ROT>
6

>  <SCORE.INTER.SOLV>
16.132

>  <SCORE.INTER.VDW>
-22.4582

>  <SCORE.INTER.norm>
-0.634846

>  <SCORE.INTRA>
-2.71722

>  <SCORE.INTRA.DIHEDRAL>
-6.66064

>  <SCORE.INTRA.DIHEDRAL.0>
15.6389

>  <SCORE.INTRA.POLAR>
0

>  <SCORE.INTRA.POLAR.0>
0

>  <SCORE.INTRA.REPUL>
0

>  <SCORE.INTRA.REPUL.0>
0

>  <SCORE.INTRA.SOLV>
0.935143

>  <SCORE.INTRA.SOLV.lig_0>
-90.9181

>  <SCORE.INTRA.VDW>
0.145527

>  <SCORE.INTRA.VDW.0>
-3.14158

>  <SCORE.INTRA.norm>
-0.0734384

>  <SCORE.RESTR>
0

>  <SCORE.RESTR.CAVITY>
0

>  <SCORE.RESTR.norm>
0

>  <SCORE.SYSTEM>
0

>  <SCORE.SYSTEM.CONST>
0

>  <SCORE.SYSTEM.DIHEDRAL>
0

>  <SCORE.SYSTEM.SOLV>
0

>  <SCORE.SYSTEM.norm>
0

>  <SCORE.heavy>
37

>  <SCORE.norm>
-0.708285

>  <RMSD>
0.765

$$$$
1yrj_lig
 OpenBabel11021811423D
libRbt.so/2013.1/901 2013/11/27
 37 40  0  0  0  0  0  0  0  0999 V2000
   39.3911    5.9091   10.2091 C   0  0  1  0  0  0  0  0  0  0  0  0
   40.6202    5.7015   11.1156 C   0  0  1  0  0  0  0  0  0  0  0  0
   41.5272    4.5734   10.5989 C   0  0  0  0  0  0  0  0  0  0  0  0
   40.7077    3.2674   10.4296 C   0  0  1  0  0  0  0  0  0  0  0  0
   39.5210    3.5088    9.4776 C   0  0  1  0  0  0  0  0  0  0  0  0
   38.7082    2.1560    9.3118 C   0  0  1  0  0  0  0  0  0  0  0  0
   39.6305    1.0640    8.7460 C   0  0  1  0  0  0  0  0  0  0  0  0
   40.8284    0.8954    9.7119 C   0  0  2  0  0  0  0  0  0  0  0  0
   38.0465   -0.3031    7.2870 C   0  0  0  0  0  0  0  0  0  0  0  0
   41.3955    6.9416   11.2830 N   0  0  0  0  0  0  0  0  0  0  0  0
   38.8594   -0.2009    8.5392 N   0  0  0  0  0  0  0  0  0  0  0  0
   39.6968    6.5599    8.9617 O   0  0  0  0  0  0  0  0  0  0  0  0
   38.7071    4.6145   10.0218 O   0  0  0  0  0  0  0  0  0  0  0  0
   41.5299    2.1576    9.8958 O   0  0  0  0  0  0  0  0  0  0  0  0
   38.2647    1.7168   10.5787 O   0  0  0  0  0  0  0  0  0  0  0  0
   41.7721   -0.0613    9.2284 O   0  0  0  0  0  0  0  0  0  0  0  0
   42.8178   -0.3642   10.1815 C   0  0  2  0  0  0  0  0  0  0  0  0
   44.0262   -1.0778    9.5536 C   0  0  1  0  0  0  0  0  0  0  0  0
   43.6589   -2.5207    9.1158 C   0  0  2  0  0  0  0  0  0  0  0  0
   43.1394   -3.3015   10.3013 C   0  0  1  0  0  0  0  0  0  0  0  0
   41.9080   -2.5747   10.8918 C   0  0  1  0  0  0  0  0  0  0  0  0
   41.3453   -3.2719   12.1284 C   0  0  0  0  0  0  0  0  0  0  0  0
   42.7946   -4.6665    9.8528 N   0  0  0  0  0  0  0  0  0  0  0  0
   42.2835   -1.2032   11.2795 O   0  0  0  0  0  0  0  0  0  0  0  0
   44.5014   -0.2827    8.4577 O   0  0  0  0  0  0  0  0  0  0  0  0
   44.8248   -3.1814    8.6048 O   0  0  0  0  0  0  0  0  0  0  0  0
   42.3087   -3.2628   13.1480 O   0  0  0  0  0  0  0  0  0  0  0  0
   38.6577    6.8961    7.9027 C   0  0  1  0  0  0  0  0  0  0  0  0
   38.7579    8.4136    7.6323 C   0  0  1  0  0  0  0  0  0  0  0  0
   37.7807    8.8483    6.5133 C   0  0  2  0  0  0  0  0  0  0  0  0
   38.0835    8.0753    5.2242 C   0  0  1  0  0  0  0  0  0  0  0  0
   37.9505    6.5509    5.4716 C   0  0  0  0  0  0  0  0  0  0  0  0
   38.9368    6.1400    6.5700 C   0  0  2  0  0  0  0  0  0  0  0  0
   37.1388    8.4876    4.1621 N   0  0  0  0  0  0  0  0  0  0  0  0
   38.7940    4.6992    6.7606 N   0  0  0  0  0  0  0  0  0  0  0  0
   38.4242    9.1308    8.8408 O   0  0  0  0  0  0  0  0  0  0  0  0
   37.9338   10.2659    6.2857 O   0  0  0  0  0  0  0  0  0  0  0  0
  1  2  1  0  0  0  0
  1 12  1  6  0  0  0
  1 13  1  0  0  0  0
  2  3  1  0  0  0  0
  2 10  1  6  0  0  0
  4  3  1  6  0  0  0
  4  5  1  0  0  0  0
  4 14  1  0  0  0  0
  5  6  1  0  0  0  0
  5 13  1  1  0  0  0
  6  7  1  0  0  0  0
  6 15  1  1  0  0  0
  7  8  1  0  0  0  0
  7 11  1  1  0  0  0
  8 14  1  0  0  0  0
  8 16  1  6  0  0  0
  9 11  1  0  0  0  0
 17 16  1  6  0  0  0
 17 18  1  0  0  0  0
 17 24  1  0  0  0  0
 18 19  1  0  0  0  0
 18 25  1  6  0  0  0
 19 20  1  0  0  0  0
 19 26  1  1  0  0  0
 20 21  1  0  0  0  0
 20 23  1  6  0  0  0
 21 22  1  1  0  0  0
 21 24  1  0  0  0  0
 22 27  1  0  0  0  0
 28 12  1  1  0  0  0
 28 29  1  0  0  0  0
 28 33  1  0  0  0  0
 29 30  1  0  0  0  0
 29 36  1  1  0  0  0
 30 31  1  0  0  0  0
 30 37  1  6  0  0  0
 31 32  1  0  0  0  0
 31 34  1  6  0  0  0
 32 33  1  0  0  0  0
 33 35  1  1  0  0  0
M  END
>  <CHROM.1>
-179.14600846,81.44422992,-172.82004771,-164.30898542,62.95247931,124.14224125
40.42952028,2.68280703,9.05489465,-2.47405120,1.08088676,-2.59456755

>  <Name>
1yrj_lig

>  <RI>
224

>  <Rbt.Current_Directory>
/home/itssahil/PROJECTS/Mol_Feturizer/New_Systems/rnas/1yrj

>  <Rbt.Executable>
rbdock ($Id: //depot/dev/client3/rdock/2013.1/src/exe/rbdock.cxx#4 $)

>  <Rbt.Library>
libRbt.so (2013.1, Build901 2013/11/27)

>  <Rbt.Parameter_File>
/export/apps/rDock/src/rDock_2013.1_src/data/scripts/dock_solv.prm

>  <Rbt.Receptor>
prm/pocket_docking_2.prm

>  <SCORE>
-26.5961

>  <SCORE.INTER>
-23.4311

>  <SCORE.INTER.CONST>
1

>  <SCORE.INTER.POLAR>
-1.85359

>  <SCORE.INTER.ROT>
6

>  <SCORE.INTER.SOLV>
17.0789

>  <SCORE.INTER.VDW>
-22.7351

>  <SCORE.INTER.norm>
-0.633272

>  <SCORE.INTRA>
-3.16506

>  <SCORE.INTRA.DIHEDRAL>
-6.65492

>  <SCORE.INTRA.DIHEDRAL.0>
15.6389

>  <SCORE.INTRA.POLAR>
0

>  <SCORE.INTRA.POLAR.0>
0

>  <SCORE.INTRA.REPUL>
0

>  <SCORE.INTRA.REPUL.0>
0

>  <SCORE.INTRA.SOLV>
0.303083

>  <SCORE.INTRA.SOLV.lig_0>
-90.9181

>  <SCORE.INTRA.VDW>
0.0108578

>  <SCORE.INTRA.VDW.0>
-3.14158

>  <SCORE.INTRA.norm>
-0.0855422

>  <SCORE.RESTR>
0

>  <SCORE.RESTR.CAVITY>
0

>  <SCORE.RESTR.norm>
0

>  <SCORE.SYSTEM>
0

>  <SCORE.SYSTEM.CONST>
0

>  <SCORE.SYSTEM.DIHEDRAL>
0

>  <SCORE.SYSTEM.SOLV>
0

>  <SCORE.SYSTEM.norm>
0

>  <SCORE.heavy>
37

>  <SCORE.norm>
-0.718815

>  <RMSD>
0.772

$$$$
1yrj_lig
 OpenBabel11021811423D
libRbt.so/2013.1/901 2013/11/27
 37 40  0  0  0  0  0  0  0  0999 V2000
   39.2449    6.1189   10.2787 C   0  0  1  0  0  0  0  0  0  0  0  0
   40.4350    5.9575   11.2447 C   0  0  1  0  0  0  0  0  0  0  0  0
   41.4324    4.8977   10.7504 C   0  0  0  0  0  0  0  0  0  0  0  0
   40.7009    3.5520   10.5059 C   0  0  1  0  0  0  0  0  0  0  0  0
   39.5534    3.7508    9.4975 C   0  0  1  0  0  0  0  0  0  0  0  0
   38.8312    2.3587    9.2557 C   0  0  1  0  0  0  0  0  0  0  0  0
   39.8443    1.3371    8.7141 C   0  0  1  0  0  0  0  0  0  0  0  0
   40.9979    1.2112    9.7386 C   0  0  2  0  0  0  0  0  0  0  0  0
   38.8988   -0.8572    9.6072 C   0  0  0  0  0  0  0  0  0  0  0  0
   41.1264    7.2350   11.4833 N   0  0  0  0  0  0  0  0  0  0  0  0
   39.1605    0.0362    8.4357 N   0  0  0  0  0  0  0  0  0  0  0  0
   39.5767    6.8199    9.0656 O   0  0  0  0  0  0  0  0  0  0  0  0
   38.6487    4.7929   10.0237 O   0  0  0  0  0  0  0  0  0  0  0  0
   41.6136    2.5061    9.9904 O   0  0  0  0  0  0  0  0  0  0  0  0
   38.3486    1.8605   10.4859 O   0  0  0  0  0  0  0  0  0  0  0  0
   42.0201    0.3237    9.2837 O   0  0  0  0  0  0  0  0  0  0  0  0
   42.9411   -0.0701   10.3278 C   0  0  2  0  0  0  0  0  0  0  0  0
   44.3019   -0.5446    9.7926 C   0  0  1  0  0  0  0  0  0  0  0  0
   44.1693   -1.9005    9.0495 C   0  0  2  0  0  0  0  0  0  0  0  0
   43.5723   -2.9373    9.9733 C   0  0  1  0  0  0  0  0  0  0  0  0
   42.1928   -2.4446   10.4708 C   0  0  1  0  0  0  0  0  0  0  0  0
   41.5364   -3.4131   11.4520 C   0  0  0  0  0  0  0  0  0  0  0  0
   43.4545   -4.2132    9.2375 N   0  0  0  0  0  0  0  0  0  0  0  0
   42.3490   -1.1479   11.1540 O   0  0  0  0  0  0  0  0  0  0  0  0
   44.8405    0.4851    8.9508 O   0  0  0  0  0  0  0  0  0  0  0  0
   45.4651   -2.3497    8.6299 O   0  0  0  0  0  0  0  0  0  0  0  0
   40.4976   -2.7581   12.1300 O   0  0  0  0  0  0  0  0  0  0  0  0
   38.5585    7.2086    8.0042 C   0  0  1  0  0  0  0  0  0  0  0  0
   38.8562    8.6697    7.6013 C   0  0  1  0  0  0  0  0  0  0  0  0
   37.9108    9.1420    6.4702 C   0  0  2  0  0  0  0  0  0  0  0  0
   38.0617    8.2303    5.2467 C   0  0  1  0  0  0  0  0  0  0  0  0
   37.7298    6.7650    5.6281 C   0  0  0  0  0  0  0  0  0  0  0  0
   38.6867    6.3133    6.7363 C   0  0  2  0  0  0  0  0  0  0  0  0
   37.1473    8.6806    4.1736 N   0  0  0  0  0  0  0  0  0  0  0  0
   38.3547    4.9271    7.0541 N   0  0  0  0  0  0  0  0  0  0  0  0
   38.6644    9.5239    8.7500 O   0  0  0  0  0  0  0  0  0  0  0  0
   38.2487   10.5007    6.1174 O   0  0  0  0  0  0  0  0  0  0  0  0
  1  2  1  0  0  0  0
  1 12  1  6  0  0  0
  1 13  1  0  0  0  0
  2  3  1  0  0  0  0
  2 10  1  6  0  0  0
  4  3  1  6  0  0  0
  4  5  1  0  0  0  0
  4 14  1  0  0  0  0
  5  6  1  0  0  0  0
  5 13  1  1  0  0  0
  6  7  1  0  0  0  0
  6 15  1  1  0  0  0
  7  8  1  0  0  0  0
  7 11  1  1  0  0  0
  8 14  1  0  0  0  0
  8 16  1  6  0  0  0
  9 11  1  0  0  0  0
 17 16  1  6  0  0  0
 17 18  1  0  0  0  0
 17 24  1  0  0  0  0
 18 19  1  0  0  0  0
 18 25  1  6  0  0  0
 19 20  1  0  0  0  0
 19 26  1  1  0  0  0
 20 21  1  0  0  0  0
 20 23  1  6  0  0  0
 21 22  1  1  0  0  0
 21 24  1  0  0  0  0
 22 27  1  0  0  0  0
 28 12  1  1  0  0  0
 28 29  1  0  0  0  0
 28 33  1  0  0  0  0
 29 30  1  0  0  0  0
 29 36  1  1  0  0  0
 30 31  1  0  0  0  0
 30 37  1  6  0  0  0
 31 32  1  0  0  0  0
 31 34  1  6  0  0  0
 32 33  1  0  0  0  0
 33 35  1  1  0  0  0
M  END
>  <CHROM.1>
-174.77907840,-79.70981407,-165.91307550,-157.58929326,163.97657821,134.95563681
40.50020736,2.96227329,9.08432980,-2.31799043,0.97537687,-2.75920350

>  <Name>
1yrj_lig

>  <RI>
224

>  <Rbt.Current_Directory>
/home/itssahil/PROJECTS/Mol_Feturizer/New_Systems/rnas/1yrj

>  <Rbt.Executable>
rbdock ($Id: //depot/dev/client3/rdock/2013.1/src/exe/rbdock.cxx#4 $)

>  <Rbt.Library>
libRbt.so (2013.1, Build901 2013/11/27)

>  <Rbt.Parameter_File>
/export/apps/rDock/src/rDock_2013.1_src/data/scripts/dock_solv.prm

>  <Rbt.Receptor>
prm/pocket_docking_2.prm

>  <SCORE>
-25.6013

>  <SCORE.INTER>
-24.6936

>  <SCORE.INTER.CONST>
1

>  <SCORE.INTER.POLAR>
-2.28683

>  <SCORE.INTER.ROT>
6

>  <SCORE.INTER.SOLV>
16.2564

>  <SCORE.INTER.VDW>
-21.8584

>  <SCORE.INTER.norm>
-0.667395

>  <SCORE.INTRA>
-0.938614

>  <SCORE.INTRA.DIHEDRAL>
-4.96538

>  <SCORE.INTRA.DIHEDRAL.0>
15.6389

>  <SCORE.INTRA.POLAR>
0

>  <SCORE.INTRA.POLAR.0>
0

>  <SCORE.INTRA.REPUL>
0

>  <SCORE.INTRA.REPUL.0>
0

>  <SCORE.INTRA.SOLV>
0.590553

>  <SCORE.INTRA.SOLV.lig_0>
-90.9181

>  <SCORE.INTRA.VDW>
1.2488

>  <SCORE.INTRA.VDW.0>
-3.14158

>  <SCORE.INTRA.norm>
-0.0253679

>  <SCORE.RESTR>
0.0309531

>  <SCORE.RESTR.CAVITY>
0.0309531

>  <SCORE.RESTR.norm>
0.00083657

>  <SCORE.SYSTEM>
0

>  <SCORE.SYSTEM.CONST>
0

>  <SCORE.SYSTEM.DIHEDRAL>
0

>  <SCORE.SYSTEM.SOLV>
0

>  <SCORE.SYSTEM.norm>
0

>  <SCORE.heavy>
37

>  <SCORE.norm>
-0.691927

>  <RMSD>
0.774

$$$$
1yrj_lig
 OpenBabel11021811423D
libRbt.so/2013.1/901 2013/11/27
 37 40  0  0  0  0  0  0  0  0999 V2000
   39.4236    5.7283   10.0256 C   0  0  1  0  0  0  0  0  0  0  0  0
   40.6516    5.5179   10.9330 C   0  0  1  0  0  0  0  0  0  0  0  0
   41.5258    4.3498   10.4496 C   0  0  0  0  0  0  0  0  0  0  0  0
   40.6712    3.0613   10.3269 C   0  0  1  0  0  0  0  0  0  0  0  0
   39.4863    3.3028    9.3727 C   0  0  1  0  0  0  0  0  0  0  0  0
   38.6372    1.9674    9.2550 C   0  0  1  0  0  0  0  0  0  0  0  0
   39.5274    0.8333    8.7212 C   0  0  1  0  0  0  0  0  0  0  0  0
   40.7255    0.6647    9.6869 C   0  0  2  0  0  0  0  0  0  0  0  0
   37.9184   -0.5486    7.3041 C   0  0  0  0  0  0  0  0  0  0  0  0
   41.4602    6.7419   11.0561 N   0  0  0  0  0  0  0  0  0  0  0  0
   38.7220   -0.4168    8.5595 N   0  0  0  0  0  0  0  0  0  0  0  0
   39.7398    6.3297    8.7561 O   0  0  0  0  0  0  0  0  0  0  0  0
   38.7047    4.4470    9.8839 O   0  0  0  0  0  0  0  0  0  0  0  0
   41.4610    1.9132    9.8262 O   0  0  0  0  0  0  0  0  0  0  0  0
   38.1889    1.5817   10.5375 O   0  0  0  0  0  0  0  0  0  0  0  0
   41.6411   -0.3320    9.2309 O   0  0  0  0  0  0  0  0  0  0  0  0
   42.6822   -0.6328   10.1897 C   0  0  2  0  0  0  0  0  0  0  0  0
   43.8739   -1.3874    9.5781 C   0  0  1  0  0  0  0  0  0  0  0  0
   43.4754   -2.8327    9.1775 C   0  0  2  0  0  0  0  0  0  0  0  0
   42.9421   -3.5723   10.3831 C   0  0  1  0  0  0  0  0  0  0  0  0
   41.7275   -2.8050   10.9570 C   0  0  1  0  0  0  0  0  0  0  0  0
   41.1529   -3.4587   12.2117 C   0  0  0  0  0  0  0  0  0  0  0  0
   42.5676   -4.9406    9.9699 N   0  0  0  0  0  0  0  0  0  0  0  0
   42.1326   -1.4324   11.3093 O   0  0  0  0  0  0  0  0  0  0  0  0
   44.3634   -0.6303    8.4618 O   0  0  0  0  0  0  0  0  0  0  0  0
   44.6260   -3.5307    8.6815 O   0  0  0  0  0  0  0  0  0  0  0  0
   42.1413   -3.5093   13.2059 O   0  0  0  0  0  0  0  0  0  0  0  0
   38.7160    7.0128    7.8619 C   0  0  1  0  0  0  0  0  0  0  0  0
   38.8267    8.5315    8.1212 C   0  0  1  0  0  0  0  0  0  0  0  0
   37.8661    9.3271    7.2044 C   0  0  2  0  0  0  0  0  0  0  0  0
   38.1819    9.0322    5.7333 C   0  0  1  0  0  0  0  0  0  0  0  0
   38.0387    7.5150    5.4498 C   0  0  0  0  0  0  0  0  0  0  0  0
   39.0088    6.7488    6.3552 C   0  0  2  0  0  0  0  0  0  0  0  0
   37.2530    9.7871    4.8629 N   0  0  0  0  0  0  0  0  0  0  0  0
   38.8570    5.3294    6.0464 N   0  0  0  0  0  0  0  0  0  0  0  0
   38.4807    8.8013    9.4972 O   0  0  0  0  0  0  0  0  0  0  0  0
   38.0287   10.7368    7.4707 O   0  0  0  0  0  0  0  0  0  0  0  0
  1  2  1  0  0  0  0
  1 12  1  6  0  0  0
  1 13  1  0  0  0  0
  2  3  1  0  0  0  0
  2 10  1  6  0  0  0
  4  3  1  6  0  0  0
  4  5  1  0  0  0  0
  4 14  1  0  0  0  0
  5  6  1  0  0  0  0
  5 13  1  1  0  0  0
  6  7  1  0  0  0  0
  6 15  1  1  0  0  0
  7  8  1  0  0  0  0
  7 11  1  1  0  0  0
  8 14  1  0  0  0  0
  8 16  1  6  0  0  0
  9 11  1  0  0  0  0
 17 16  1  6  0  0  0
 17 18  1  0  0  0  0
 17 24  1  0  0  0  0
 18 19  1  0  0  0  0
 18 25  1  6  0  0  0
 19 20  1  0  0  0  0
 19 26  1  1  0  0  0
 20 21  1  0  0  0  0
 20 23  1  6  0  0  0
 21 22  1  1  0  0  0
 21 24  1  0  0  0  0
 22 27  1  0  0  0  0
 28 12  1  1  0  0  0
 28 29  1  0  0  0  0
 28 33  1  0  0  0  0
 29 30  1  0  0  0  0
 29 36  1  1  0  0  0
 30 31  1  0  0  0  0
 30 37  1  6  0  0  0
 31 32  1  0  0  0  0
 31 34  1  6  0  0  0
 32 33  1  0  0  0  0
 33 35  1  1  0  0  0
M  END
>  <CHROM.1>
-161.21853987,82.45499902,-172.72605148,-163.79502441,59.80318096,98.26760653
40.37857544,2.64688678,9.12250684,-2.34749596,1.07474947,-2.68763323

>  <Name>
1yrj_lig

>  <RI>
224

>  <Rbt.Current_Directory>
/home/itssahil/PROJECTS/Mol_Feturizer/New_Systems/rnas/1yrj

>  <Rbt.Executable>
rbdock ($Id: //depot/dev/client3/rdock/2013.1/src/exe/rbdock.cxx#4 $)

>  <Rbt.Library>
libRbt.so (2013.1, Build901 2013/11/27)

>  <Rbt.Parameter_File>
/export/apps/rDock/src/rDock_2013.1_src/data/scripts/dock_solv.prm

>  <Rbt.Receptor>
prm/pocket_docking_2.prm

>  <SCORE>
-25.6988

>  <SCORE.INTER>
-21.988

>  <SCORE.INTER.CONST>
1

>  <SCORE.INTER.POLAR>
-1.85359

>  <SCORE.INTER.ROT>
6

>  <SCORE.INTER.SOLV>
18.6789

>  <SCORE.INTER.VDW>
-22.3063

>  <SCORE.INTER.norm>
-0.594271

>  <SCORE.INTRA>
-3.71079

>  <SCORE.INTRA.DIHEDRAL>
-7.0113

>  <SCORE.INTRA.DIHEDRAL.0>
15.6389

>  <SCORE.INTRA.POLAR>
0

>  <SCORE.INTRA.POLAR.0>
0

>  <SCORE.INTRA.REPUL>
0

>  <SCORE.INTRA.REPUL.0>
0

>  <SCORE.INTRA.SOLV>
-1.17279

>  <SCORE.INTRA.SOLV.lig_0>
-90.9181

>  <SCORE.INTRA.VDW>
0.381253

>  <SCORE.INTRA.VDW.0>
-3.14158

>  <SCORE.INTRA.norm>
-0.100292

>  <SCORE.RESTR>
0

>  <SCORE.RESTR.CAVITY>
0

>  <SCORE.RESTR.norm>
0

>  <SCORE.SYSTEM>
0

>  <SCORE.SYSTEM.CONST>
0

>  <SCORE.SYSTEM.DIHEDRAL>
0

>  <SCORE.SYSTEM.SOLV>
0

>  <SCORE.SYSTEM.norm>
0

>  <SCORE.heavy>
37

>  <SCORE.norm>
-0.694562

>  <RMSD>
0.782

$$$$
1yrj_lig
 OpenBabel11021811423D
libRbt.so/2013.1/901 2013/11/27
 37 40  0  0  0  0  0  0  0  0999 V2000
   39.2400    6.0804   10.2412 C   0  0  1  0  0  0  0  0  0  0  0  0
   40.4189    5.9151   11.2202 C   0  0  1  0  0  0  0  0  0  0  0  0
   41.4103    4.8412   10.7447 C   0  0  0  0  0  0  0  0  0  0  0  0
   40.6676    3.5010   10.5040 C   0  0  1  0  0  0  0  0  0  0  0  0
   39.5322    3.7029    9.4827 C   0  0  1  0  0  0  0  0  0  0  0  0
   38.7983    2.3162    9.2453 C   0  0  1  0  0  0  0  0  0  0  0  0
   39.8062    1.2799    8.7221 C   0  0  1  0  0  0  0  0  0  0  0  0
   40.9484    1.1510    9.7591 C   0  0  2  0  0  0  0  0  0  0  0  0
   38.6792   -0.8188    9.6343 C   0  0  0  0  0  0  0  0  0  0  0  0
   41.1208    7.1876   11.4552 N   0  0  0  0  0  0  0  0  0  0  0  0
   39.1121   -0.0163    8.4477 N   0  0  0  0  0  0  0  0  0  0  0  0
   39.5909    6.7679    9.0257 O   0  0  0  0  0  0  0  0  0  0  0  0
   38.6330    4.7584    9.9913 O   0  0  0  0  0  0  0  0  0  0  0  0
   41.5747    2.4417   10.0063 O   0  0  0  0  0  0  0  0  0  0  0  0
   38.2986    1.8331   10.4747 O   0  0  0  0  0  0  0  0  0  0  0  0
   41.9659    0.2495    9.3216 O   0  0  0  0  0  0  0  0  0  0  0  0
   42.8793   -0.1360   10.3755 C   0  0  2  0  0  0  0  0  0  0  0  0
   44.2195   -0.6779    9.8521 C   0  0  1  0  0  0  0  0  0  0  0  0
   44.0351   -2.0558    9.1624 C   0  0  2  0  0  0  0  0  0  0  0  0
   43.4084   -3.0350   10.1285 C   0  0  1  0  0  0  0  0  0  0  0  0
   42.0500   -2.4756   10.6136 C   0  0  1  0  0  0  0  0  0  0  0  0
   41.3667   -3.3824   11.6347 C   0  0  0  0  0  0  0  0  0  0  0  0
   43.2417   -4.3332    9.4429 N   0  0  0  0  0  0  0  0  0  0  0  0
   42.2556   -1.1600   11.2456 O   0  0  0  0  0  0  0  0  0  0  0  0
   44.7881    0.2994    8.9685 O   0  0  0  0  0  0  0  0  0  0  0  0
   45.3118   -2.5657    8.7539 O   0  0  0  0  0  0  0  0  0  0  0  0
   40.0996   -2.8656   11.9435 O   0  0  0  0  0  0  0  0  0  0  0  0
   38.5819    7.1933    7.9697 C   0  0  1  0  0  0  0  0  0  0  0  0
   38.9587    8.6257    7.5310 C   0  0  1  0  0  0  0  0  0  0  0  0
   38.0262    9.1288    6.4025 C   0  0  2  0  0  0  0  0  0  0  0  0
   38.1058    8.1842    5.1973 C   0  0  1  0  0  0  0  0  0  0  0  0
   37.6943    6.7493    5.6150 C   0  0  0  0  0  0  0  0  0  0  0  0
   38.6391    6.2655    6.7200 C   0  0  2  0  0  0  0  0  0  0  0  0
   37.2038    8.6648    4.1268 N   0  0  0  0  0  0  0  0  0  0  0  0
   38.2312    4.9082    7.0724 N   0  0  0  0  0  0  0  0  0  0  0  0
   38.8338    9.5136    8.6632 O   0  0  0  0  0  0  0  0  0  0  0  0
   38.4379   10.4575    6.0156 O   0  0  0  0  0  0  0  0  0  0  0  0
  1  2  1  0  0  0  0
  1 12  1  6  0  0  0
  1 13  1  0  0  0  0
  2  3  1  0  0  0  0
  2 10  1  6  0  0  0
  4  3  1  6  0  0  0
  4  5  1  0  0  0  0
  4 14  1  0  0  0  0
  5  6  1  0  0  0  0
  5 13  1  1  0  0  0
  6  7  1  0  0  0  0
  6 15  1  1  0  0  0
  7  8  1  0  0  0  0
  7 11  1  1  0  0  0
  8 14  1  0  0  0  0
  8 16  1  6  0  0  0
  9 11  1  0  0  0  0
 17 16  1  6  0  0  0
 17 18  1  0  0  0  0
 17 24  1  0  0  0  0
 18 19  1  0  0  0  0
 18 25  1  6  0  0  0
 19 20  1  0  0  0  0
 19 26  1  1  0  0  0
 20 21  1  0  0  0  0
 20 23  1  6  0  0  0
 21 22  1  1  0  0  0
 21 24  1  0  0  0  0
 22 27  1  0  0  0  0
 28 12  1  1  0  0  0
 28 29  1  0  0  0  0
 28 33  1  0  0  0  0
 29 30  1  0  0  0  0
 29 36  1  1  0  0  0
 30 31  1  0  0  0  0
 30 37  1  6  0  0  0
 31 32  1  0  0  0  0
 31 34  1  6  0  0  0
 32 33  1  0  0  0  0
 33 35  1  1  0  0  0
M  END
>  <CHROM.1>
-172.94981638,-72.39663348,-166.40629159,-159.75649670,-175.27925719,136.73867622
40.45069813,2.90566702,9.09399286,-2.08318738,0.73780098,-3.06262460

>  <Name>
1yrj_lig

>  <RI>
224

>  <Rbt.Current_Directory>
/home/itssahil/PROJECTS/Mol_Feturizer/New_Systems/rnas/1yrj

>  <Rbt.Executable>
rbdock ($Id: //depot/dev/client3/rdock/2013.1/src/exe/rbdock.cxx#4 $)

>  <Rbt.Library>
libRbt.so (2013.1, Build901 2013/11/27)

>  <Rbt.Parameter_File>
/export/apps/rDock/src/rDock_2013.1_src/data/scripts/dock_solv.prm

>  <Rbt.Receptor>
prm/pocket_docking_2.prm

>  <SCORE>
-24.6005

>  <SCORE.INTER>
-22.9445

>  <SCORE.INTER.CONST>
1

>  <SCORE.INTER.POLAR>
-1.85386

>  <SCORE.INTER.ROT>
6

>  <SCORE.INTER.SOLV>
16.0658

>  <SCORE.INTER.VDW>
-22.0721

>  <SCORE.INTER.norm>
-0.620121

>  <SCORE.INTRA>
-1.67479

>  <SCORE.INTRA.DIHEDRAL>
-6.49032

>  <SCORE.INTRA.DIHEDRAL.0>
15.6389

>  <SCORE.INTRA.POLAR>
0

>  <SCORE.INTRA.POLAR.0>
0

>  <SCORE.INTRA.REPUL>
0

>  <SCORE.INTRA.REPUL.0>
0

>  <SCORE.INTRA.SOLV>
0.552904

>  <SCORE.INTRA.SOLV.lig_0>
-90.9181

>  <SCORE.INTRA.VDW>
1.29392

>  <SCORE.INTRA.VDW.0>
-3.14158

>  <SCORE.INTRA.norm>
-0.0452646

>  <SCORE.RESTR>
0.0188129

>  <SCORE.RESTR.CAVITY>
0.0188129

>  <SCORE.RESTR.norm>
0.000508457

>  <SCORE.SYSTEM>
0

>  <SCORE.SYSTEM.CONST>
0

>  <SCORE.SYSTEM.DIHEDRAL>
0

>  <SCORE.SYSTEM.SOLV>
0

>  <SCORE.SYSTEM.norm>
0

>  <SCORE.heavy>
37

>  <SCORE.norm>
-0.664878

>  <RMSD>
0.783

$$$$
1yrj_lig
 OpenBabel11021811423D
libRbt.so/2013.1/901 2013/11/27
 37 40  0  0  0  0  0  0  0  0999 V2000
   39.3828    5.6779    9.9677 C   0  0  1  0  0  0  0  0  0  0  0  0
   40.6163    5.5068   10.8759 C   0  0  1  0  0  0  0  0  0  0  0  0
   41.5051    4.3393   10.4183 C   0  0  0  0  0  0  0  0  0  0  0  0
   40.6682    3.0365   10.3299 C   0  0  1  0  0  0  0  0  0  0  0  0
   39.4772    3.2383    9.3740 C   0  0  1  0  0  0  0  0  0  0  0  0
   38.6464    1.8888    9.2918 C   0  0  1  0  0  0  0  0  0  0  0  0
   39.5505    0.7544    8.7829 C   0  0  1  0  0  0  0  0  0  0  0  0
   40.7538    0.6260    9.7484 C   0  0  2  0  0  0  0  0  0  0  0  0
   37.7382   -0.5637    7.5645 C   0  0  0  0  0  0  0  0  0  0  0  0
   41.4082    6.7444   10.9664 N   0  0  0  0  0  0  0  0  0  0  0  0
   38.7621   -0.5102    8.6544 N   0  0  0  0  0  0  0  0  0  0  0  0
   39.6869    6.2524    8.6829 O   0  0  0  0  0  0  0  0  0  0  0  0
   38.6813    4.3837    9.8597 O   0  0  0  0  0  0  0  0  0  0  0  0
   41.4723    1.8875    9.8547 O   0  0  0  0  0  0  0  0  0  0  0  0
   38.2073    1.5285   10.5848 O   0  0  0  0  0  0  0  0  0  0  0  0
   41.6817   -0.3689    9.3138 O   0  0  0  0  0  0  0  0  0  0  0  0
   42.7431   -0.6148   10.2660 C   0  0  2  0  0  0  0  0  0  0  0  0
   43.9636   -1.3176    9.6495 C   0  0  1  0  0  0  0  0  0  0  0  0
   43.6292   -2.7825    9.2613 C   0  0  2  0  0  0  0  0  0  0  0  0
   43.1402   -3.5377   10.4759 C   0  0  1  0  0  0  0  0  0  0  0  0
   41.8959   -2.8236   11.0548 C   0  0  1  0  0  0  0  0  0  0  0  0
   41.3621   -3.4947   12.3183 C   0  0  0  0  0  0  0  0  0  0  0  0
   42.8262   -4.9246   10.0744 N   0  0  0  0  0  0  0  0  0  0  0  0
   42.2399   -1.4313   11.3951 O   0  0  0  0  0  0  0  0  0  0  0  0
   44.4088   -0.5462    8.5244 O   0  0  0  0  0  0  0  0  0  0  0  0
   44.8069   -3.4298    8.7604 O   0  0  0  0  0  0  0  0  0  0  0  0
   42.3279   -3.4151   13.3326 O   0  0  0  0  0  0  0  0  0  0  0  0
   38.6591    6.9371    7.7946 C   0  0  1  0  0  0  0  0  0  0  0  0
   38.7521    8.4531    8.0761 C   0  0  1  0  0  0  0  0  0  0  0  0
   37.7863    9.2512    7.1670 C   0  0  2  0  0  0  0  0  0  0  0  0
   38.1111    8.9811    5.6931 C   0  0  1  0  0  0  0  0  0  0  0  0
   37.9857    7.4667    5.3872 C   0  0  0  0  0  0  0  0  0  0  0  0
   38.9606    6.6981    6.2854 C   0  0  2  0  0  0  0  0  0  0  0  0
   37.1773    9.7383    4.8299 N   0  0  0  0  0  0  0  0  0  0  0  0
   38.8256    5.2819    5.9555 N   0  0  0  0  0  0  0  0  0  0  0  0
   38.3979    8.6992    9.4544 O   0  0  0  0  0  0  0  0  0  0  0  0
   37.9324   10.6587    7.4542 O   0  0  0  0  0  0  0  0  0  0  0  0
  1  2  1  0  0  0  0
  1 12  1  6  0  0  0
  1 13  1  0  0  0  0
  2  3  1  0  0  0  0
  2 10  1  6  0  0  0
  4  3  1  6  0  0  0
  4  5  1  0  0  0  0
  4 14  1  0  0  0  0
  5  6  1  0  0  0  0
  5 13  1  1  0  0  0
  6  7  1  0  0  0  0
  6 15  1  1  0  0  0
  7  8  1  0  0  0  0
  7 11  1  1  0  0  0
  8 14  1  0  0  0  0
  8 16  1  6  0  0  0
  9 11  1  0  0  0  0
 17 16  1  6  0  0  0
 17 18  1  0  0  0  0
 17 24  1  0  0  0  0
 18 19  1  0  0  0  0
 18 25  1  6  0  0  0
 19 20  1  0  0  0  0
 19 26  1  1  0  0  0
 20 21  1  0  0  0  0
 20 23  1  6  0  0  0
 21 22  1  1  0  0  0
 21 24  1  0  0  0  0
 22 27  1  0  0  0  0
 28 12  1  1  0  0  0
 28 29  1  0  0  0  0
 28 33  1  0  0  0  0
 29 30  1  0  0  0  0
 29 36  1  1  0  0  0
 30 31  1  0  0  0  0
 30 37  1  6  0  0  0
 31 32  1  0  0  0  0
 31 34  1  6  0  0  0
 32 33  1  0  0  0  0
 33 35  1  1  0  0  0
M  END
>  <CHROM.1>
-159.26508561,69.72386208,-173.75699355,-161.46836674,63.63731910,95.58900194
40.39875173,2.62155790,9.14604917,-2.33263255,1.03830346,-2.72879463

>  <Name>
1yrj_lig

>  <RI>
224

>  <Rbt.Current_Directory>
/home/itssahil/PROJECTS/Mol_Feturizer/New_Systems/rnas/1yrj

>  <Rbt.Executable>
rbdock ($Id: //depot/dev/client3/rdock/2013.1/src/exe/rbdock.cxx#4 $)

>  <Rbt.Library>
libRbt.so (2013.1, Build901 2013/11/27)

>  <Rbt.Parameter_File>
/export/apps/rDock/src/rDock_2013.1_src/data/scripts/dock_solv.prm

>  <Rbt.Receptor>
prm/pocket_docking_2.prm

>  <SCORE>
-25.6879

>  <SCORE.INTER>
-22.1579

>  <SCORE.INTER.CONST>
1

>  <SCORE.INTER.POLAR>
-1.85359

>  <SCORE.INTER.ROT>
6

>  <SCORE.INTER.SOLV>
18.9427

>  <SCORE.INTER.VDW>
-22.5075

>  <SCORE.INTER.norm>
-0.598863

>  <SCORE.INTRA>
-3.52998

>  <SCORE.INTRA.DIHEDRAL>
-7.13823

>  <SCORE.INTRA.DIHEDRAL.0>
15.6389

>  <SCORE.INTRA.POLAR>
0

>  <SCORE.INTRA.POLAR.0>
0

>  <SCORE.INTRA.REPUL>
0

>  <SCORE.INTRA.REPUL.0>
0

>  <SCORE.INTRA.SOLV>
-1.24276

>  <SCORE.INTRA.SOLV.lig_0>
-90.9181

>  <SCORE.INTRA.VDW>
0.660511

>  <SCORE.INTRA.VDW.0>
-3.14158

>  <SCORE.INTRA.norm>
-0.0954049

>  <SCORE.RESTR>
0

>  <SCORE.RESTR.CAVITY>
0

>  <SCORE.RESTR.norm>
0

>  <SCORE.SYSTEM>
0

>  <SCORE.SYSTEM.CONST>
0

>  <SCORE.SYSTEM.DIHEDRAL>
0

>  <SCORE.SYSTEM.SOLV>
0

>  <SCORE.SYSTEM.norm>
0

>  <SCORE.heavy>
37

>  <SCORE.norm>
-0.694268

>  <RMSD>
0.799

$$$$
1yrj_lig
 OpenBabel11021811423D
libRbt.so/2013.1/901 2013/11/27
 37 40  0  0  0  0  0  0  0  0999 V2000
   39.3663    5.9697   10.3069 C   0  0  1  0  0  0  0  0  0  0  0  0
   40.6019    5.7577   11.2034 C   0  0  1  0  0  0  0  0  0  0  0  0
   41.5111    4.6399   10.6682 C   0  0  0  0  0  0  0  0  0  0  0  0
   40.6968    3.3320   10.4891 C   0  0  1  0  0  0  0  0  0  0  0  0
   39.5030    3.5786    9.5472 C   0  0  1  0  0  0  0  0  0  0  0  0
   38.6956    2.2239    9.3709 C   0  0  1  0  0  0  0  0  0  0  0  0
   39.6195    1.1428    8.7870 C   0  0  1  0  0  0  0  0  0  0  0  0
   40.8242    0.9690    9.7435 C   0  0  2  0  0  0  0  0  0  0  0  0
   38.0680   -0.2327    7.3013 C   0  0  0  0  0  0  0  0  0  0  0  0
   41.3724    6.9995   11.3801 N   0  0  0  0  0  0  0  0  0  0  0  0
   38.8531   -0.1233    8.5705 N   0  0  0  0  0  0  0  0  0  0  0  0
   39.6612    6.6362    9.0651 O   0  0  0  0  0  0  0  0  0  0  0  0
   38.6873    4.6741   10.1090 O   0  0  0  0  0  0  0  0  0  0  0  0
   41.5209    2.2323    9.9376 O   0  0  0  0  0  0  0  0  0  0  0  0
   38.2620    1.7681   10.6354 O   0  0  0  0  0  0  0  0  0  0  0  0
   41.7694    0.0224    9.2433 O   0  0  0  0  0  0  0  0  0  0  0  0
   42.7948   -0.3231   10.2039 C   0  0  2  0  0  0  0  0  0  0  0  0
   43.9993   -1.0436    9.5764 C   0  0  1  0  0  0  0  0  0  0  0  0
   43.6124   -2.4682    9.0979 C   0  0  2  0  0  0  0  0  0  0  0  0
   43.0609   -3.2679   10.2560 C   0  0  1  0  0  0  0  0  0  0  0  0
   41.8341   -2.5329   10.8461 C   0  0  1  0  0  0  0  0  0  0  0  0
   41.2403   -3.2494   12.0568 C   0  0  0  0  0  0  0  0  0  0  0  0
   42.6980   -4.6149    9.7691 N   0  0  0  0  0  0  0  0  0  0  0  0
   42.2288   -1.1784   11.2729 O   0  0  0  0  0  0  0  0  0  0  0  0
   44.5055   -0.2310    8.5075 O   0  0  0  0  0  0  0  0  0  0  0  0
   44.7736   -3.1380    8.5879 O   0  0  0  0  0  0  0  0  0  0  0  0
   40.6672   -4.4623   11.6464 O   0  0  0  0  0  0  0  0  0  0  0  0
   38.6164    6.9660    8.0097 C   0  0  1  0  0  0  0  0  0  0  0  0
   38.7921    8.4568    7.6456 C   0  0  1  0  0  0  0  0  0  0  0  0
   37.8129    8.8777    6.5230 C   0  0  2  0  0  0  0  0  0  0  0  0
   38.0418    8.0136    5.2772 C   0  0  1  0  0  0  0  0  0  0  0  0
   37.8324    6.5164    5.6196 C   0  0  0  0  0  0  0  0  0  0  0  0
   38.8214    6.1175    6.7199 C   0  0  2  0  0  0  0  0  0  0  0  0
   37.0953    8.4137    4.2121 N   0  0  0  0  0  0  0  0  0  0  0  0
   38.6055    4.7007    7.0008 N   0  0  0  0  0  0  0  0  0  0  0  0
   38.5273    9.2621    8.8149 O   0  0  0  0  0  0  0  0  0  0  0  0
   38.0371   10.2684    6.2064 O   0  0  0  0  0  0  0  0  0  0  0  0
  1  2  1  0  0  0  0
  1 12  1  6  0  0  0
  1 13  1  0  0  0  0
  2  3  1  0  0  0  0
  2 10  1  6  0  0  0
  4  3  1  6  0  0  0
  4  5  1  0  0  0  0
  4 14  1  0  0  0  0
  5  6  1  0  0  0  0
  5 13  1  1  0  0  0
  6  7  1  0  0  0  0
  6 15  1  1  0  0  0
  7  8  1  0  0  0  0
  7 11  1  1  0  0  0
  8 14  1  0  0  0  0
  8 16  1  6  0  0  0
  9 11  1  0  0  0  0
 17 16  1  6  0  0  0
 17 18  1  0  0  0  0
 17 24  1  0  0  0  0
 18 19  1  0  0  0  0
 18 25  1  6  0  0  0
 19 20  1  0  0  0  0
 19 26  1  1  0  0  0
 20 21  1  0  0  0  0
 20 23  1  6  0  0  0
 21 22  1  1  0  0  0
 21 24  1  0  0  0  0
 22 27  1  0  0  0  0
 28 12  1  1  0  0  0
 28 29  1  0  0  0  0
 28 33  1  0  0  0  0
 29 30  1  0  0  0  0
 29 36  1  1  0  0  0
 30 31  1  0  0  0  0
 30 37  1  6  0  0  0
 31 32  1  0  0  0  0
 31 34  1  6  0  0  0
 32 33  1  0  0  0  0
 33 35  1  1  0  0  0
M  END
>  <CHROM.1>
-179.83833744,83.35281144,-170.70405956,-165.21725892,-67.87053962,129.92820907
40.35323076,2.68922623,9.04696140,-2.23334836,0.96680695,-2.83725308

>  <Name>
1yrj_lig

>  <RI>
224

>  <Rbt.Current_Directory>
/home/itssahil/PROJECTS/Mol_Feturizer/New_Systems/rnas/1yrj

>  <Rbt.Executable>
rbdock ($Id: //depot/dev/client3/rdock/2013.1/src/exe/rbdock.cxx#4 $)

>  <Rbt.Library>
libRbt.so (2013.1, Build901 2013/11/27)

>  <Rbt.Parameter_File>
/export/apps/rDock/src/rDock_2013.1_src/data/scripts/dock_solv.prm

>  <Rbt.Receptor>
prm/pocket_docking_2.prm

>  <SCORE>
-26.2449

>  <SCORE.INTER>
-23.4291

>  <SCORE.INTER.CONST>
1

>  <SCORE.INTER.POLAR>
-1.85359

>  <SCORE.INTER.ROT>
6

>  <SCORE.INTER.SOLV>
16.4083

>  <SCORE.INTER.VDW>
-22.5102

>  <SCORE.INTER.norm>
-0.63322

>  <SCORE.INTRA>
-2.81578

>  <SCORE.INTRA.DIHEDRAL>
-6.76402

>  <SCORE.INTRA.DIHEDRAL.0>
15.6389

>  <SCORE.INTRA.POLAR>
0

>  <SCORE.INTRA.POLAR.0>
0

>  <SCORE.INTRA.REPUL>
0

>  <SCORE.INTRA.REPUL.0>
0

>  <SCORE.INTRA.SOLV>
1.1063

>  <SCORE.INTRA.SOLV.lig_0>
-90.9181

>  <SCORE.INTRA.VDW>
0.01308

>  <SCORE.INTRA.VDW.0>
-3.14158

>  <SCORE.INTRA.norm>
-0.0761021

>  <SCORE.RESTR>
0

>  <SCORE.RESTR.CAVITY>
0

>  <SCORE.RESTR.norm>
0

>  <SCORE.SYSTEM>
0

>  <SCORE.SYSTEM.CONST>
0

>  <SCORE.SYSTEM.DIHEDRAL>
0

>  <SCORE.SYSTEM.SOLV>
0

>  <SCORE.SYSTEM.norm>
0

>  <SCORE.heavy>
37

>  <SCORE.norm>
-0.709322

>  <RMSD>
0.804

$$$$
1yrj_lig
 OpenBabel11021811423D
libRbt.so/2013.1/901 2013/11/27
 37 40  0  0  0  0  0  0  0  0999 V2000
   39.3838    5.8276    9.9991 C   0  0  1  0  0  0  0  0  0  0  0  0
   40.5680    5.6471   10.9689 C   0  0  1  0  0  0  0  0  0  0  0  0
   41.5131    4.5237   10.5138 C   0  0  0  0  0  0  0  0  0  0  0  0
   40.7186    3.2056   10.3213 C   0  0  1  0  0  0  0  0  0  0  0  0
   39.5786    3.4199    9.3077 C   0  0  1  0  0  0  0  0  0  0  0  0
   38.7912    2.0551    9.1198 C   0  0  1  0  0  0  0  0  0  0  0  0
   39.7535    0.9673    8.6158 C   0  0  1  0  0  0  0  0  0  0  0  0
   40.9032    0.8262    9.6428 C   0  0  2  0  0  0  0  0  0  0  0  0
   38.5712   -1.0663    9.6024 C   0  0  0  0  0  0  0  0  0  0  0  0
   41.3193    6.8989   11.1581 N   0  0  0  0  0  0  0  0  0  0  0  0
   39.0087   -0.3096    8.3877 N   0  0  0  0  0  0  0  0  0  0  0  0
   39.7443    6.4660    8.7599 O   0  0  0  0  0  0  0  0  0  0  0  0
   38.7253    4.5224    9.7953 O   0  0  0  0  0  0  0  0  0  0  0  0
   41.5796    2.0993    9.8446 O   0  0  0  0  0  0  0  0  0  0  0  0
   38.2896    1.6268   10.3686 O   0  0  0  0  0  0  0  0  0  0  0  0
   41.8812   -0.1249    9.2203 O   0  0  0  0  0  0  0  0  0  0  0  0
   42.8846   -0.3978   10.2265 C   0  0  2  0  0  0  0  0  0  0  0  0
   44.1397   -1.0851    9.6643 C   0  0  1  0  0  0  0  0  0  0  0  0
   43.8294   -2.5385    9.2176 C   0  0  2  0  0  0  0  0  0  0  0  0
   43.2699   -3.3258   10.3803 C   0  0  1  0  0  0  0  0  0  0  0  0
   41.9933   -2.6260   10.9038 C   0  0  1  0  0  0  0  0  0  0  0  0
   41.3860   -3.3305   12.1150 C   0  0  0  0  0  0  0  0  0  0  0  0
   42.9807   -4.7009    9.9236 N   0  0  0  0  0  0  0  0  0  0  0  0
   42.3160   -1.2439   11.3014 O   0  0  0  0  0  0  0  0  0  0  0  0
   44.6503   -0.2841    8.5888 O   0  0  0  0  0  0  0  0  0  0  0  0
   45.0349   -3.1735    8.7697 O   0  0  0  0  0  0  0  0  0  0  0  0
   40.9400   -4.6059   11.7379 O   0  0  0  0  0  0  0  0  0  0  0  0
   38.7596    7.2103    7.8706 C   0  0  1  0  0  0  0  0  0  0  0  0
   38.9451    8.7183    8.1488 C   0  0  1  0  0  0  0  0  0  0  0  0
   38.0292    9.5720    7.2385 C   0  0  2  0  0  0  0  0  0  0  0  0
   38.3359    9.2793    5.7649 C   0  0  1  0  0  0  0  0  0  0  0  0
   38.1181    7.7747    5.4625 C   0  0  0  0  0  0  0  0  0  0  0  0
   39.0449    6.9501    6.3618 C   0  0  2  0  0  0  0  0  0  0  0  0
   37.4494   10.0903    4.9006 N   0  0  0  0  0  0  0  0  0  0  0  0
   38.8236    5.5440    6.0351 N   0  0  0  0  0  0  0  0  0  0  0  0
   38.6074    8.9885    9.5268 O   0  0  0  0  0  0  0  0  0  0  0  0
   38.2610   10.9685    7.5225 O   0  0  0  0  0  0  0  0  0  0  0  0
  1  2  1  0  0  0  0
  1 12  1  6  0  0  0
  1 13  1  0  0  0  0
  2  3  1  0  0  0  0
  2 10  1  6  0  0  0
  4  3  1  6  0  0  0
  4  5  1  0  0  0  0
  4 14  1  0  0  0  0
  5  6  1  0  0  0  0
  5 13  1  1  0  0  0
  6  7  1  0  0  0  0
  6 15  1  1  0  0  0
  7  8  1  0  0  0  0
  7 11  1  1  0  0  0
  8 14  1  0  0  0  0
  8 16  1  6  0  0  0
  9 11  1  0  0  0  0
 17 16  1  6  0  0  0
 17 18  1  0  0  0  0
 17 24  1  0  0  0  0
 18 19  1  0  0  0  0
 18 25  1  6  0  0  0
 19 20  1  0  0  0  0
 19 26  1  1  0  0  0
 20 21  1  0  0  0  0
 20 23  1  6  0  0  0
 21 22  1  1  0  0  0
 21 24  1  0  0  0  0
 22 27  1  0  0  0  0
 28 12  1  1  0  0  0
 28 29  1  0  0  0  0
 28 33  1  0  0  0  0
 29 30  1  0  0  0  0
 29 36  1  1  0  0  0
 30 31  1  0  0  0  0
 30 37  1  6  0  0  0
 31 32  1  0  0  0  0
 31 34  1  6  0  0  0
 32 33  1  0  0  0  0
 33 35  1  1  0  0  0
M  END
>  <CHROM.1>
-156.78763277,-72.87692438,-173.09088062,-163.42644082,-64.88932534,100.42759297
40.50268029,2.78035447,9.13875601,1.90517893,-0.07683715,-0.21756209

>  <Name>
1yrj_lig

>  <RI>
224

>  <Rbt.Current_Directory>
/home/itssahil/PROJECTS/Mol_Feturizer/New_Systems/rnas/1yrj

>  <Rbt.Executable>
rbdock ($Id: //depot/dev/client3/rdock/2013.1/src/exe/rbdock.cxx#4 $)

>  <Rbt.Library>
libRbt.so (2013.1, Build901 2013/11/27)

>  <Rbt.Parameter_File>
/export/apps/rDock/src/rDock_2013.1_src/data/scripts/dock_solv.prm

>  <Rbt.Receptor>
prm/pocket_docking_2.prm

>  <SCORE>
-23.0367

>  <SCORE.INTER>
-21.9041

>  <SCORE.INTER.CONST>
1

>  <SCORE.INTER.POLAR>
-1.85359

>  <SCORE.INTER.ROT>
6

>  <SCORE.INTER.SOLV>
16.9377

>  <SCORE.INTER.VDW>
-21.67

>  <SCORE.INTER.norm>
-0.592002

>  <SCORE.INTRA>
-1.14086

>  <SCORE.INTRA.DIHEDRAL>
-6.05088

>  <SCORE.INTRA.DIHEDRAL.0>
15.6389

>  <SCORE.INTRA.POLAR>
0

>  <SCORE.INTRA.POLAR.0>
0

>  <SCORE.INTRA.REPUL>
0

>  <SCORE.INTRA.REPUL.0>
0

>  <SCORE.INTRA.SOLV>
-0.337141

>  <SCORE.INTRA.SOLV.lig_0>
-90.9181

>  <SCORE.INTRA.VDW>
2.05315

>  <SCORE.INTRA.VDW.0>
-3.14158

>  <SCORE.INTRA.norm>
-0.030834

>  <SCORE.RESTR>
0.00825713

>  <SCORE.RESTR.CAVITY>
0.00825713

>  <SCORE.RESTR.norm>
0.000223166

>  <SCORE.SYSTEM>
0

>  <SCORE.SYSTEM.CONST>
0

>  <SCORE.SYSTEM.DIHEDRAL>
0

>  <SCORE.SYSTEM.SOLV>
0

>  <SCORE.SYSTEM.norm>
0

>  <SCORE.heavy>
37

>  <SCORE.norm>
-0.622613

>  <RMSD>
0.808

$$$$
1yrj_lig
 OpenBabel11021811423D
libRbt.so/2013.1/901 2013/11/27
 37 40  0  0  0  0  0  0  0  0999 V2000
   39.4374    5.9003   10.1040 C   0  0  1  0  0  0  0  0  0  0  0  0
   40.6518    5.6985   11.0315 C   0  0  1  0  0  0  0  0  0  0  0  0
   41.5517    4.5483   10.5524 C   0  0  0  0  0  0  0  0  0  0  0  0
   40.7186    3.2487   10.4012 C   0  0  1  0  0  0  0  0  0  0  0  0
   39.5476    3.4828    9.4281 C   0  0  1  0  0  0  0  0  0  0  0  0
   38.7206    2.1365    9.2816 C   0  0  1  0  0  0  0  0  0  0  0  0
   39.6369    1.0210    8.7527 C   0  0  1  0  0  0  0  0  0  0  0  0
   40.8197    0.8599    9.7383 C   0  0  2  0  0  0  0  0  0  0  0  0
   37.8676   -0.2626    7.4380 C   0  0  0  0  0  0  0  0  0  0  0  0
   41.4399    6.9327   11.1816 N   0  0  0  0  0  0  0  0  0  0  0  0
   38.8531   -0.2389    8.5638 N   0  0  0  0  0  0  0  0  0  0  0  0
   39.7677    6.5192    8.8467 O   0  0  0  0  0  0  0  0  0  0  0  0
   38.7402    4.6102    9.9364 O   0  0  0  0  0  0  0  0  0  0  0  0
   41.5341    2.1175    9.9035 O   0  0  0  0  0  0  0  0  0  0  0  0
   38.2549    1.7311   10.5518 O   0  0  0  0  0  0  0  0  0  0  0  0
   41.7579   -0.1186    9.2891 O   0  0  0  0  0  0  0  0  0  0  0  0
   42.6400   -0.5872   10.3360 C   0  0  2  0  0  0  0  0  0  0  0  0
   43.8240   -1.4148    9.8099 C   0  0  1  0  0  0  0  0  0  0  0  0
   43.3471   -2.7821    9.2518 C   0  0  2  0  0  0  0  0  0  0  0  0
   42.6028   -3.5441   10.3242 C   0  0  1  0  0  0  0  0  0  0  0  0
   41.4020   -2.6990   10.8114 C   0  0  1  0  0  0  0  0  0  0  0  0
   40.6187   -3.3751   11.9344 C   0  0  0  0  0  0  0  0  0  0  0  0
   42.1584   -4.8366    9.7625 N   0  0  0  0  0  0  0  0  0  0  0  0
   41.8848   -1.4013   11.3166 O   0  0  0  0  0  0  0  0  0  0  0  0
   44.5157   -0.6370    8.8221 O   0  0  0  0  0  0  0  0  0  0  0  0
   44.4813   -3.5572    8.8398 O   0  0  0  0  0  0  0  0  0  0  0  0
   39.9403   -4.4917   11.4235 O   0  0  0  0  0  0  0  0  0  0  0  0
   38.7346    7.0605    7.8698 C   0  0  1  0  0  0  0  0  0  0  0  0
   39.0993    8.5357    7.5927 C   0  0  1  0  0  0  0  0  0  0  0  0
   38.1410    9.1628    6.5513 C   0  0  2  0  0  0  0  0  0  0  0  0
   38.1952    8.3653    5.2428 C   0  0  1  0  0  0  0  0  0  0  0  0
   37.7954    6.8899    5.4995 C   0  0  0  0  0  0  0  0  0  0  0  0
   38.7655    6.2847    6.5196 C   0  0  2  0  0  0  0  0  0  0  0  0
   37.2687    8.9635    4.2557 N   0  0  0  0  0  0  0  0  0  0  0  0
   38.3678    4.8939    6.7204 N   0  0  0  0  0  0  0  0  0  0  0  0
   38.9983    9.2853    8.8231 O   0  0  0  0  0  0  0  0  0  0  0  0
   38.5418   10.5293    6.3129 O   0  0  0  0  0  0  0  0  0  0  0  0
  1  2  1  0  0  0  0
  1 12  1  6  0  0  0
  1 13  1  0  0  0  0
  2  3  1  0  0  0  0
  2 10  1  6  0  0  0
  4  3  1  6  0  0  0
  4  5  1  0  0  0  0
  4 14  1  0  0  0  0
  5  6  1  0  0  0  0
  5 13  1  1  0  0  0
  6  7  1  0  0  0  0
  6 15  1  1  0  0  0
  7  8  1  0  0  0  0
  7 11  1  1  0  0  0
  8 14  1  0  0  0  0
  8 16  1  6  0  0  0
  9 11  1  0  0  0  0
 17 16  1  6  0  0  0
 17 18  1  0  0  0  0
 17 24  1  0  0  0  0
 18 19  1  0  0  0  0
 18 25  1  6  0  0  0
 19 20  1  0  0  0  0
 19 26  1  1  0  0  0
 20 21  1  0  0  0  0
 20 23  1  6  0  0  0
 21 22  1  1  0  0  0
 21 24  1  0  0  0  0
 22 27  1  0  0  0  0
 28 12  1  1  0  0  0
 28 29  1  0  0  0  0
 28 33  1  0  0  0  0
 29 30  1  0  0  0  0
 29 36  1  1  0  0  0
 30 31  1  0  0  0  0
 30 37  1  6  0  0  0
 31 32  1  0  0  0  0
 31 34  1  6  0  0  0
 32 33  1  0  0  0  0
 33 35  1  1  0  0  0
M  END
>  <CHROM.1>
-168.22758345,70.65087528,-162.47182220,-168.28680826,-69.58573542,125.18060394
40.29965641,2.63712566,9.01669065,-2.00421811,0.78895789,-3.09353528

>  <Name>
1yrj_lig

>  <RI>
224

>  <Rbt.Current_Directory>
/home/itssahil/PROJECTS/Mol_Feturizer/New_Systems/rnas/1yrj

>  <Rbt.Executable>
rbdock ($Id: //depot/dev/client3/rdock/2013.1/src/exe/rbdock.cxx#4 $)

>  <Rbt.Library>
libRbt.so (2013.1, Build901 2013/11/27)

>  <Rbt.Parameter_File>
/export/apps/rDock/src/rDock_2013.1_src/data/scripts/dock_solv.prm

>  <Rbt.Receptor>
prm/pocket_docking_2.prm

>  <SCORE>
-25.4806

>  <SCORE.INTER>
-23.0664

>  <SCORE.INTER.CONST>
1

>  <SCORE.INTER.POLAR>
-1.85359

>  <SCORE.INTER.ROT>
6

>  <SCORE.INTER.SOLV>
16.1447

>  <SCORE.INTER.VDW>
-22.1805

>  <SCORE.INTER.norm>
-0.623417

>  <SCORE.INTRA>
-2.41423

>  <SCORE.INTRA.DIHEDRAL>
-5.34921

>  <SCORE.INTRA.DIHEDRAL.0>
15.6389

>  <SCORE.INTRA.POLAR>
0

>  <SCORE.INTRA.POLAR.0>
0

>  <SCORE.INTRA.REPUL>
0

>  <SCORE.INTRA.REPUL.0>
0

>  <SCORE.INTRA.SOLV>
0.459268

>  <SCORE.INTRA.SOLV.lig_0>
-90.9181

>  <SCORE.INTRA.VDW>
0.0307443

>  <SCORE.INTRA.VDW.0>
-3.14158

>  <SCORE.INTRA.norm>
-0.0652494

>  <SCORE.RESTR>
0

>  <SCORE.RESTR.CAVITY>
0

>  <SCORE.RESTR.norm>
0

>  <SCORE.SYSTEM>
0

>  <SCORE.SYSTEM.CONST>
0

>  <SCORE.SYSTEM.DIHEDRAL>
0

>  <SCORE.SYSTEM.SOLV>
0

>  <SCORE.SYSTEM.norm>
0

>  <SCORE.heavy>
37

>  <SCORE.norm>
-0.688666

>  <RMSD>
0.811

$$$$
1yrj_lig
 OpenBabel11021811423D
libRbt.so/2013.1/901 2013/11/27
 37 40  0  0  0  0  0  0  0  0999 V2000
   39.4085    5.6914    9.9249 C   0  0  1  0  0  0  0  0  0  0  0  0
   40.6549    5.5352   10.8180 C   0  0  1  0  0  0  0  0  0  0  0  0
   41.5361    4.3588   10.3685 C   0  0  0  0  0  0  0  0  0  0  0  0
   40.6968    3.0555   10.3159 C   0  0  1  0  0  0  0  0  0  0  0  0
   39.4921    3.2414    9.3740 C   0  0  1  0  0  0  0  0  0  0  0  0
   38.6591    1.8915    9.3282 C   0  0  1  0  0  0  0  0  0  0  0  0
   39.5548    0.7471    8.8267 C   0  0  1  0  0  0  0  0  0  0  0  0
   40.7719    0.6348    9.7767 C   0  0  2  0  0  0  0  0  0  0  0  0
   37.6644   -0.5580    7.7180 C   0  0  0  0  0  0  0  0  0  0  0  0
   41.4491    6.7734   10.8746 N   0  0  0  0  0  0  0  0  0  0  0  0
   38.7636   -0.5187    8.7325 N   0  0  0  0  0  0  0  0  0  0  0  0
   39.6943    6.2423    8.6257 O   0  0  0  0  0  0  0  0  0  0  0  0
   38.7044    4.3962    9.8506 O   0  0  0  0  0  0  0  0  0  0  0  0
   41.4930    1.8973    9.8498 O   0  0  0  0  0  0  0  0  0  0  0  0
   38.2387    1.5550   10.6338 O   0  0  0  0  0  0  0  0  0  0  0  0
   41.6926   -0.3687    9.3467 O   0  0  0  0  0  0  0  0  0  0  0  0
   42.7420   -0.6307   10.3077 C   0  0  2  0  0  0  0  0  0  0  0  0
   43.9540   -1.3581    9.7031 C   0  0  1  0  0  0  0  0  0  0  0  0
   43.5956   -2.8179    9.3174 C   0  0  2  0  0  0  0  0  0  0  0  0
   43.0836   -3.5597   10.5309 C   0  0  1  0  0  0  0  0  0  0  0  0
   41.8483   -2.8206   11.0978 C   0  0  1  0  0  0  0  0  0  0  0  0
   41.2927   -3.4772   12.3595 C   0  0  0  0  0  0  0  0  0  0  0  0
   42.7471   -4.9420   10.1318 N   0  0  0  0  0  0  0  0  0  0  0  0
   42.2154   -1.4337   11.4359 O   0  0  0  0  0  0  0  0  0  0  0  0
   44.4219   -0.5991    8.5787 O   0  0  0  0  0  0  0  0  0  0  0  0
   44.7649   -3.4887    8.8278 O   0  0  0  0  0  0  0  0  0  0  0  0
   40.4974   -4.5762   12.0021 O   0  0  0  0  0  0  0  0  0  0  0  0
   38.6655    6.9553    7.7611 C   0  0  1  0  0  0  0  0  0  0  0  0
   38.7887    8.4659    8.0594 C   0  0  1  0  0  0  0  0  0  0  0  0
   37.8236    9.2916    7.1746 C   0  0  2  0  0  0  0  0  0  0  0  0
   38.1220    9.0341    5.6928 C   0  0  1  0  0  0  0  0  0  0  0  0
   37.9659    7.5259    5.3706 C   0  0  0  0  0  0  0  0  0  0  0  0
   38.9406    6.7298    6.2448 C   0  0  2  0  0  0  0  0  0  0  0  0
   37.1887    9.8177    4.8528 N   0  0  0  0  0  0  0  0  0  0  0  0
   38.7763    5.3202    5.9000 N   0  0  0  0  0  0  0  0  0  0  0  0
   38.4591    8.7010    9.4458 O   0  0  0  0  0  0  0  0  0  0  0  0
   37.9981   10.6926    7.4765 O   0  0  0  0  0  0  0  0  0  0  0  0
  1  2  1  0  0  0  0
  1 12  1  6  0  0  0
  1 13  1  0  0  0  0
  2  3  1  0  0  0  0
  2 10  1  6  0  0  0
  4  3  1  6  0  0  0
  4  5  1  0  0  0  0
  4 14  1  0  0  0  0
  5  6  1  0  0  0  0
  5 13  1  1  0  0  0
  6  7  1  0  0  0  0
  6 15  1  1  0  0  0
  7  8  1  0  0  0  0
  7 11  1  1  0  0  0
  8 14  1  0  0  0  0
  8 16  1  6  0  0  0
  9 11  1  0  0  0  0
 17 16  1  6  0  0  0
 17 18  1  0  0  0  0
 17 24  1  0  0  0  0
 18 19  1  0  0  0  0
 18 25  1  6  0  0  0
 19 20  1  0  0  0  0
 19 26  1  1  0  0  0
 20 21  1  0  0  0  0
 20 23  1  6  0  0  0
 21 22  1  1  0  0  0
 21 24  1  0  0  0  0
 22 27  1  0  0  0  0
 28 12  1  1  0  0  0
 28 29  1  0  0  0  0
 28 33  1  0  0  0  0
 29 30  1  0  0  0  0
 29 36  1  1  0  0  0
 30 31  1  0  0  0  0
 30 37  1  6  0  0  0
 31 32  1  0  0  0  0
 31 34  1  6  0  0  0
 32 33  1  0  0  0  0
 33 35  1  1  0  0  0
M  END
>  <CHROM.1>
-157.02389430,65.85480556,-171.78577713,-162.08116369,-80.46401954,93.70982900
40.34397538,2.59370570,9.11914590,-1.98826575,0.63577891,3.13593473

>  <Name>
1yrj_lig

>  <RI>
224

>  <Rbt.Current_Directory>
/home/itssahil/PROJECTS/Mol_Feturizer/New_Systems/rnas/1yrj

>  <Rbt.Executable>
rbdock ($Id: //depot/dev/client3/rdock/2013.1/src/exe/rbdock.cxx#4 $)

>  <Rbt.Library>
libRbt.so (2013.1, Build901 2013/11/27)

>  <Rbt.Parameter_File>
/export/apps/rDock/src/rDock_2013.1_src/data/scripts/dock_solv.prm

>  <Rbt.Receptor>
prm/pocket_docking_2.prm

>  <SCORE>
-24.8164

>  <SCORE.INTER>
-22.1324

>  <SCORE.INTER.CONST>
1

>  <SCORE.INTER.POLAR>
-1.85359

>  <SCORE.INTER.ROT>
6

>  <SCORE.INTER.SOLV>
18.6011

>  <SCORE.INTER.VDW>
-22.3767

>  <SCORE.INTER.norm>
-0.598172

>  <SCORE.INTRA>
-2.68404

>  <SCORE.INTRA.DIHEDRAL>
-5.79008

>  <SCORE.INTRA.DIHEDRAL.0>
15.6389

>  <SCORE.INTRA.POLAR>
0

>  <SCORE.INTRA.POLAR.0>
0

>  <SCORE.INTRA.REPUL>
0

>  <SCORE.INTRA.REPUL.0>
0

>  <SCORE.INTRA.SOLV>
-0.999696

>  <SCORE.INTRA.SOLV.lig_0>
-90.9181

>  <SCORE.INTRA.VDW>
0.710849

>  <SCORE.INTRA.VDW.0>
-3.14158

>  <SCORE.INTRA.norm>
-0.0725416

>  <SCORE.RESTR>
0

>  <SCORE.RESTR.CAVITY>
0

>  <SCORE.RESTR.norm>
0

>  <SCORE.SYSTEM>
0

>  <SCORE.SYSTEM.CONST>
0

>  <SCORE.SYSTEM.DIHEDRAL>
0

>  <SCORE.SYSTEM.SOLV>
0

>  <SCORE.SYSTEM.norm>
0

>  <SCORE.heavy>
37

>  <SCORE.norm>
-0.670714

>  <RMSD>
0.843

$$$$
1yrj_lig
 OpenBabel11021811423D
libRbt.so/2013.1/901 2013/11/27
 37 40  0  0  0  0  0  0  0  0999 V2000
   39.2882    5.7183    9.8855 C   0  0  1  0  0  0  0  0  0  0  0  0
   40.5216    5.6143   10.8039 C   0  0  1  0  0  0  0  0  0  0  0  0
   41.4522    4.4657   10.3831 C   0  0  0  0  0  0  0  0  0  0  0  0
   40.6604    3.1332   10.3270 C   0  0  1  0  0  0  0  0  0  0  0  0
   39.4687    3.2678    9.3602 C   0  0  1  0  0  0  0  0  0  0  0  0
   38.6846    1.8891    9.3115 C   0  0  1  0  0  0  0  0  0  0  0  0
   39.6297    0.7725    8.8386 C   0  0  1  0  0  0  0  0  0  0  0  0
   40.8311    0.7118    9.8130 C   0  0  2  0  0  0  0  0  0  0  0  0
   38.6354   -1.0589    7.3676 C   0  0  0  0  0  0  0  0  0  0  0  0
   41.2705    6.8803   10.8638 N   0  0  0  0  0  0  0  0  0  0  0  0
   38.8854   -0.5213    8.7415 N   0  0  0  0  0  0  0  0  0  0  0  0
   39.5800    6.2671    8.5867 O   0  0  0  0  0  0  0  0  0  0  0  0
   38.6317    4.3984    9.8101 O   0  0  0  0  0  0  0  0  0  0  0  0
   41.5058    1.9996    9.8878 O   0  0  0  0  0  0  0  0  0  0  0  0
   38.2506    1.5498   10.6119 O   0  0  0  0  0  0  0  0  0  0  0  0
   41.7947   -0.2624    9.4107 O   0  0  0  0  0  0  0  0  0  0  0  0
   42.8320   -0.4805   10.3956 C   0  0  2  0  0  0  0  0  0  0  0  0
   44.1039   -1.1155    9.8102 C   0  0  1  0  0  0  0  0  0  0  0  0
   43.8499   -2.5854    9.3825 C   0  0  2  0  0  0  0  0  0  0  0  0
   43.3532   -3.3865   10.5642 C   0  0  1  0  0  0  0  0  0  0  0  0
   42.0583   -2.7404   11.1114 C   0  0  1  0  0  0  0  0  0  0  0  0
   41.5114   -3.4605   12.3419 C   0  0  0  0  0  0  0  0  0  0  0  0
   43.1164   -4.7775   10.1254 N   0  0  0  0  0  0  0  0  0  0  0  0
   42.3270   -1.3416   11.4902 O   0  0  0  0  0  0  0  0  0  0  0  0
   44.5530   -0.3021    8.7167 O   0  0  0  0  0  0  0  0  0  0  0  0
   45.0724   -3.1693    8.9121 O   0  0  0  0  0  0  0  0  0  0  0  0
   40.7964   -4.5977   11.9377 O   0  0  0  0  0  0  0  0  0  0  0  0
   38.8367    7.4461    7.9769 C   0  0  1  0  0  0  0  0  0  0  0  0
   39.7545    8.6813    8.1108 C   0  0  1  0  0  0  0  0  0  0  0  0
   39.1132    9.9285    7.4556 C   0  0  2  0  0  0  0  0  0  0  0  0
   38.8320    9.6551    5.9733 C   0  0  1  0  0  0  0  0  0  0  0  0
   37.8817    8.4396    5.8251 C   0  0  0  0  0  0  0  0  0  0  0  0
   38.5423    7.2141    6.4652 C   0  0  2  0  0  0  0  0  0  0  0  0
   38.2090   10.8473    5.3559 N   0  0  0  0  0  0  0  0  0  0  0  0
   37.6269    6.0898    6.2897 N   0  0  0  0  0  0  0  0  0  0  0  0
   39.9728    8.9567    9.5117 O   0  0  0  0  0  0  0  0  0  0  0  0
   40.0213   11.0432    7.5878 O   0  0  0  0  0  0  0  0  0  0  0  0
  1  2  1  0  0  0  0
  1 12  1  6  0  0  0
  1 13  1  0  0  0  0
  2  3  1  0  0  0  0
  2 10  1  6  0  0  0
  4  3  1  6  0  0  0
  4  5  1  0  0  0  0
  4 14  1  0  0  0  0
  5  6  1  0  0  0  0
  5 13  1  1  0  0  0
  6  7  1  0  0  0  0
  6 15  1  1  0  0  0
  7  8  1  0  0  0  0
  7 11  1  1  0  0  0
  8 14  1  0  0  0  0
  8 16  1  6  0  0  0
  9 11  1  0  0  0  0
 17 16  1  6  0  0  0
 17 18  1  0  0  0  0
 17 24  1  0  0  0  0
 18 19  1  0  0  0  0
 18 25  1  6  0  0  0
 19 20  1  0  0  0  0
 19 26  1  1  0  0  0
 20 21  1  0  0  0  0
 20 23  1  6  0  0  0
 21 22  1  1  0  0  0
 21 24  1  0  0  0  0
 22 27  1  0  0  0  0
 28 12  1  6  0  0  0
 28 29  1  0  0  0  0
 28 33  1  0  0  0  0
 29 30  1  0  0  0  0
 29 36  1  1  0  0  0
 30 31  1  0  0  0  0
 30 37  1  6  0  0  0
 31 32  1  0  0  0  0
 31 34  1  1  0  0  0
 32 33  1  0  0  0  0
 33 35  1  1  0  0  0
M  END
>  <CHROM.1>
-127.08001550,109.92535230,-171.66737061,-159.62739184,-80.53541829,103.31215049
40.59834962,2.79908810,9.18974295,1.87273309,-0.31915470,-0.14548304

>  <Name>
1yrj_lig

>  <RI>
224

>  <Rbt.Current_Directory>
/home/itssahil/PROJECTS/Mol_Feturizer/New_Systems/rnas/1yrj

>  <Rbt.Executable>
rbdock ($Id: //depot/dev/client3/rdock/2013.1/src/exe/rbdock.cxx#4 $)

>  <Rbt.Library>
libRbt.so (2013.1, Build901 2013/11/27)

>  <Rbt.Parameter_File>
/export/apps/rDock/src/rDock_2013.1_src/data/scripts/dock_solv.prm

>  <Rbt.Receptor>
prm/pocket_docking_2.prm

>  <SCORE>
-19.4212

>  <SCORE.INTER>
-20.4812

>  <SCORE.INTER.CONST>
1

>  <SCORE.INTER.POLAR>
-1.85359

>  <SCORE.INTER.ROT>
6

>  <SCORE.INTER.SOLV>
16.9079

>  <SCORE.INTER.VDW>
-20.7114

>  <SCORE.INTER.norm>
-0.553546

>  <SCORE.INTRA>
1.03302

>  <SCORE.INTRA.DIHEDRAL>
1.87646

>  <SCORE.INTRA.DIHEDRAL.0>
15.6389

>  <SCORE.INTRA.POLAR>
0

>  <SCORE.INTRA.POLAR.0>
0

>  <SCORE.INTRA.REPUL>
0

>  <SCORE.INTRA.REPUL.0>
0

>  <SCORE.INTRA.SOLV>
0.118393

>  <SCORE.INTRA.SOLV.lig_0>
-90.9181

>  <SCORE.INTRA.VDW>
0.0355895

>  <SCORE.INTRA.VDW.0>
-3.14158

>  <SCORE.INTRA.norm>
0.0279194

>  <SCORE.RESTR>
0.0270198

>  <SCORE.RESTR.CAVITY>
0.0270198

>  <SCORE.RESTR.norm>
0.000730264

>  <SCORE.SYSTEM>
0

>  <SCORE.SYSTEM.CONST>
0

>  <SCORE.SYSTEM.DIHEDRAL>
0

>  <SCORE.SYSTEM.SOLV>
0

>  <SCORE.SYSTEM.norm>
0

>  <SCORE.heavy>
37

>  <SCORE.norm>
-0.524897

>  <RMSD>
0.846

$$$$
1yrj_lig
 OpenBabel11021811423D
libRbt.so/2013.1/901 2013/11/27
 37 40  0  0  0  0  0  0  0  0999 V2000
   39.4185    5.7829   10.1803 C   0  0  1  0  0  0  0  0  0  0  0  0
   40.6505    5.5651   11.0805 C   0  0  1  0  0  0  0  0  0  0  0  0
   41.5477    4.4324   10.5569 C   0  0  0  0  0  0  0  0  0  0  0  0
   40.7190    3.1322   10.3883 C   0  0  1  0  0  0  0  0  0  0  0  0
   39.5294    3.3836    9.4423 C   0  0  1  0  0  0  0  0  0  0  0  0
   38.7071    2.0366    9.2771 C   0  0  1  0  0  0  0  0  0  0  0  0
   39.6196    0.9399    8.7043 C   0  0  1  0  0  0  0  0  0  0  0  0
   40.8209    0.7612    9.6642 C   0  0  2  0  0  0  0  0  0  0  0  0
   38.0192   -0.4129    7.2500 C   0  0  0  0  0  0  0  0  0  0  0  0
   41.4346    6.7998   11.2472 N   0  0  0  0  0  0  0  0  0  0  0  0
   38.8393   -0.3194    8.4981 N   0  0  0  0  0  0  0  0  0  0  0  0
   39.7227    6.4348    8.9330 O   0  0  0  0  0  0  0  0  0  0  0  0
   38.7253    4.4933    9.9930 O   0  0  0  0  0  0  0  0  0  0  0  0
   41.5315    2.0184    9.8479 O   0  0  0  0  0  0  0  0  0  0  0  0
   38.2666    1.5971   10.5449 O   0  0  0  0  0  0  0  0  0  0  0  0
   41.7561   -0.2004    9.1741 O   0  0  0  0  0  0  0  0  0  0  0  0
   42.8375   -0.4678   10.0975 C   0  0  2  0  0  0  0  0  0  0  0  0
   44.0137   -1.2219    9.4560 C   0  0  1  0  0  0  0  0  0  0  0  0
   43.6179   -2.6803    9.1029 C   0  0  2  0  0  0  0  0  0  0  0  0
   43.1414   -3.3990   10.3443 C   0  0  1  0  0  0  0  0  0  0  0  0
   41.9406   -2.6333   10.9487 C   0  0  1  0  0  0  0  0  0  0  0  0
   41.4237   -3.2657   12.2389 C   0  0  0  0  0  0  0  0  0  0  0  0
   42.7681   -4.7804    9.9759 N   0  0  0  0  0  0  0  0  0  0  0  0
   42.3421   -1.2486   11.2550 O   0  0  0  0  0  0  0  0  0  0  0  0
   44.4499   -0.4841    8.3051 O   0  0  0  0  0  0  0  0  0  0  0  0
   44.7568   -3.3756    8.5773 O   0  0  0  0  0  0  0  0  0  0  0  0
   40.8866   -4.5304   11.9562 O   0  0  0  0  0  0  0  0  0  0  0  0
   38.6803    6.7840    7.8814 C   0  0  1  0  0  0  0  0  0  0  0  0
   38.7420    8.3128    7.6696 C   0  0  1  0  0  0  0  0  0  0  0  0
   37.7592    8.7644    6.5622 C   0  0  2  0  0  0  0  0  0  0  0  0
   38.0885    8.0493    5.2464 C   0  0  1  0  0  0  0  0  0  0  0  0
   37.9943    6.5136    5.4349 C   0  0  0  0  0  0  0  0  0  0  0  0
   38.9856    6.0869    6.5226 C   0  0  2  0  0  0  0  0  0  0  0  0
   37.1385    8.4770    4.1952 N   0  0  0  0  0  0  0  0  0  0  0  0
   38.8798    4.6365    6.6574 N   0  0  0  0  0  0  0  0  0  0  0  0
   38.3837    8.9744    8.9024 O   0  0  0  0  0  0  0  0  0  0  0  0
   37.8762   10.1931    6.3896 O   0  0  0  0  0  0  0  0  0  0  0  0
  1  2  1  0  0  0  0
  1 12  1  6  0  0  0
  1 13  1  0  0  0  0
  2  3  1  0  0  0  0
  2 10  1  6  0  0  0
  4  3  1  6  0  0  0
  4  5  1  0  0  0  0
  4 14  1  0  0  0  0
  5  6  1  0  0  0  0
  5 13  1  1  0  0  0
  6  7  1  0  0  0  0
  6 15  1  1  0  0  0
  7  8  1  0  0  0  0
  7 11  1  1  0  0  0
  8 14  1  0  0  0  0
  8 16  1  6  0  0  0
  9 11  1  0  0  0  0
 17 16  1  6  0  0  0
 17 18  1  0  0  0  0
 17 24  1  0  0  0  0
 18 19  1  0  0  0  0
 18 25  1  6  0  0  0
 19 20  1  0  0  0  0
 19 26  1  1  0  0  0
 20 21  1  0  0  0  0
 20 23  1  6  0  0  0
 21 22  1  1  0  0  0
 21 24  1  0  0  0  0
 22 27  1  0  0  0  0
 28 12  1  1  0  0  0
 28 29  1  0  0  0  0
 28 33  1  0  0  0  0
 29 30  1  0  0  0  0
 29 36  1  1  0  0  0
 30 31  1  0  0  0  0
 30 37  1  6  0  0  0
 31 32  1  0  0  0  0
 31 34  1  6  0  0  0
 32 33  1  0  0  0  0
 33 35  1  1  0  0  0
M  END
>  <CHROM.1>
-178.95698939,81.39889082,-175.43547553,-165.86803960,-65.76185659,121.21056027
40.38979183,2.53866005,9.00265484,-2.32646562,1.03083318,-2.73831589

>  <Name>
1yrj_lig

>  <RI>
224

>  <Rbt.Current_Directory>
/home/itssahil/PROJECTS/Mol_Feturizer/New_Systems/rnas/1yrj

>  <Rbt.Executable>
rbdock ($Id: //depot/dev/client3/rdock/2013.1/src/exe/rbdock.cxx#4 $)

>  <Rbt.Library>
libRbt.so (2013.1, Build901 2013/11/27)

>  <Rbt.Parameter_File>
/export/apps/rDock/src/rDock_2013.1_src/data/scripts/dock_solv.prm

>  <Rbt.Receptor>
prm/pocket_docking_2.prm

>  <SCORE>
-26.0975

>  <SCORE.INTER>
-23.0663

>  <SCORE.INTER.CONST>
1

>  <SCORE.INTER.POLAR>
-1.85359

>  <SCORE.INTER.ROT>
6

>  <SCORE.INTER.SOLV>
17.0473

>  <SCORE.INTER.VDW>
-22.4814

>  <SCORE.INTER.norm>
-0.623415

>  <SCORE.INTRA>
-3.0312

>  <SCORE.INTRA.DIHEDRAL>
-6.84718

>  <SCORE.INTRA.DIHEDRAL.0>
15.6389

>  <SCORE.INTRA.POLAR>
0

>  <SCORE.INTRA.POLAR.0>
0

>  <SCORE.INTRA.REPUL>
0

>  <SCORE.INTRA.REPUL.0>
0

>  <SCORE.INTRA.SOLV>
0.452296

>  <SCORE.INTRA.SOLV.lig_0>
-90.9181

>  <SCORE.INTRA.VDW>
0.166245

>  <SCORE.INTRA.VDW.0>
-3.14158

>  <SCORE.INTRA.norm>
-0.0819242

>  <SCORE.RESTR>
0

>  <SCORE.RESTR.CAVITY>
0

>  <SCORE.RESTR.norm>
0

>  <SCORE.SYSTEM>
0

>  <SCORE.SYSTEM.CONST>
0

>  <SCORE.SYSTEM.DIHEDRAL>
0

>  <SCORE.SYSTEM.SOLV>
0

>  <SCORE.SYSTEM.norm>
0

>  <SCORE.heavy>
37

>  <SCORE.norm>
-0.705339

>  <RMSD>
0.867

$$$$
1yrj_lig
 OpenBabel11021811423D
libRbt.so/2013.1/901 2013/11/27
 37 40  0  0  0  0  0  0  0  0999 V2000
   39.3845    5.7517   10.1470 C   0  0  1  0  0  0  0  0  0  0  0  0
   40.6075    5.5255   11.0573 C   0  0  1  0  0  0  0  0  0  0  0  0
   41.5130    4.4015   10.5289 C   0  0  0  0  0  0  0  0  0  0  0  0
   40.6893    3.1016   10.3354 C   0  0  1  0  0  0  0  0  0  0  0  0
   39.5090    3.3621    9.3803 C   0  0  1  0  0  0  0  0  0  0  0  0
   38.6918    2.0153    9.1896 C   0  0  1  0  0  0  0  0  0  0  0  0
   39.6130    0.9281    8.6127 C   0  0  1  0  0  0  0  0  0  0  0  0
   40.8046    0.7402    9.5828 C   0  0  2  0  0  0  0  0  0  0  0  0
   38.5159   -1.1587    9.5864 C   0  0  0  0  0  0  0  0  0  0  0  0
   41.3868    6.7598   11.2477 N   0  0  0  0  0  0  0  0  0  0  0  0
   38.8379   -0.3304    8.3826 N   0  0  0  0  0  0  0  0  0  0  0  0
   39.7001    6.4199    8.9113 O   0  0  0  0  0  0  0  0  0  0  0  0
   38.6964    4.4629    9.9364 O   0  0  0  0  0  0  0  0  0  0  0  0
   41.5101    1.9966    9.7897 O   0  0  0  0  0  0  0  0  0  0  0  0
   38.2392    1.5590   10.4472 O   0  0  0  0  0  0  0  0  0  0  0  0
   41.7472   -0.2130    9.0904 O   0  0  0  0  0  0  0  0  0  0  0  0
   42.7771   -0.5465   10.0505 C   0  0  2  0  0  0  0  0  0  0  0  0
   43.9530   -1.3240    9.4371 C   0  0  1  0  0  0  0  0  0  0  0  0
   43.5218   -2.7561    9.0229 C   0  0  2  0  0  0  0  0  0  0  0  0
   42.9664   -3.4927   10.2202 C   0  0  1  0  0  0  0  0  0  0  0  0
   41.7680   -2.7016   10.7960 C   0  0  1  0  0  0  0  0  0  0  0  0
   41.1731   -3.3519   12.0429 C   0  0  0  0  0  0  0  0  0  0  0  0
   42.5612   -4.8483    9.7940 N   0  0  0  0  0  0  0  0  0  0  0  0
   42.2043   -1.3420   11.1614 O   0  0  0  0  0  0  0  0  0  0  0  0
   44.4648   -0.5696    8.3290 O   0  0  0  0  0  0  0  0  0  0  0  0
   44.6575   -3.4770    8.5254 O   0  0  0  0  0  0  0  0  0  0  0  0
   42.1599   -3.4474   13.0354 O   0  0  0  0  0  0  0  0  0  0  0  0
   38.6641    6.8043    7.8656 C   0  0  1  0  0  0  0  0  0  0  0  0
   38.7823    8.3289    7.6470 C   0  0  1  0  0  0  0  0  0  0  0  0
   37.8094    8.8130    6.5446 C   0  0  2  0  0  0  0  0  0  0  0  0
   38.1018    8.0808    5.2296 C   0  0  1  0  0  0  0  0  0  0  0  0
   37.9507    6.5505    5.4252 C   0  0  0  0  0  0  0  0  0  0  0  0
   38.9330    6.0908    6.5076 C   0  0  2  0  0  0  0  0  0  0  0  0
   37.1612    8.5402    4.1833 N   0  0  0  0  0  0  0  0  0  0  0  0
   38.7732    4.6460    6.6493 N   0  0  0  0  0  0  0  0  0  0  0  0
   38.4582    9.0084    8.8795 O   0  0  0  0  0  0  0  0  0  0  0  0
   37.9793   10.2356    6.3652 O   0  0  0  0  0  0  0  0  0  0  0  0
  1  2  1  0  0  0  0
  1 12  1  6  0  0  0
  1 13  1  0  0  0  0
  2  3  1  0  0  0  0
  2 10  1  6  0  0  0
  4  3  1  6  0  0  0
  4  5  1  0  0  0  0
  4 14  1  0  0  0  0
  5  6  1  0  0  0  0
  5 13  1  1  0  0  0
  6  7  1  0  0  0  0
  6 15  1  1  0  0  0
  7  8  1  0  0  0  0
  7 11  1  1  0  0  0
  8 14  1  0  0  0  0
  8 16  1  6  0  0  0
  9 11  1  0  0  0  0
 17 16  1  6  0  0  0
 17 18  1  0  0  0  0
 17 24  1  0  0  0  0
 18 19  1  0  0  0  0
 18 25  1  6  0  0  0
 19 20  1  0  0  0  0
 19 26  1  1  0  0  0
 20 21  1  0  0  0  0
 20 23  1  6  0  0  0
 21 22  1  1  0  0  0
 21 24  1  0  0  0  0
 22 27  1  0  0  0  0
 28 12  1  1  0  0  0
 28 29  1  0  0  0  0
 28 33  1  0  0  0  0
 29 30  1  0  0  0  0
 29 36  1  1  0  0  0
 30 31  1  0  0  0  0
 30 37  1  6  0  0  0
 31 32  1  0  0  0  0
 31 34  1  6  0  0  0
 32 33  1  0  0  0  0
 33 35  1  1  0  0  0
M  END
>  <CHROM.1>
-177.70326023,-76.56200205,-172.12602769,-167.48868621,59.17060031,122.99841973
40.40304722,2.52532752,9.04960047,-2.73880395,1.17950650,-2.28796121

>  <Name>
1yrj_lig

>  <RI>
224

>  <Rbt.Current_Directory>
/home/itssahil/PROJECTS/Mol_Feturizer/New_Systems/rnas/1yrj

>  <Rbt.Executable>
rbdock ($Id: //depot/dev/client3/rdock/2013.1/src/exe/rbdock.cxx#4 $)

>  <Rbt.Library>
libRbt.so (2013.1, Build901 2013/11/27)

>  <Rbt.Parameter_File>
/export/apps/rDock/src/rDock_2013.1_src/data/scripts/dock_solv.prm

>  <Rbt.Receptor>
prm/pocket_docking_2.prm

>  <SCORE>
-24.6409

>  <SCORE.INTER>
-22.7808

>  <SCORE.INTER.CONST>
1

>  <SCORE.INTER.POLAR>
-1.85359

>  <SCORE.INTER.ROT>
6

>  <SCORE.INTER.SOLV>
17.1126

>  <SCORE.INTER.VDW>
-22.3128

>  <SCORE.INTER.norm>
-0.615698

>  <SCORE.INTRA>
-1.86006

>  <SCORE.INTRA.DIHEDRAL>
-7.10243

>  <SCORE.INTRA.DIHEDRAL.0>
15.6389

>  <SCORE.INTRA.POLAR>
0

>  <SCORE.INTRA.POLAR.0>
0

>  <SCORE.INTRA.REPUL>
0

>  <SCORE.INTRA.REPUL.0>
0

>  <SCORE.INTRA.SOLV>
0.474133

>  <SCORE.INTRA.SOLV.lig_0>
-90.9181

>  <SCORE.INTRA.VDW>
1.45409

>  <SCORE.INTRA.VDW.0>
-3.14158

>  <SCORE.INTRA.norm>
-0.0502719

>  <SCORE.RESTR>
0

>  <SCORE.RESTR.CAVITY>
0

>  <SCORE.RESTR.norm>
0

>  <SCORE.SYSTEM>
0

>  <SCORE.SYSTEM.CONST>
0

>  <SCORE.SYSTEM.DIHEDRAL>
0

>  <SCORE.SYSTEM.SOLV>
0

>  <SCORE.SYSTEM.norm>
0

>  <SCORE.heavy>
37

>  <SCORE.norm>
-0.66597

>  <RMSD>
0.927

$$$$
1yrj_lig
 OpenBabel11021811423D
libRbt.so/2013.1/901 2013/11/27
 37 40  0  0  0  0  0  0  0  0999 V2000
   39.2992    5.9682    9.6841 C   0  0  1  0  0  0  0  0  0  0  0  0
   40.4995    5.8521   10.6439 C   0  0  1  0  0  0  0  0  0  0  0  0
   41.4034    4.6613   10.2871 C   0  0  0  0  0  0  0  0  0  0  0  0
   40.5694    3.3543   10.2453 C   0  0  1  0  0  0  0  0  0  0  0  0
   39.4131    3.4982    9.2376 C   0  0  1  0  0  0  0  0  0  0  0  0
   38.5850    2.1450    9.2048 C   0  0  1  0  0  0  0  0  0  0  0  0
   39.5061    0.9841    8.7955 C   0  0  1  0  0  0  0  0  0  0  0  0
   40.6742    0.9141    9.8089 C   0  0  2  0  0  0  0  0  0  0  0  0
   39.3554   -1.4289    7.9823 C   0  0  0  0  0  0  0  0  0  0  0  0
   41.2884    7.0941   10.6901 N   0  0  0  0  0  0  0  0  0  0  0  0
   38.7220   -0.2870    8.7131 N   0  0  0  0  0  0  0  0  0  0  0  0
   39.6490    6.4671    8.3796 O   0  0  0  0  0  0  0  0  0  0  0  0
   38.6012    4.6688    9.6271 O   0  0  0  0  0  0  0  0  0  0  0  0
   41.3892    2.1807    9.8669 O   0  0  0  0  0  0  0  0  0  0  0  0
   38.1001    1.8600   10.5003 O   0  0  0  0  0  0  0  0  0  0  0  0
   41.6164   -0.1030    9.4664 O   0  0  0  0  0  0  0  0  0  0  0  0
   42.6647   -0.2654   10.4504 C   0  0  2  0  0  0  0  0  0  0  0  0
   43.9719   -0.8207    9.8618 C   0  0  1  0  0  0  0  0  0  0  0  0
   43.8050   -2.3006    9.4253 C   0  0  2  0  0  0  0  0  0  0  0  0
   43.3564   -3.1366   10.6020 C   0  0  1  0  0  0  0  0  0  0  0  0
   42.0256   -2.5712   11.1525 C   0  0  1  0  0  0  0  0  0  0  0  0
   41.5220   -3.3296   12.3784 C   0  0  0  0  0  0  0  0  0  0  0  0
   43.2021   -4.5364   10.1549 N   0  0  0  0  0  0  0  0  0  0  0  0
   42.2113   -1.1613   11.5397 O   0  0  0  0  0  0  0  0  0  0  0  0
   44.3723    0.0242    8.7733 O   0  0  0  0  0  0  0  0  0  0  0  0
   45.0600   -2.8085    8.9520 O   0  0  0  0  0  0  0  0  0  0  0  0
   41.0544   -4.5927   11.9862 O   0  0  0  0  0  0  0  0  0  0  0  0
   38.8823    7.5644    7.6568 C   0  0  1  0  0  0  0  0  0  0  0  0
   39.2671    8.9035    8.3236 C   0  0  1  0  0  0  0  0  0  0  0  0
   38.5868   10.0985    7.6127 C   0  0  2  0  0  0  0  0  0  0  0  0
   38.9897   10.1262    6.1335 C   0  0  1  0  0  0  0  0  0  0  0  0
   38.5760    8.8019    5.4422 C   0  0  0  0  0  0  0  0  0  0  0  0
   39.2726    7.6354    6.1507 C   0  0  2  0  0  0  0  0  0  0  0  0
   38.3272   11.2640    5.4576 N   0  0  0  0  0  0  0  0  0  0  0  0
   38.8729    6.4116    5.4612 N   0  0  0  0  0  0  0  0  0  0  0  0
   38.8398    8.8831    9.7031 O   0  0  0  0  0  0  0  0  0  0  0  0
   38.9996   11.3217    8.2592 O   0  0  0  0  0  0  0  0  0  0  0  0
  1  2  1  0  0  0  0
  1 12  1  6  0  0  0
  1 13  1  0  0  0  0
  2  3  1  0  0  0  0
  2 10  1  6  0  0  0
  4  3  1  6  0  0  0
  4  5  1  0  0  0  0
  4 14  1  0  0  0  0
  5  6  1  0  0  0  0
  5 13  1  1  0  0  0
  6  7  1  0  0  0  0
  6 15  1  1  0  0  0
  7  8  1  0  0  0  0
  7 11  1  1  0  0  0
  8 14  1  0  0  0  0
  8 16  1  6  0  0  0
  9 11  1  0  0  0  0
 17 16  1  6  0  0  0
 17 18  1  0  0  0  0
 17 24  1  0  0  0  0
 18 19  1  0  0  0  0
 18 25  1  6  0  0  0
 19 20  1  0  0  0  0
 19 26  1  1  0  0  0
 20 21  1  0  0  0  0
 20 23  1  6  0  0  0
 21 22  1  1  0  0  0
 21 24  1  0  0  0  0
 22 27  1  0  0  0  0
 28 12  1  1  0  0  0
 28 29  1  0  0  0  0
 28 33  1  0  0  0  0
 29 30  1  0  0  0  0
 29 36  1  1  0  0  0
 30 31  1  0  0  0  0
 30 37  1  1  0  0  0
 31 32  1  0  0  0  0
 31 34  1  6  0  0  0
 32 33  1  0  0  0  0
 33 35  1  6  0  0  0
M  END
>  <CHROM.1>
-133.04550934,163.90897795,-175.40599300,-153.29824829,-71.84820166,75.79407064
40.56706479,3.01699165,9.17472277,1.85944933,0.08866489,-0.27113828

>  <Name>
1yrj_lig

>  <RI>
224

>  <Rbt.Current_Directory>
/home/itssahil/PROJECTS/Mol_Feturizer/New_Systems/rnas/1yrj

>  <Rbt.Executable>
rbdock ($Id: //depot/dev/client3/rdock/2013.1/src/exe/rbdock.cxx#4 $)

>  <Rbt.Library>
libRbt.so (2013.1, Build901 2013/11/27)

>  <Rbt.Parameter_File>
/export/apps/rDock/src/rDock_2013.1_src/data/scripts/dock_solv.prm

>  <Rbt.Receptor>
prm/pocket_docking_2.prm

>  <SCORE>
-20.2296

>  <SCORE.INTER>
-18.6735

>  <SCORE.INTER.CONST>
1

>  <SCORE.INTER.POLAR>
-1.85359

>  <SCORE.INTER.ROT>
6

>  <SCORE.INTER.SOLV>
15.9562

>  <SCORE.INTER.VDW>
-19.1891

>  <SCORE.INTER.norm>
-0.504688

>  <SCORE.INTRA>
-1.9185

>  <SCORE.INTRA.DIHEDRAL>
-4.33769

>  <SCORE.INTRA.DIHEDRAL.0>
15.6389

>  <SCORE.INTRA.POLAR>
0

>  <SCORE.INTRA.POLAR.0>
0

>  <SCORE.INTRA.REPUL>
0

>  <SCORE.INTRA.REPUL.0>
0

>  <SCORE.INTRA.SOLV>
-0.343733

>  <SCORE.INTRA.SOLV.lig_0>
-90.9181

>  <SCORE.INTRA.VDW>
0.422212

>  <SCORE.INTRA.VDW.0>
-3.14158

>  <SCORE.INTRA.norm>
-0.0518513

>  <SCORE.RESTR>
0.362343

>  <SCORE.RESTR.CAVITY>
0.362343

>  <SCORE.RESTR.norm>
0.00979305

>  <SCORE.SYSTEM>
0

>  <SCORE.SYSTEM.CONST>
0

>  <SCORE.SYSTEM.DIHEDRAL>
0

>  <SCORE.SYSTEM.SOLV>
0

>  <SCORE.SYSTEM.norm>
0

>  <SCORE.heavy>
37

>  <SCORE.norm>
-0.546746

>  <RMSD>
0.952

$$$$
1yrj_lig
 OpenBabel11021811423D
libRbt.so/2013.1/901 2013/11/27
 37 40  0  0  0  0  0  0  0  0999 V2000
   39.3480    5.9988   10.0666 C   0  0  1  0  0  0  0  0  0  0  0  0
   40.4879    5.8090   11.0864 C   0  0  1  0  0  0  0  0  0  0  0  0
   41.4542    4.6916   10.6620 C   0  0  0  0  0  0  0  0  0  0  0  0
   40.6711    3.3749   10.4199 C   0  0  1  0  0  0  0  0  0  0  0  0
   39.5772    3.5989    9.3586 C   0  0  1  0  0  0  0  0  0  0  0  0
   38.8011    2.2355    9.1209 C   0  0  1  0  0  0  0  0  0  0  0  0
   39.7867    1.1542    8.6488 C   0  0  1  0  0  0  0  0  0  0  0  0
   40.8894    1.0031    9.7247 C   0  0  2  0  0  0  0  0  0  0  0  0
   38.3284   -0.2187    7.0692 C   0  0  0  0  0  0  0  0  0  0  0  0
   41.2281    7.0594   11.3226 N   0  0  0  0  0  0  0  0  0  0  0  0
   39.0547   -0.1210    8.3739 N   0  0  0  0  0  0  0  0  0  0  0  0
   39.7628    6.6510    8.8517 O   0  0  0  0  0  0  0  0  0  0  0  0
   38.7014    4.6952    9.8194 O   0  0  0  0  0  0  0  0  0  0  0  0
   41.5542    2.2746    9.9703 O   0  0  0  0  0  0  0  0  0  0  0  0
   38.2447    1.7932   10.3413 O   0  0  0  0  0  0  0  0  0  0  0  0
   41.8868    0.0577    9.3363 O   0  0  0  0  0  0  0  0  0  0  0  0
   42.9248   -0.1180   10.3289 C   0  0  2  0  0  0  0  0  0  0  0  0
   44.2669   -0.5730    9.7327 C   0  0  1  0  0  0  0  0  0  0  0  0
   44.1786   -2.0281    9.2007 C   0  0  2  0  0  0  0  0  0  0  0  0
   43.7505   -2.9576   10.3132 C   0  0  1  0  0  0  0  0  0  0  0  0
   42.3851   -2.4913   10.8715 C   0  0  1  0  0  0  0  0  0  0  0  0
   41.8976   -3.3491   12.0369 C   0  0  0  0  0  0  0  0  0  0  0  0
   43.6711   -4.3317    9.7758 N   0  0  0  0  0  0  0  0  0  0  0  0
   42.4963   -1.1018   11.3503 O   0  0  0  0  0  0  0  0  0  0  0  0
   44.6448    0.3575    8.7078 O   0  0  0  0  0  0  0  0  0  0  0  0
   45.4642   -2.4456    8.7215 O   0  0  0  0  0  0  0  0  0  0  0  0
   40.8371   -2.6977   12.6842 O   0  0  0  0  0  0  0  0  0  0  0  0
   38.9517    7.7280    8.1470 C   0  0  1  0  0  0  0  0  0  0  0  0
   39.8127    8.2539    6.9774 C   0  0  1  0  0  0  0  0  0  0  0  0
   39.0457    9.3142    6.1505 C   0  0  2  0  0  0  0  0  0  0  0  0
   37.7467    8.7114    5.6023 C   0  0  1  0  0  0  0  0  0  0  0  0
   36.8556    8.2124    6.7683 C   0  0  0  0  0  0  0  0  0  0  0  0
   37.6273    7.1535    7.5627 C   0  0  2  0  0  0  0  0  0  0  0  0
   37.0132    9.7333    4.8224 N   0  0  0  0  0  0  0  0  0  0  0  0
   36.7504    6.6970    8.6376 N   0  0  0  0  0  0  0  0  0  0  0  0
   41.0102    8.8614    7.5094 O   0  0  0  0  0  0  0  0  0  0  0  0
   39.8851    9.7513    5.0601 O   0  0  0  0  0  0  0  0  0  0  0  0
  1  2  1  0  0  0  0
  1 12  1  6  0  0  0
  1 13  1  0  0  0  0
  2  3  1  0  0  0  0
  2 10  1  6  0  0  0
  4  3  1  6  0  0  0
  4  5  1  0  0  0  0
  4 14  1  0  0  0  0
  5  6  1  0  0  0  0
  5 13  1  1  0  0  0
  6  7  1  0  0  0  0
  6 15  1  1  0  0  0
  7  8  1  0  0  0  0
  7 11  1  1  0  0  0
  8 14  1  0  0  0  0
  8 16  1  6  0  0  0
  9 11  1  0  0  0  0
 17 16  1  6  0  0  0
 17 18  1  0  0  0  0
 17 24  1  0  0  0  0
 18 19  1  0  0  0  0
 18 25  1  6  0  0  0
 19 20  1  0  0  0  0
 19 26  1  1  0  0  0
 20 21  1  0  0  0  0
 20 23  1  6  0  0  0
 21 22  1  1  0  0  0
 21 24  1  0  0  0  0
 22 27  1  0  0  0  0
 28 12  1  6  0  0  0
 28 29  1  0  0  0  0
 28 33  1  0  0  0  0
 29 30  1  0  0  0  0
 29 36  1  1  0  0  0
 30 31  1  0  0  0  0
 30 37  1  6  0  0  0
 31 32  1  0  0  0  0
 31 34  1  1  0  0  0
 32 33  1  0  0  0  0
 33 35  1  1  0  0  0
M  END
>  <CHROM.1>
-137.91877413,79.48938550,-179.32354778,-153.45223242,166.33653680,174.40075015
40.59310375,3.01212035,9.06544307,1.94413264,0.08439688,-0.32699772

>  <Name>
1yrj_lig

>  <RI>
0

>  <Rbt.Current_Directory>
/home/itssahil/PROJECTS/Mol_Feturizer/New_Systems/rnas/1yrj

>  <Rbt.Executable>
rbdock ($Id: //depot/dev/client3/rdock/2013.1/src/exe/rbdock.cxx#4 $)

>  <Rbt.Library>
libRbt.so (2013.1, Build901 2013/11/27)

>  <Rbt.Parameter_File>
/export/apps/rDock/src/rDock_2013.1_src/data/scripts/dock_solv.prm

>  <Rbt.Receptor>
prm/pocket_docking_7.prm

>  <SCORE>
-26.6323

>  <SCORE.INTER>
-23.7674

>  <SCORE.INTER.CONST>
1

>  <SCORE.INTER.POLAR>
-2.36304

>  <SCORE.INTER.ROT>
6

>  <SCORE.INTER.SOLV>
20.7807

>  <SCORE.INTER.VDW>
-22.495

>  <SCORE.INTER.norm>
-0.642363

>  <SCORE.INTRA>
-2.86486

>  <SCORE.INTRA.DIHEDRAL>
-5.88447

>  <SCORE.INTRA.DIHEDRAL.0>
15.6389

>  <SCORE.INTRA.POLAR>
0

>  <SCORE.INTRA.POLAR.0>
0

>  <SCORE.INTRA.REPUL>
0

>  <SCORE.INTRA.REPUL.0>
0

>  <SCORE.INTRA.SOLV>
-1.13713

>  <SCORE.INTRA.SOLV.lig_0>
-90.9181

>  <SCORE.INTRA.VDW>
0.645939

>  <SCORE.INTRA.VDW.0>
-3.14158

>  <SCORE.INTRA.norm>
-0.0774286

>  <SCORE.RESTR>
0

>  <SCORE.RESTR.CAVITY>
0

>  <SCORE.RESTR.norm>
0

>  <SCORE.SYSTEM>
0

>  <SCORE.SYSTEM.CONST>
0

>  <SCORE.SYSTEM.DIHEDRAL>
0

>  <SCORE.SYSTEM.SOLV>
0

>  <SCORE.SYSTEM.norm>
0

>  <SCORE.heavy>
37

>  <SCORE.norm>
-0.719791

>  <RMSD>
0.956

$$$$
1yrj_lig
 OpenBabel11021811423D
libRbt.so/2013.1/901 2013/11/27
 37 40  0  0  0  0  0  0  0  0999 V2000
   39.3366    5.5614    9.6578 C   0  0  1  0  0  0  0  0  0  0  0  0
   40.6034    5.4543   10.5291 C   0  0  1  0  0  0  0  0  0  0  0  0
   41.4401    4.2157   10.1712 C   0  0  0  0  0  0  0  0  0  0  0  0
   40.5656    2.9381   10.2646 C   0  0  1  0  0  0  0  0  0  0  0  0
   39.3399    3.0689    9.3407 C   0  0  1  0  0  0  0  0  0  0  0  0
   38.4706    1.7454    9.4453 C   0  0  1  0  0  0  0  0  0  0  0  0
   39.3212    0.5334    9.0321 C   0  0  1  0  0  0  0  0  0  0  0  0
   40.5615    0.4761    9.9566 C   0  0  2  0  0  0  0  0  0  0  0  0
   39.0872   -1.9436    8.4695 C   0  0  0  0  0  0  0  0  0  0  0  0
   41.4312    6.6688   10.4471 N   0  0  0  0  0  0  0  0  0  0  0  0
   38.4945   -0.7123    9.0793 N   0  0  0  0  0  0  0  0  0  0  0  0
   39.5997    5.9786    8.3051 O   0  0  0  0  0  0  0  0  0  0  0  0
   38.5968    4.2859    9.7254 O   0  0  0  0  0  0  0  0  0  0  0  0
   41.3174    1.7184    9.8905 O   0  0  0  0  0  0  0  0  0  0  0  0
   38.0788    1.5461   10.7874 O   0  0  0  0  0  0  0  0  0  0  0  0
   41.4428   -0.5898    9.6005 O   0  0  0  0  0  0  0  0  0  0  0  0
   42.5028   -0.8003   10.5626 C   0  0  2  0  0  0  0  0  0  0  0  0
   43.8351   -1.2182    9.9194 C   0  0  1  0  0  0  0  0  0  0  0  0
   43.7458   -2.6494    9.3261 C   0  0  2  0  0  0  0  0  0  0  0  0
   43.3479   -3.6298   10.4056 C   0  0  1  0  0  0  0  0  0  0  0  0
   41.9913   -3.1992   11.0120 C   0  0  1  0  0  0  0  0  0  0  0  0
   41.5345   -4.1109   12.1487 C   0  0  0  0  0  0  0  0  0  0  0  0
   43.2667   -4.9798    9.8103 N   0  0  0  0  0  0  0  0  0  0  0  0
   42.1029   -1.8311   11.5487 O   0  0  0  0  0  0  0  0  0  0  0  0
   44.1848   -0.2409    8.9285 O   0  0  0  0  0  0  0  0  0  0  0  0
   45.0239   -3.0354    8.8025 O   0  0  0  0  0  0  0  0  0  0  0  0
   42.3415   -3.8922   13.2752 O   0  0  0  0  0  0  0  0  0  0  0  0
   38.6193    6.7740    7.4563 C   0  0  1  0  0  0  0  0  0  0  0  0
   38.6761    8.2377    7.9465 C   0  0  1  0  0  0  0  0  0  0  0  0
   37.7575    9.1486    7.0965 C   0  0  2  0  0  0  0  0  0  0  0  0
   38.1744    9.0835    5.6224 C   0  0  1  0  0  0  0  0  0  0  0  0
   38.0866    7.6245    5.1063 C   0  0  0  0  0  0  0  0  0  0  0  0
   39.0147    6.7444    5.9502 C   0  0  2  0  0  0  0  0  0  0  0  0
   37.2854    9.9476    4.8142 N   0  0  0  0  0  0  0  0  0  0  0  0
   38.9176    5.3859    5.4231 N   0  0  0  0  0  0  0  0  0  0  0  0
   38.2359    8.2920    9.3210 O   0  0  0  0  0  0  0  0  0  0  0  0
   37.8684   10.5042    7.5809 O   0  0  0  0  0  0  0  0  0  0  0  0
  1  2  1  0  0  0  0
  1 12  1  6  0  0  0
  1 13  1  0  0  0  0
  2  3  1  0  0  0  0
  2 10  1  6  0  0  0
  4  3  1  6  0  0  0
  4  5  1  0  0  0  0
  4 14  1  0  0  0  0
  5  6  1  0  0  0  0
  5 13  1  1  0  0  0
  6  7  1  0  0  0  0
  6 15  1  1  0  0  0
  7  8  1  0  0  0  0
  7 11  1  1  0  0  0
  8 14  1  0  0  0  0
  8 16  1  6  0  0  0
  9 11  1  0  0  0  0
 17 16  1  6  0  0  0
 17 18  1  0  0  0  0
 17 24  1  0  0  0  0
 18 19  1  0  0  0  0
 18 25  1  6  0  0  0
 19 20  1  0  0  0  0
 19 26  1  1  0  0  0
 20 21  1  0  0  0  0
 20 23  1  6  0  0  0
 21 22  1  1  0  0  0
 21 24  1  0  0  0  0
 22 27  1  0  0  0  0
 28 12  1  1  0  0  0
 28 29  1  0  0  0  0
 28 33  1  0  0  0  0
 29 30  1  0  0  0  0
 29 36  1  1  0  0  0
 30 31  1  0  0  0  0
 30 37  1  1  0  0  0
 31 32  1  0  0  0  0
 31 34  1  6  0  0  0
 32 33  1  0  0  0  0
 33 35  1  6  0  0  0
M  END
>  <CHROM.1>
-149.89567506,169.05293275,-171.10258084,-144.35970632,71.53531071,76.78473711
40.39986125,2.47836780,9.13169193,2.34778076,1.06182359,-1.00603233

>  <Name>
1yrj_lig

>  <RI>
224

>  <Rbt.Current_Directory>
/home/itssahil/PROJECTS/Mol_Feturizer/New_Systems/rnas/1yrj

>  <Rbt.Executable>
rbdock ($Id: //depot/dev/client3/rdock/2013.1/src/exe/rbdock.cxx#4 $)

>  <Rbt.Library>
libRbt.so (2013.1, Build901 2013/11/27)

>  <Rbt.Parameter_File>
/export/apps/rDock/src/rDock_2013.1_src/data/scripts/dock_solv.prm

>  <Rbt.Receptor>
prm/pocket_docking_2.prm

>  <SCORE>
-21.0642

>  <SCORE.INTER>
-18.4273

>  <SCORE.INTER.CONST>
1

>  <SCORE.INTER.POLAR>
-1.85359

>  <SCORE.INTER.ROT>
6

>  <SCORE.INTER.SOLV>
20.2063

>  <SCORE.INTER.VDW>
-20.4417

>  <SCORE.INTER.norm>
-0.498036

>  <SCORE.INTRA>
-2.63687

>  <SCORE.INTRA.DIHEDRAL>
-5.10054

>  <SCORE.INTRA.DIHEDRAL.0>
15.6389

>  <SCORE.INTRA.POLAR>
0

>  <SCORE.INTRA.POLAR.0>
0

>  <SCORE.INTRA.REPUL>
0

>  <SCORE.INTRA.REPUL.0>
0

>  <SCORE.INTRA.SOLV>
-1.46713

>  <SCORE.INTRA.SOLV.lig_0>
-90.9181

>  <SCORE.INTRA.VDW>
0.646969

>  <SCORE.INTRA.VDW.0>
-3.14158

>  <SCORE.INTRA.norm>
-0.0712667

>  <SCORE.RESTR>
0

>  <SCORE.RESTR.CAVITY>
0

>  <SCORE.RESTR.norm>
0

>  <SCORE.SYSTEM>
0

>  <SCORE.SYSTEM.CONST>
0

>  <SCORE.SYSTEM.DIHEDRAL>
0

>  <SCORE.SYSTEM.SOLV>
0

>  <SCORE.SYSTEM.norm>
0

>  <SCORE.heavy>
37

>  <SCORE.norm>
-0.569303

>  <RMSD>
0.971

$$$$
1yrj_lig
 OpenBabel11021811423D
libRbt.so/2013.1/901 2013/11/27
 37 40  0  0  0  0  0  0  0  0999 V2000
   39.1620    5.9363   10.1750 C   0  0  1  0  0  0  0  0  0  0  0  0
   40.3650    5.8277   11.1323 C   0  0  1  0  0  0  0  0  0  0  0  0
   41.3746    4.7680   10.6633 C   0  0  0  0  0  0  0  0  0  0  0  0
   40.6632    3.4029   10.4733 C   0  0  1  0  0  0  0  0  0  0  0  0
   39.5017    3.5481    9.4718 C   0  0  1  0  0  0  0  0  0  0  0  0
   38.8003    2.1369    9.2860 C   0  0  1  0  0  0  0  0  0  0  0  0
   39.8244    1.1139    8.7681 C   0  0  1  0  0  0  0  0  0  0  0  0
   40.9910    1.0423    9.7832 C   0  0  2  0  0  0  0  0  0  0  0  0
   38.5150   -0.4228    7.2091 C   0  0  0  0  0  0  0  0  0  0  0  0
   41.0374    7.1238   11.3192 N   0  0  0  0  0  0  0  0  0  0  0  0
   39.1595   -0.2068    8.5422 N   0  0  0  0  0  0  0  0  0  0  0  0
   39.4689    6.6005    8.9349 O   0  0  0  0  0  0  0  0  0  0  0  0
   38.5854    4.5927    9.9724 O   0  0  0  0  0  0  0  0  0  0  0  0
   41.5876    2.3549    9.9835 O   0  0  0  0  0  0  0  0  0  0  0  0
   38.3394    1.6734   10.5380 O   0  0  0  0  0  0  0  0  0  0  0  0
   42.0229    0.1565    9.3472 O   0  0  0  0  0  0  0  0  0  0  0  0
   43.0062   -0.1231   10.3712 C   0  0  2  0  0  0  0  0  0  0  0  0
   44.3412   -0.6385    9.8093 C   0  0  1  0  0  0  0  0  0  0  0  0
   44.1854   -2.0632    9.2143 C   0  0  2  0  0  0  0  0  0  0  0  0
   43.6552   -3.0064   10.2698 C   0  0  1  0  0  0  0  0  0  0  0  0
   42.2992   -2.4768   10.7935 C   0  0  1  0  0  0  0  0  0  0  0  0
   41.7119   -3.3469   11.9026 C   0  0  0  0  0  0  0  0  0  0  0  0
   43.5135   -4.3508    9.6732 N   0  0  0  0  0  0  0  0  0  0  0  0
   42.4760   -1.1169   11.3336 O   0  0  0  0  0  0  0  0  0  0  0  0
   44.8178    0.3055    8.8394 O   0  0  0  0  0  0  0  0  0  0  0  0
   45.4616   -2.5422    8.7685 O   0  0  0  0  0  0  0  0  0  0  0  0
   40.7059   -2.6340   12.5716 O   0  0  0  0  0  0  0  0  0  0  0  0
   38.5207    6.6602    7.7467 C   0  0  1  0  0  0  0  0  0  0  0  0
   38.3490    8.1498    7.3759 C   0  0  1  0  0  0  0  0  0  0  0  0
   37.4488    8.3155    6.1275 C   0  0  2  0  0  0  0  0  0  0  0  0
   38.0544    7.5567    4.9408 C   0  0  1  0  0  0  0  0  0  0  0  0
   38.1983    6.0524    5.2858 C   0  0  0  0  0  0  0  0  0  0  0  0
   39.1051    5.9108    6.5128 C   0  0  2  0  0  0  0  0  0  0  0  0
   37.1833    7.7101    3.7541 N   0  0  0  0  0  0  0  0  0  0  0  0
   39.2300    4.4832    6.7943 N   0  0  0  0  0  0  0  0  0  0  0  0
   37.7344    8.8436    8.4835 O   0  0  0  0  0  0  0  0  0  0  0  0
   37.3433    9.7206    5.8124 O   0  0  0  0  0  0  0  0  0  0  0  0
  1  2  1  0  0  0  0
  1 12  1  6  0  0  0
  1 13  1  0  0  0  0
  2  3  1  0  0  0  0
  2 10  1  6  0  0  0
  4  3  1  6  0  0  0
  4  5  1  0  0  0  0
  4 14  1  0  0  0  0
  5  6  1  0  0  0  0
  5 13  1  1  0  0  0
  6  7  1  0  0  0  0
  6 15  1  1  0  0  0
  7  8  1  0  0  0  0
  7 11  1  1  0  0  0
  8 14  1  0  0  0  0
  8 16  1  6  0  0  0
  9 11  1  0  0  0  0
 17 16  1  6  0  0  0
 17 18  1  0  0  0  0
 17 24  1  0  0  0  0
 18 19  1  0  0  0  0
 18 25  1  6  0  0  0
 19 20  1  0  0  0  0
 19 26  1  1  0  0  0
 20 21  1  0  0  0  0
 20 23  1  6  0  0  0
 21 22  1  1  0  0  0
 21 24  1  0  0  0  0
 22 27  1  0  0  0  0
 28 12  1  1  0  0  0
 28 29  1  0  0  0  0
 28 33  1  0  0  0  0
 29 30  1  0  0  0  0
 29 36  1  1  0  0  0
 30 31  1  0  0  0  0
 30 37  1  6  0  0  0
 31 32  1  0  0  0  0
 31 34  1  6  0  0  0
 32 33  1  0  0  0  0
 33 35  1  1  0  0  0
M  END
>  <CHROM.1>
170.87203813,86.85271620,-169.37706741,-159.57016224,163.85241331,125.76854591
40.46106718,2.70798944,8.99192880,-2.79958368,1.10618239,-2.27492137

>  <Name>
1yrj_lig

>  <RI>
0

>  <Rbt.Current_Directory>
/home/itssahil/PROJECTS/Mol_Feturizer/New_Systems/rnas/1yrj

>  <Rbt.Executable>
rbdock ($Id: //depot/dev/client3/rdock/2013.1/src/exe/rbdock.cxx#4 $)

>  <Rbt.Library>
libRbt.so (2013.1, Build901 2013/11/27)

>  <Rbt.Parameter_File>
/export/apps/rDock/src/rDock_2013.1_src/data/scripts/dock_solv.prm

>  <Rbt.Receptor>
prm/pocket_docking_7.prm

>  <SCORE>
-29.8508

>  <SCORE.INTER>
-27.9106

>  <SCORE.INTER.CONST>
1

>  <SCORE.INTER.POLAR>
-2.39229

>  <SCORE.INTER.ROT>
6

>  <SCORE.INTER.SOLV>
18.4445

>  <SCORE.INTER.VDW>
-24.3809

>  <SCORE.INTER.norm>
-0.75434

>  <SCORE.INTRA>
-1.9402

>  <SCORE.INTRA.DIHEDRAL>
-4.32118

>  <SCORE.INTRA.DIHEDRAL.0>
15.6389

>  <SCORE.INTRA.POLAR>
0

>  <SCORE.INTRA.POLAR.0>
0

>  <SCORE.INTRA.REPUL>
0

>  <SCORE.INTRA.REPUL.0>
0

>  <SCORE.INTRA.SOLV>
0.363819

>  <SCORE.INTRA.SOLV.lig_0>
-90.9181

>  <SCORE.INTRA.VDW>
0.038478

>  <SCORE.INTRA.VDW.0>
-3.14158

>  <SCORE.INTRA.norm>
-0.0524379

>  <SCORE.RESTR>
0

>  <SCORE.RESTR.CAVITY>
0

>  <SCORE.RESTR.norm>
0

>  <SCORE.SYSTEM>
0

>  <SCORE.SYSTEM.CONST>
0

>  <SCORE.SYSTEM.DIHEDRAL>
0

>  <SCORE.SYSTEM.SOLV>
0

>  <SCORE.SYSTEM.norm>
0

>  <SCORE.heavy>
37

>  <SCORE.norm>
-0.806778

>  <RMSD>
0.996

$$$$
1yrj_lig
 OpenBabel11021811423D
libRbt.so/2013.1/901 2013/11/27
 37 40  0  0  0  0  0  0  0  0999 V2000
   39.1049    5.8881   10.1187 C   0  0  1  0  0  0  0  0  0  0  0  0
   40.2919    5.7912   11.0969 C   0  0  1  0  0  0  0  0  0  0  0  0
   41.3143    4.7333   10.6518 C   0  0  0  0  0  0  0  0  0  0  0  0
   40.6124    3.3637   10.4584 C   0  0  1  0  0  0  0  0  0  0  0  0
   39.4675    3.4972    9.4365 C   0  0  1  0  0  0  0  0  0  0  0  0
   38.7758    2.0815    9.2478 C   0  0  1  0  0  0  0  0  0  0  0  0
   39.8133    1.0602    8.7539 C   0  0  1  0  0  0  0  0  0  0  0  0
   40.9628    1.0004    9.7890 C   0  0  2  0  0  0  0  0  0  0  0  0
   38.3414   -0.4123    7.2801 C   0  0  0  0  0  0  0  0  0  0  0  0
   40.9552    7.0916   11.2870 N   0  0  0  0  0  0  0  0  0  0  0  0
   39.1584   -0.2650    8.5251 N   0  0  0  0  0  0  0  0  0  0  0  0
   39.4298    6.5459    8.8798 O   0  0  0  0  0  0  0  0  0  0  0  0
   38.5380    4.5406    9.9148 O   0  0  0  0  0  0  0  0  0  0  0  0
   41.5498    2.3171    9.9911 O   0  0  0  0  0  0  0  0  0  0  0  0
   38.2959    1.6237   10.4946 O   0  0  0  0  0  0  0  0  0  0  0  0
   42.0060    0.1167    9.3762 O   0  0  0  0  0  0  0  0  0  0  0  0
   42.9502   -0.1843   10.4305 C   0  0  2  0  0  0  0  0  0  0  0  0
   44.2627   -0.7976    9.9159 C   0  0  1  0  0  0  0  0  0  0  0  0
   44.0333   -2.2308    9.3666 C   0  0  2  0  0  0  0  0  0  0  0  0
   43.4266   -3.1029   10.4418 C   0  0  1  0  0  0  0  0  0  0  0  0
   42.0947   -2.4756   10.9172 C   0  0  1  0  0  0  0  0  0  0  0  0
   41.4343   -3.2694   12.0422 C   0  0  0  0  0  0  0  0  0  0  0  0
   43.2162   -4.4567    9.8884 N   0  0  0  0  0  0  0  0  0  0  0  0
   42.3422   -1.1102   11.4143 O   0  0  0  0  0  0  0  0  0  0  0  0
   44.8144    0.0815    8.9250 O   0  0  0  0  0  0  0  0  0  0  0  0
   45.2871   -2.8002    8.9655 O   0  0  0  0  0  0  0  0  0  0  0  0
   41.0370   -4.5242   11.5569 O   0  0  0  0  0  0  0  0  0  0  0  0
   38.4939    6.6104    7.6821 C   0  0  1  0  0  0  0  0  0  0  0  0
   38.3087    8.1027    7.3291 C   0  0  1  0  0  0  0  0  0  0  0  0
   37.4202    8.2745    6.0732 C   0  0  2  0  0  0  0  0  0  0  0  0
   38.0475    7.5386    4.8833 C   0  0  1  0  0  0  0  0  0  0  0  0
   38.2054    6.0316    5.2101 C   0  0  0  0  0  0  0  0  0  0  0  0
   39.1005    5.8843    6.4450 C   0  0  2  0  0  0  0  0  0  0  0  0
   37.1876    7.6976    3.6892 N   0  0  0  0  0  0  0  0  0  0  0  0
   39.2390    4.4546    6.7090 N   0  0  0  0  0  0  0  0  0  0  0  0
   37.6740    8.7745    8.4389 O   0  0  0  0  0  0  0  0  0  0  0  0
   37.3015    9.6823    5.7754 O   0  0  0  0  0  0  0  0  0  0  0  0
  1  2  1  0  0  0  0
  1 12  1  6  0  0  0
  1 13  1  0  0  0  0
  2  3  1  0  0  0  0
  2 10  1  6  0  0  0
  4  3  1  6  0  0  0
  4  5  1  0  0  0  0
  4 14  1  0  0  0  0
  5  6  1  0  0  0  0
  5 13  1  1  0  0  0
  6  7  1  0  0  0  0
  6 15  1  1  0  0  0
  7  8  1  0  0  0  0
  7 11  1  1  0  0  0
  8 14  1  0  0  0  0
  8 16  1  6  0  0  0
  9 11  1  0  0  0  0
 17 16  1  6  0  0  0
 17 18  1  0  0  0  0
 17 24  1  0  0  0  0
 18 19  1  0  0  0  0
 18 25  1  6  0  0  0
 19 20  1  0  0  0  0
 19 26  1  1  0  0  0
 20 21  1  0  0  0  0
 20 23  1  6  0  0  0
 21 22  1  1  0  0  0
 21 24  1  0  0  0  0
 22 27  1  0  0  0  0
 28 12  1  1  0  0  0
 28 29  1  0  0  0  0
 28 33  1  0  0  0  0
 29 30  1  0  0  0  0
 29 36  1  1  0  0  0
 30 31  1  0  0  0  0
 30 37  1  6  0  0  0
 31 32  1  0  0  0  0
 31 34  1  6  0  0  0
 32 33  1  0  0  0  0
 33 35  1  1  0  0  0
M  END
>  <CHROM.1>
171.76108472,76.81403008,-167.58772175,-163.97056427,-65.95050815,124.27642832
40.40182953,2.59534690,8.97309905,-2.47665896,1.03146924,-2.63561237

>  <Name>
1yrj_lig

>  <RI>
0

>  <Rbt.Current_Directory>
/home/itssahil/PROJECTS/Mol_Feturizer/New_Systems/rnas/1yrj

>  <Rbt.Executable>
rbdock ($Id: //depot/dev/client3/rdock/2013.1/src/exe/rbdock.cxx#4 $)

>  <Rbt.Library>
libRbt.so (2013.1, Build901 2013/11/27)

>  <Rbt.Parameter_File>
/export/apps/rDock/src/rDock_2013.1_src/data/scripts/dock_solv.prm

>  <Rbt.Receptor>
prm/pocket_docking_4.prm

>  <SCORE>
-27.4573

>  <SCORE.INTER>
-25.2256

>  <SCORE.INTER.CONST>
1

>  <SCORE.INTER.POLAR>
-1.85359

>  <SCORE.INTER.ROT>
6

>  <SCORE.INTER.SOLV>
17.3488

>  <SCORE.INTER.VDW>
-24.0213

>  <SCORE.INTER.norm>
-0.681772

>  <SCORE.INTRA>
-2.23171

>  <SCORE.INTRA.DIHEDRAL>
-5.84318

>  <SCORE.INTRA.DIHEDRAL.0>
15.6389

>  <SCORE.INTRA.POLAR>
0

>  <SCORE.INTRA.POLAR.0>
0

>  <SCORE.INTRA.REPUL>
0

>  <SCORE.INTRA.REPUL.0>
0

>  <SCORE.INTRA.SOLV>
1.24058

>  <SCORE.INTRA.SOLV.lig_0>
-90.9181

>  <SCORE.INTRA.VDW>
0.0695908

>  <SCORE.INTRA.VDW.0>
-3.14158

>  <SCORE.INTRA.norm>
-0.0603164

>  <SCORE.RESTR>
0

>  <SCORE.RESTR.CAVITY>
0

>  <SCORE.RESTR.norm>
0

>  <SCORE.SYSTEM>
0

>  <SCORE.SYSTEM.CONST>
0

>  <SCORE.SYSTEM.DIHEDRAL>
0

>  <SCORE.SYSTEM.SOLV>
0

>  <SCORE.SYSTEM.norm>
0

>  <SCORE.heavy>
37

>  <SCORE.norm>
-0.742089

>  <RMSD>
1.026

$$$$
1yrj_lig
 OpenBabel11021811423D
libRbt.so/2013.1/901 2013/11/27
 37 40  0  0  0  0  0  0  0  0999 V2000
   39.0934    5.8686   10.1168 C   0  0  1  0  0  0  0  0  0  0  0  0
   40.2718    5.7613   11.1044 C   0  0  1  0  0  0  0  0  0  0  0  0
   41.2934    4.7015   10.6621 C   0  0  0  0  0  0  0  0  0  0  0  0
   40.5874    3.3360   10.4554 C   0  0  1  0  0  0  0  0  0  0  0  0
   39.4516    3.4799    9.4247 C   0  0  1  0  0  0  0  0  0  0  0  0
   38.7556    2.0682    9.2226 C   0  0  1  0  0  0  0  0  0  0  0  0
   39.7929    1.0451    8.7318 C   0  0  1  0  0  0  0  0  0  0  0  0
   40.9334    0.9749    9.7762 C   0  0  2  0  0  0  0  0  0  0  0  0
   38.4773   -0.4738    7.1606 C   0  0  0  0  0  0  0  0  0  0  0  0
   40.9389    7.0579   11.3070 N   0  0  0  0  0  0  0  0  0  0  0  0
   39.1344   -0.2761    8.4904 N   0  0  0  0  0  0  0  0  0  0  0  0
   39.4314    6.5317    8.8843 O   0  0  0  0  0  0  0  0  0  0  0  0
   38.5226    4.5246    9.9009 O   0  0  0  0  0  0  0  0  0  0  0  0
   41.5243    2.2879    9.9903 O   0  0  0  0  0  0  0  0  0  0  0  0
   38.2633    1.6057   10.4629 O   0  0  0  0  0  0  0  0  0  0  0  0
   41.9763    0.0890    9.3673 O   0  0  0  0  0  0  0  0  0  0  0  0
   42.9643   -0.1446   10.3983 C   0  0  2  0  0  0  0  0  0  0  0  0
   44.2829   -0.7221    9.8586 C   0  0  1  0  0  0  0  0  0  0  0  0
   44.0928   -2.1785    9.3576 C   0  0  2  0  0  0  0  0  0  0  0  0
   43.5548   -3.0412   10.4761 C   0  0  1  0  0  0  0  0  0  0  0  0
   42.2150   -2.4516   10.9769 C   0  0  1  0  0  0  0  0  0  0  0  0
   41.6220   -3.2368   12.1446 C   0  0  0  0  0  0  0  0  0  0  0  0
   43.3803   -4.4178    9.9682 N   0  0  0  0  0  0  0  0  0  0  0  0
   42.4243   -1.0639   11.4271 O   0  0  0  0  0  0  0  0  0  0  0  0
   44.7683    0.1480    8.8260 O   0  0  0  0  0  0  0  0  0  0  0  0
   45.3546   -2.7111    8.9320 O   0  0  0  0  0  0  0  0  0  0  0  0
   41.3258   -4.5427   11.7264 O   0  0  0  0  0  0  0  0  0  0  0  0
   38.5152    6.5868    7.6711 C   0  0  1  0  0  0  0  0  0  0  0  0
   38.3174    8.0773    7.3174 C   0  0  1  0  0  0  0  0  0  0  0  0
   37.4481    8.2404    6.0470 C   0  0  2  0  0  0  0  0  0  0  0  0
   38.1045    7.5146    4.8666 C   0  0  1  0  0  0  0  0  0  0  0  0
   38.2757    6.0091    5.1935 C   0  0  0  0  0  0  0  0  0  0  0  0
   39.1515    5.8706    6.4431 C   0  0  2  0  0  0  0  0  0  0  0  0
   37.2630    7.6651    3.6584 N   0  0  0  0  0  0  0  0  0  0  0  0
   39.3034    4.4423    6.7071 N   0  0  0  0  0  0  0  0  0  0  0  0
   37.6557    8.7391    8.4175 O   0  0  0  0  0  0  0  0  0  0  0  0
   37.3170    9.6472    5.7496 O   0  0  0  0  0  0  0  0  0  0  0  0
  1  2  1  0  0  0  0
  1 12  1  6  0  0  0
  1 13  1  0  0  0  0
  2  3  1  0  0  0  0
  2 10  1  6  0  0  0
  4  3  1  6  0  0  0
  4  5  1  0  0  0  0
  4 14  1  0  0  0  0
  5  6  1  0  0  0  0
  5 13  1  1  0  0  0
  6  7  1  0  0  0  0
  6 15  1  1  0  0  0
  7  8  1  0  0  0  0
  7 11  1  1  0  0  0
  8 14  1  0  0  0  0
  8 16  1  6  0  0  0
  9 11  1  0  0  0  0
 17 16  1  6  0  0  0
 17 18  1  0  0  0  0
 17 24  1  0  0  0  0
 18 19  1  0  0  0  0
 18 25  1  6  0  0  0
 19 20  1  0  0  0  0
 19 26  1  1  0  0  0
 20 21  1  0  0  0  0
 20 23  1  6  0  0  0
 21 22  1  1  0  0  0
 21 24  1  0  0  0  0
 22 27  1  0  0  0  0
 28 12  1  1  0  0  0
 28 29  1  0  0  0  0
 28 33  1  0  0  0  0
 29 30  1  0  0  0  0
 29 36  1  1  0  0  0
 30 31  1  0  0  0  0
 30 37  1  6  0  0  0
 31 32  1  0  0  0  0
 31 34  1  6  0  0  0
 32 33  1  0  0  0  0
 33 35  1  1  0  0  0
M  END
>  <CHROM.1>
170.70119433,84.53013200,-171.83903569,-162.25126897,-62.78917936,124.21785724
40.43696746,2.59148252,8.96813729,-2.60829305,1.07405104,-2.49290049

>  <Name>
1yrj_lig

>  <RI>
0

>  <Rbt.Current_Directory>
/home/itssahil/PROJECTS/Mol_Feturizer/New_Systems/rnas/1yrj

>  <Rbt.Executable>
rbdock ($Id: //depot/dev/client3/rdock/2013.1/src/exe/rbdock.cxx#4 $)

>  <Rbt.Library>
libRbt.so (2013.1, Build901 2013/11/27)

>  <Rbt.Parameter_File>
/export/apps/rDock/src/rDock_2013.1_src/data/scripts/dock_solv.prm

>  <Rbt.Receptor>
prm/pocket_docking_3.prm

>  <SCORE>
-27.3091

>  <SCORE.INTER>
-25.1409

>  <SCORE.INTER.CONST>
1

>  <SCORE.INTER.POLAR>
-1.84125

>  <SCORE.INTER.ROT>
6

>  <SCORE.INTER.SOLV>
17.3665

>  <SCORE.INTER.VDW>
-24.0119

>  <SCORE.INTER.norm>
-0.679483

>  <SCORE.INTRA>
-2.1682

>  <SCORE.INTRA.DIHEDRAL>
-5.79833

>  <SCORE.INTRA.DIHEDRAL.0>
15.6389

>  <SCORE.INTRA.POLAR>
0

>  <SCORE.INTRA.POLAR.0>
0

>  <SCORE.INTRA.REPUL>
0

>  <SCORE.INTRA.REPUL.0>
0

>  <SCORE.INTRA.SOLV>
1.26949

>  <SCORE.INTRA.SOLV.lig_0>
-90.9181

>  <SCORE.INTRA.VDW>
0.0962134

>  <SCORE.INTRA.VDW.0>
-3.14158

>  <SCORE.INTRA.norm>
-0.0586001

>  <SCORE.RESTR>
0

>  <SCORE.RESTR.CAVITY>
0

>  <SCORE.RESTR.norm>
0

>  <SCORE.SYSTEM>
0

>  <SCORE.SYSTEM.CONST>
0

>  <SCORE.SYSTEM.DIHEDRAL>
0

>  <SCORE.SYSTEM.SOLV>
0

>  <SCORE.SYSTEM.norm>
0

>  <SCORE.heavy>
37

>  <SCORE.norm>
-0.738083

>  <RMSD>
1.044

$$$$
1yrj_lig
 OpenBabel11021811423D
libRbt.so/2013.1/901 2013/11/27
 37 40  0  0  0  0  0  0  0  0999 V2000
   39.4187    6.1344   10.3766 C   0  0  1  0  0  0  0  0  0  0  0  0
   40.5831    5.8409   11.3427 C   0  0  1  0  0  0  0  0  0  0  0  0
   41.4862    4.7112   10.8226 C   0  0  0  0  0  0  0  0  0  0  0  0
   40.6402    3.4432   10.5363 C   0  0  1  0  0  0  0  0  0  0  0  0
   39.5218    3.7713    9.5291 C   0  0  1  0  0  0  0  0  0  0  0  0
   38.6809    2.4561    9.2442 C   0  0  1  0  0  0  0  0  0  0  0  0
   39.6033    1.3643    8.6779 C   0  0  1  0  0  0  0  0  0  0  0  0
   40.7342    1.1078    9.7034 C   0  0  2  0  0  0  0  0  0  0  0  0
   38.4030   -0.7263    9.5117 C   0  0  0  0  0  0  0  0  0  0  0  0
   41.3832    7.0449   11.6210 N   0  0  0  0  0  0  0  0  0  0  0  0
   38.8090    0.1375    8.3593 N   0  0  0  0  0  0  0  0  0  0  0  0
   39.8196    6.8372    9.1856 O   0  0  0  0  0  0  0  0  0  0  0  0
   38.7093    4.8742   10.0810 O   0  0  0  0  0  0  0  0  0  0  0  0
   41.4602    2.3354    9.9950 O   0  0  0  0  0  0  0  0  0  0  0  0
   38.1476    1.9680   10.4575 O   0  0  0  0  0  0  0  0  0  0  0  0
   41.6769    0.1464    9.2276 O   0  0  0  0  0  0  0  0  0  0  0  0
   42.5773   -0.3283   10.2560 C   0  0  2  0  0  0  0  0  0  0  0  0
   43.8091   -1.0590    9.6973 C   0  0  1  0  0  0  0  0  0  0  0  0
   43.4134   -2.4185    9.0622 C   0  0  2  0  0  0  0  0  0  0  0  0
   42.7062   -3.2777   10.0852 C   0  0  1  0  0  0  0  0  0  0  0  0
   41.4569   -2.5285   10.6058 C   0  0  1  0  0  0  0  0  0  0  0  0
   40.7057   -3.3069   11.6835 C   0  0  0  0  0  0  0  0  0  0  0  0
   42.3386   -4.5606    9.4508 N   0  0  0  0  0  0  0  0  0  0  0  0
   41.8628   -1.2351   11.1845 O   0  0  0  0  0  0  0  0  0  0  0  0
   44.4622   -0.1915    8.7592 O   0  0  0  0  0  0  0  0  0  0  0  0
   44.5918   -3.1057    8.6197 O   0  0  0  0  0  0  0  0  0  0  0  0
   40.1790   -4.4826   11.1284 O   0  0  0  0  0  0  0  0  0  0  0  0
   38.9609    7.8798    8.4856 C   0  0  1  0  0  0  0  0  0  0  0  0
   39.8940    8.6904    7.5591 C   0  0  1  0  0  0  0  0  0  0  0  0
   39.0999    9.7409    6.7455 C   0  0  2  0  0  0  0  0  0  0  0  0
   38.0196    9.0469    5.9075 C   0  0  1  0  0  0  0  0  0  0  0  0
   37.0532    8.2589    6.8284 C   0  0  0  0  0  0  0  0  0  0  0  0
   37.8567    7.2151    7.6113 C   0  0  2  0  0  0  0  0  0  0  0  0
   37.2572   10.0577    5.1411 N   0  0  0  0  0  0  0  0  0  0  0  0
   36.9113    6.4843    8.4509 N   0  0  0  0  0  0  0  0  0  0  0  0
   40.8772    9.3769    8.3641 O   0  0  0  0  0  0  0  0  0  0  0  0
   40.0143   10.4498    5.8818 O   0  0  0  0  0  0  0  0  0  0  0  0
  1  2  1  0  0  0  0
  1 12  1  6  0  0  0
  1 13  1  0  0  0  0
  2  3  1  0  0  0  0
  2 10  1  6  0  0  0
  4  3  1  6  0  0  0
  4  5  1  0  0  0  0
  4 14  1  0  0  0  0
  5  6  1  0  0  0  0
  5 13  1  1  0  0  0
  6  7  1  0  0  0  0
  6 15  1  1  0  0  0
  7  8  1  0  0  0  0
  7 11  1  1  0  0  0
  8 14  1  0  0  0  0
  8 16  1  6  0  0  0
  9 11  1  0  0  0  0
 17 16  1  6  0  0  0
 17 18  1  0  0  0  0
 17 24  1  0  0  0  0
 18 19  1  0  0  0  0
 18 25  1  6  0  0  0
 19 20  1  0  0  0  0
 19 26  1  1  0  0  0
 20 21  1  0  0  0  0
 20 23  1  6  0  0  0
 21 22  1  1  0  0  0
 21 24  1  0  0  0  0
 22 27  1  0  0  0  0
 28 12  1  6  0  0  0
 28 29  1  0  0  0  0
 28 33  1  0  0  0  0
 29 30  1  0  0  0  0
 29 36  1  1  0  0  0
 30 31  1  0  0  0  0
 30 37  1  6  0  0  0
 31 32  1  0  0  0  0
 31 34  1  1  0  0  0
 32 33  1  0  0  0  0
 33 35  1  1  0  0  0
M  END
>  <CHROM.1>
-144.85041363,-76.76109448,-167.58777155,-164.66946507,-65.17702029,162.43401483
40.37906017,2.98914704,9.20302070,1.84611419,-0.05331484,-0.20239965

>  <Name>
1yrj_lig

>  <RI>
224

>  <Rbt.Current_Directory>
/home/itssahil/PROJECTS/Mol_Feturizer/New_Systems/rnas/1yrj

>  <Rbt.Executable>
rbdock ($Id: //depot/dev/client3/rdock/2013.1/src/exe/rbdock.cxx#4 $)

>  <Rbt.Library>
libRbt.so (2013.1, Build901 2013/11/27)

>  <Rbt.Parameter_File>
/export/apps/rDock/src/rDock_2013.1_src/data/scripts/dock_solv.prm

>  <Rbt.Receptor>
prm/pocket_docking_2.prm

>  <SCORE>
-19.8727

>  <SCORE.INTER>
-18.6502

>  <SCORE.INTER.CONST>
1

>  <SCORE.INTER.POLAR>
-1.84276

>  <SCORE.INTER.ROT>
6

>  <SCORE.INTER.SOLV>
19.5408

>  <SCORE.INTER.VDW>
-20.4046

>  <SCORE.INTER.norm>
-0.50406

>  <SCORE.INTRA>
-1.82441

>  <SCORE.INTRA.DIHEDRAL>
-7.50299

>  <SCORE.INTRA.DIHEDRAL.0>
15.6389

>  <SCORE.INTRA.POLAR>
0

>  <SCORE.INTRA.POLAR.0>
0

>  <SCORE.INTRA.REPUL>
0

>  <SCORE.INTRA.REPUL.0>
0

>  <SCORE.INTRA.SOLV>
0.570198

>  <SCORE.INTRA.SOLV.lig_0>
-90.9181

>  <SCORE.INTRA.VDW>
1.64199

>  <SCORE.INTRA.VDW.0>
-3.14158

>  <SCORE.INTRA.norm>
-0.0493083

>  <SCORE.RESTR>
0.601926

>  <SCORE.RESTR.CAVITY>
0.601926

>  <SCORE.RESTR.norm>
0.0162683

>  <SCORE.SYSTEM>
0

>  <SCORE.SYSTEM.CONST>
0

>  <SCORE.SYSTEM.DIHEDRAL>
0

>  <SCORE.SYSTEM.SOLV>
0

>  <SCORE.SYSTEM.norm>
0

>  <SCORE.heavy>
37

>  <SCORE.norm>
-0.5371

>  <RMSD>
1.055

$$$$
1yrj_lig
 OpenBabel11021811423D
libRbt.so/2013.1/901 2013/11/27
 37 40  0  0  0  0  0  0  0  0999 V2000
   39.4565    5.7394    9.9181 C   0  0  1  0  0  0  0  0  0  0  0  0
   40.6580    5.5216   10.8584 C   0  0  1  0  0  0  0  0  0  0  0  0
   41.4875    4.2936   10.4505 C   0  0  0  0  0  0  0  0  0  0  0  0
   40.5787    3.0390   10.3753 C   0  0  1  0  0  0  0  0  0  0  0  0
   39.4222    3.2837    9.3874 C   0  0  1  0  0  0  0  0  0  0  0  0
   38.5167    1.9824    9.3196 C   0  0  1  0  0  0  0  0  0  0  0  0
   39.3644    0.7851    8.8601 C   0  0  1  0  0  0  0  0  0  0  0  0
   40.5371    0.6131    9.8559 C   0  0  2  0  0  0  0  0  0  0  0  0
   38.7603   -1.3345    7.5759 C   0  0  0  0  0  0  0  0  0  0  0  0
   41.5182    6.7137   10.9364 N   0  0  0  0  0  0  0  0  0  0  0  0
   38.5071   -0.4352    8.7448 N   0  0  0  0  0  0  0  0  0  0  0  0
   39.8210    6.2617    8.6268 O   0  0  0  0  0  0  0  0  0  0  0  0
   38.6837    4.4851    9.8261 O   0  0  0  0  0  0  0  0  0  0  0  0
   41.3250    1.8337    9.9474 O   0  0  0  0  0  0  0  0  0  0  0  0
   38.0296    1.6817   10.6107 O   0  0  0  0  0  0  0  0  0  0  0  0
   41.4150   -0.4443    9.4677 O   0  0  0  0  0  0  0  0  0  0  0  0
   42.6192   -0.5095   10.2672 C   0  0  2  0  0  0  0  0  0  0  0  0
   43.8897   -0.1352    9.4865 C   0  0  1  0  0  0  0  0  0  0  0  0
   44.2332   -1.2144    8.4256 C   0  0  2  0  0  0  0  0  0  0  0  0
   44.3994   -2.5594    9.0951 C   0  0  1  0  0  0  0  0  0  0  0  0
   43.0962   -2.9207    9.8464 C   0  0  1  0  0  0  0  0  0  0  0  0
   43.1927   -4.2480   10.5952 C   0  0  0  0  0  0  0  0  0  0  0  0
   44.7206   -3.5648    8.0610 N   0  0  0  0  0  0  0  0  0  0  0  0
   42.7870   -1.8690   10.8316 O   0  0  0  0  0  0  0  0  0  0  0  0
   43.6946    1.1597    8.8998 O   0  0  0  0  0  0  0  0  0  0  0  0
   45.4616   -0.8722    7.7693 O   0  0  0  0  0  0  0  0  0  0  0  0
   42.2611   -4.2610   11.6439 O   0  0  0  0  0  0  0  0  0  0  0  0
   38.8191    6.7906    7.6115 C   0  0  1  0  0  0  0  0  0  0  0  0
   38.9929    8.3245    7.5571 C   0  0  1  0  0  0  0  0  0  0  0  0
   38.0585    8.9563    6.4969 C   0  0  2  0  0  0  0  0  0  0  0  0
   38.3514    8.3564    5.1166 C   0  0  1  0  0  0  0  0  0  0  0  0
   38.1449    6.8204    5.1469 C   0  0  0  0  0  0  0  0  0  0  0  0
   39.0899    6.2147    6.1900 C   0  0  2  0  0  0  0  0  0  0  0  0
   37.4474    8.9565    4.1101 N   0  0  0  0  0  0  0  0  0  0  0  0
   38.8786    4.7697    6.1756 N   0  0  0  0  0  0  0  0  0  0  0  0
   38.6682    8.8819    8.8493 O   0  0  0  0  0  0  0  0  0  0  0  0
   38.2799   10.3829    6.4716 O   0  0  0  0  0  0  0  0  0  0  0  0
  1  2  1  0  0  0  0
  1 12  1  6  0  0  0
  1 13  1  0  0  0  0
  2  3  1  0  0  0  0
  2 10  1  6  0  0  0
  4  3  1  6  0  0  0
  4  5  1  0  0  0  0
  4 14  1  0  0  0  0
  5  6  1  0  0  0  0
  5 13  1  1  0  0  0
  6  7  1  0  0  0  0
  6 15  1  1  0  0  0
  7  8  1  0  0  0  0
  7 11  1  1  0  0  0
  8 14  1  0  0  0  0
  8 16  1  6  0  0  0
  9 11  1  0  0  0  0
 17 16  1  6  0  0  0
 17 18  1  0  0  0  0
 17 24  1  0  0  0  0
 18 19  1  0  0  0  0
 18 25  1  6  0  0  0
 19 20  1  0  0  0  0
 19 26  1  1  0  0  0
 20 21  1  0  0  0  0
 20 23  1  6  0  0  0
 21 22  1  1  0  0  0
 21 24  1  0  0  0  0
 22 27  1  0  0  0  0
 28 12  1  1  0  0  0
 28 29  1  0  0  0  0
 28 33  1  0  0  0  0
 29 30  1  0  0  0  0
 29 36  1  1  0  0  0
 30 31  1  0  0  0  0
 30 37  1  6  0  0  0
 31 32  1  0  0  0  0
 31 34  1  6  0  0  0
 32 33  1  0  0  0  0
 33 35  1  1  0  0  0
M  END
>  <CHROM.1>
-168.89174403,139.80202981,171.75603136,-111.51278562,156.25276160,108.82467275
40.63702306,2.71287450,8.76417842,2.26600914,0.91606845,-0.83876179

>  <Name>
1yrj_lig

>  <RI>
224

>  <Rbt.Current_Directory>
/home/itssahil/PROJECTS/Mol_Feturizer/New_Systems/rnas/1yrj

>  <Rbt.Executable>
rbdock ($Id: //depot/dev/client3/rdock/2013.1/src/exe/rbdock.cxx#4 $)

>  <Rbt.Library>
libRbt.so (2013.1, Build901 2013/11/27)

>  <Rbt.Parameter_File>
/export/apps/rDock/src/rDock_2013.1_src/data/scripts/dock_solv.prm

>  <Rbt.Receptor>
prm/pocket_docking_2.prm

>  <SCORE>
-14.4928

>  <SCORE.INTER>
-15.319

>  <SCORE.INTER.CONST>
1

>  <SCORE.INTER.POLAR>
-0.959166

>  <SCORE.INTER.ROT>
6

>  <SCORE.INTER.SOLV>
17.0171

>  <SCORE.INTER.VDW>
-20.2878

>  <SCORE.INTER.norm>
-0.414028

>  <SCORE.INTRA>
0.595297

>  <SCORE.INTRA.DIHEDRAL>
1.47602

>  <SCORE.INTRA.DIHEDRAL.0>
15.6389

>  <SCORE.INTRA.POLAR>
0

>  <SCORE.INTRA.POLAR.0>
0

>  <SCORE.INTRA.REPUL>
0

>  <SCORE.INTRA.REPUL.0>
0

>  <SCORE.INTRA.SOLV>
-1.00422

>  <SCORE.INTRA.SOLV.lig_0>
-90.9181

>  <SCORE.INTRA.VDW>
0.359401

>  <SCORE.INTRA.VDW.0>
-3.14158

>  <SCORE.INTRA.norm>
0.0160891

>  <SCORE.RESTR>
0.230976

>  <SCORE.RESTR.CAVITY>
0.230976

>  <SCORE.RESTR.norm>
0.0062426

>  <SCORE.SYSTEM>
0

>  <SCORE.SYSTEM.CONST>
0

>  <SCORE.SYSTEM.DIHEDRAL>
0

>  <SCORE.SYSTEM.SOLV>
0

>  <SCORE.SYSTEM.norm>
0

>  <SCORE.heavy>
37

>  <SCORE.norm>
-0.391696

>  <RMSD>
1.071

$$$$
1yrj_lig
 OpenBabel11021811423D
libRbt.so/2013.1/901 2013/11/27
 37 40  0  0  0  0  0  0  0  0999 V2000
   39.0684    5.8307   10.1221 C   0  0  1  0  0  0  0  0  0  0  0  0
   40.2603    5.7317   11.0944 C   0  0  1  0  0  0  0  0  0  0  0  0
   41.2847    4.6809   10.6374 C   0  0  0  0  0  0  0  0  0  0  0  0
   40.5874    3.3100   10.4377 C   0  0  1  0  0  0  0  0  0  0  0  0
   39.4373    3.4460    9.4219 C   0  0  1  0  0  0  0  0  0  0  0  0
   38.7504    2.0289    9.2265 C   0  0  1  0  0  0  0  0  0  0  0  0
   39.7896    1.0151    8.7209 C   0  0  1  0  0  0  0  0  0  0  0  0
   40.9439    0.9527    9.7504 C   0  0  2  0  0  0  0  0  0  0  0  0
   38.3505   -0.4659    7.2235 C   0  0  0  0  0  0  0  0  0  0  0  0
   40.9192    7.0334   11.2904 N   0  0  0  0  0  0  0  0  0  0  0  0
   39.1389   -0.3111    8.4859 N   0  0  0  0  0  0  0  0  0  0  0  0
   39.3852    6.4983    8.8864 O   0  0  0  0  0  0  0  0  0  0  0  0
   38.5059    4.4824    9.9115 O   0  0  0  0  0  0  0  0  0  0  0  0
   41.5267    2.2703    9.9590 O   0  0  0  0  0  0  0  0  0  0  0  0
   38.2778    1.5607   10.4723 O   0  0  0  0  0  0  0  0  0  0  0  0
   41.9887    0.0761    9.3269 O   0  0  0  0  0  0  0  0  0  0  0  0
   42.9548   -0.2056   10.3667 C   0  0  2  0  0  0  0  0  0  0  0  0
   44.2464   -0.8516    9.8393 C   0  0  1  0  0  0  0  0  0  0  0  0
   43.9856   -2.2975    9.3397 C   0  0  2  0  0  0  0  0  0  0  0  0
   43.3946   -3.1286   10.4554 C   0  0  1  0  0  0  0  0  0  0  0  0
   42.0828   -2.4695   10.9436 C   0  0  1  0  0  0  0  0  0  0  0  0
   41.4404   -3.2202   12.1079 C   0  0  0  0  0  0  0  0  0  0  0  0
   43.1536   -4.4956    9.9488 N   0  0  0  0  0  0  0  0  0  0  0  0
   42.3596   -1.0932   11.3927 O   0  0  0  0  0  0  0  0  0  0  0  0
   44.7845   -0.0102    8.8090 O   0  0  0  0  0  0  0  0  0  0  0  0
   45.2218   -2.8954    8.9258 O   0  0  0  0  0  0  0  0  0  0  0  0
   41.0367   -4.4926   11.6768 O   0  0  0  0  0  0  0  0  0  0  0  0
   38.4588    6.5358    7.6802 C   0  0  1  0  0  0  0  0  0  0  0  0
   38.2211    8.0225    7.3349 C   0  0  1  0  0  0  0  0  0  0  0  0
   37.3386    8.1693    6.0716 C   0  0  2  0  0  0  0  0  0  0  0  0
   38.0041    7.4654    4.8831 C   0  0  1  0  0  0  0  0  0  0  0  0
   38.2153    5.9632    5.2019 C   0  0  0  0  0  0  0  0  0  0  0  0
   39.1037    5.8412    6.4444 C   0  0  2  0  0  0  0  0  0  0  0  0
   37.1501    7.6001    3.6819 N   0  0  0  0  0  0  0  0  0  0  0  0
   39.2932    4.4159    6.7006 N   0  0  0  0  0  0  0  0  0  0  0  0
   37.5513    8.6625    8.4428 O   0  0  0  0  0  0  0  0  0  0  0  0
   37.1701    9.5736    5.7817 O   0  0  0  0  0  0  0  0  0  0  0  0
  1  2  1  0  0  0  0
  1 12  1  6  0  0  0
  1 13  1  0  0  0  0
  2  3  1  0  0  0  0
  2 10  1  6  0  0  0
  4  3  1  6  0  0  0
  4  5  1  0  0  0  0
  4 14  1  0  0  0  0
  5  6  1  0  0  0  0
  5 13  1  1  0  0  0
  6  7  1  0  0  0  0
  6 15  1  1  0  0  0
  7  8  1  0  0  0  0
  7 11  1  1  0  0  0
  8 14  1  0  0  0  0
  8 16  1  6  0  0  0
  9 11  1  0  0  0  0
 17 16  1  6  0  0  0
 17 18  1  0  0  0  0
 17 24  1  0  0  0  0
 18 19  1  0  0  0  0
 18 25  1  6  0  0  0
 19 20  1  0  0  0  0
 19 26  1  1  0  0  0
 20 21  1  0  0  0  0
 20 23  1  6  0  0  0
 21 22  1  1  0  0  0
 21 24  1  0  0  0  0
 22 27  1  0  0  0  0
 28 12  1  1  0  0  0
 28 29  1  0  0  0  0
 28 33  1  0  0  0  0
 29 30  1  0  0  0  0
 29 36  1  1  0  0  0
 30 31  1  0  0  0  0
 30 37  1  6  0  0  0
 31 32  1  0  0  0  0
 31 34  1  6  0  0  0
 32 33  1  0  0  0  0
 33 35  1  1  0  0  0
M  END
>  <CHROM.1>
170.06366950,78.58949038,-168.84094962,-165.81397322,-64.92117769,123.69247959
40.37137965,2.54319440,8.96207914,-2.55706181,1.05816052,-2.54605248

>  <Name>
1yrj_lig

>  <RI>
0

>  <Rbt.Current_Directory>
/home/itssahil/PROJECTS/Mol_Feturizer/New_Systems/rnas/1yrj

>  <Rbt.Executable>
rbdock ($Id: //depot/dev/client3/rdock/2013.1/src/exe/rbdock.cxx#4 $)

>  <Rbt.Library>
libRbt.so (2013.1, Build901 2013/11/27)

>  <Rbt.Parameter_File>
/export/apps/rDock/src/rDock_2013.1_src/data/scripts/dock_solv.prm

>  <Rbt.Receptor>
prm/pocket_docking_4.prm

>  <SCORE>
-27.3405

>  <SCORE.INTER>
-25.0337

>  <SCORE.INTER.CONST>
1

>  <SCORE.INTER.POLAR>
-1.85253

>  <SCORE.INTER.ROT>
6

>  <SCORE.INTER.SOLV>
17.7535

>  <SCORE.INTER.VDW>
-24.0318

>  <SCORE.INTER.norm>
-0.676586

>  <SCORE.INTRA>
-2.30683

>  <SCORE.INTRA.DIHEDRAL>
-6.05362

>  <SCORE.INTRA.DIHEDRAL.0>
15.6389

>  <SCORE.INTRA.POLAR>
0

>  <SCORE.INTRA.POLAR.0>
0

>  <SCORE.INTRA.REPUL>
0

>  <SCORE.INTRA.REPUL.0>
0

>  <SCORE.INTRA.SOLV>
1.27218

>  <SCORE.INTRA.SOLV.lig_0>
-90.9181

>  <SCORE.INTRA.VDW>
0.083888

>  <SCORE.INTRA.VDW.0>
-3.14158

>  <SCORE.INTRA.norm>
-0.0623467

>  <SCORE.RESTR>
0

>  <SCORE.RESTR.CAVITY>
0

>  <SCORE.RESTR.norm>
0

>  <SCORE.SYSTEM>
0

>  <SCORE.SYSTEM.CONST>
0

>  <SCORE.SYSTEM.DIHEDRAL>
0

>  <SCORE.SYSTEM.SOLV>
0

>  <SCORE.SYSTEM.norm>
0

>  <SCORE.heavy>
37

>  <SCORE.norm>
-0.738933

>  <RMSD>
1.073

$$$$
1yrj_lig
 OpenBabel11021811423D
libRbt.so/2013.1/901 2013/11/27
 37 40  0  0  0  0  0  0  0  0999 V2000
   39.4467    5.7419   10.0845 C   0  0  1  0  0  0  0  0  0  0  0  0
   40.6155    5.4960   11.0587 C   0  0  1  0  0  0  0  0  0  0  0  0
   41.5295    4.3573   10.5786 C   0  0  0  0  0  0  0  0  0  0  0  0
   40.6962    3.0710   10.3405 C   0  0  1  0  0  0  0  0  0  0  0  0
   39.5731    3.3505    9.3240 C   0  0  1  0  0  0  0  0  0  0  0  0
   38.7454    2.0172    9.0890 C   0  0  1  0  0  0  0  0  0  0  0  0
   39.6782    0.9149    8.5614 C   0  0  1  0  0  0  0  0  0  0  0  0
   40.8131    0.7078    9.5936 C   0  0  2  0  0  0  0  0  0  0  0  0
   38.3150   -0.4815    6.9187 C   0  0  0  0  0  0  0  0  0  0  0  0
   41.4036    6.7175   11.2912 N   0  0  0  0  0  0  0  0  0  0  0  0
   38.8962   -0.3308    8.2894 N   0  0  0  0  0  0  0  0  0  0  0  0
   39.8387    6.4046    8.8679 O   0  0  0  0  0  0  0  0  0  0  0  0
   38.7500    4.4645    9.8366 O   0  0  0  0  0  0  0  0  0  0  0  0
   41.5269    1.9526    9.8387 O   0  0  0  0  0  0  0  0  0  0  0  0
   38.2189    1.5685   10.3203 O   0  0  0  0  0  0  0  0  0  0  0  0
   41.7650   -0.2607    9.1517 O   0  0  0  0  0  0  0  0  0  0  0  0
   42.7570   -0.5854   10.1537 C   0  0  2  0  0  0  0  0  0  0  0  0
   43.9635   -1.3537    9.5900 C   0  0  1  0  0  0  0  0  0  0  0  0
   43.5615   -2.7894    9.1594 C   0  0  2  0  0  0  0  0  0  0  0  0
   42.9630   -3.5300   10.3334 C   0  0  1  0  0  0  0  0  0  0  0  0
   41.7355   -2.7483   10.8585 C   0  0  1  0  0  0  0  0  0  0  0  0
   41.0949   -3.4029   12.0804 C   0  0  0  0  0  0  0  0  0  0  0  0
   42.5867   -4.8889    9.8919 N   0  0  0  0  0  0  0  0  0  0  0  0
   42.1453   -1.3851   11.2406 O   0  0  0  0  0  0  0  0  0  0  0  0
   44.5145   -0.5955    8.5034 O   0  0  0  0  0  0  0  0  0  0  0  0
   44.7225   -3.5013    8.7098 O   0  0  0  0  0  0  0  0  0  0  0  0
   42.0311   -3.4606   13.1235 O   0  0  0  0  0  0  0  0  0  0  0  0
   38.8588    6.8708    7.8016 C   0  0  1  0  0  0  0  0  0  0  0  0
   38.1181    8.1010    8.3709 C   0  0  1  0  0  0  0  0  0  0  0  0
   37.1389    8.6956    7.3299 C   0  0  2  0  0  0  0  0  0  0  0  0
   37.9023    9.0964    6.0620 C   0  0  1  0  0  0  0  0  0  0  0  0
   38.6211    7.8626    5.4587 C   0  0  0  0  0  0  0  0  0  0  0  0
   39.5960    7.3005    6.4987 C   0  0  2  0  0  0  0  0  0  0  0  0
   36.9588    9.6536    5.0671 N   0  0  0  0  0  0  0  0  0  0  0  0
   40.2641    6.1543    5.8881 N   0  0  0  0  0  0  0  0  0  0  0  0
   37.3652    7.7002    9.5364 O   0  0  0  0  0  0  0  0  0  0  0  0
   36.4947    9.8532    7.9042 O   0  0  0  0  0  0  0  0  0  0  0  0
  1  2  1  0  0  0  0
  1 12  1  6  0  0  0
  1 13  1  0  0  0  0
  2  3  1  0  0  0  0
  2 10  1  6  0  0  0
  4  3  1  6  0  0  0
  4  5  1  0  0  0  0
  4 14  1  0  0  0  0
  5  6  1  0  0  0  0
  5 13  1  1  0  0  0
  6  7  1  0  0  0  0
  6 15  1  1  0  0  0
  7  8  1  0  0  0  0
  7 11  1  1  0  0  0
  8 14  1  0  0  0  0
  8 16  1  6  0  0  0
  9 11  1  0  0  0  0
 17 16  1  6  0  0  0
 17 18  1  0  0  0  0
 17 24  1  0  0  0  0
 18 19  1  0  0  0  0
 18 25  1  6  0  0  0
 19 20  1  0  0  0  0
 19 26  1  1  0  0  0
 20 21  1  0  0  0  0
 20 23  1  6  0  0  0
 21 22  1  1  0  0  0
 21 24  1  0  0  0  0
 22 27  1  0  0  0  0
 28 12  1  1  0  0  0
 28 29  1  0  0  0  0
 28 33  1  0  0  0  0
 29 30  1  0  0  0  0
 29 36  1  1  0  0  0
 30 31  1  0  0  0  0
 30 37  1  1  0  0  0
 31 32  1  0  0  0  0
 31 34  1  6  0  0  0
 32 33  1  0  0  0  0
 33 35  1  6  0  0  0
M  END
>  <CHROM.1>
-174.37088734,89.70329930,-173.61454842,-166.14383354,60.58501945,72.40054524
40.36583011,2.62792735,9.12321367,-3.07569034,1.19016835,-1.88902946

>  <Name>
1yrj_lig

>  <RI>
0

>  <Rbt.Current_Directory>
/home/itssahil/PROJECTS/Mol_Feturizer/New_Systems/rnas/1yrj

>  <Rbt.Executable>
rbdock ($Id: //depot/dev/client3/rdock/2013.1/src/exe/rbdock.cxx#4 $)

>  <Rbt.Library>
libRbt.so (2013.1, Build901 2013/11/27)

>  <Rbt.Parameter_File>
/export/apps/rDock/src/rDock_2013.1_src/data/scripts/dock_solv.prm

>  <Rbt.Receptor>
prm/pocket_docking_8.prm

>  <SCORE>
-27.1078

>  <SCORE.INTER>
-20.0518

>  <SCORE.INTER.CONST>
1

>  <SCORE.INTER.POLAR>
-1.85359

>  <SCORE.INTER.ROT>
6

>  <SCORE.INTER.SOLV>
22.8756

>  <SCORE.INTER.VDW>
-22.4144

>  <SCORE.INTER.norm>
-0.541942

>  <SCORE.INTRA>
-7.05596

>  <SCORE.INTRA.DIHEDRAL>
-12.948

>  <SCORE.INTRA.DIHEDRAL.0>
15.6389

>  <SCORE.INTRA.POLAR>
0

>  <SCORE.INTRA.POLAR.0>
0

>  <SCORE.INTRA.REPUL>
0

>  <SCORE.INTRA.REPUL.0>
0

>  <SCORE.INTRA.SOLV>
-2.28297

>  <SCORE.INTRA.SOLV.lig_0>
-90.9181

>  <SCORE.INTRA.VDW>
0.559506

>  <SCORE.INTRA.VDW.0>
-3.14158

>  <SCORE.INTRA.norm>
-0.190702

>  <SCORE.RESTR>
0

>  <SCORE.RESTR.CAVITY>
0

>  <SCORE.RESTR.norm>
0

>  <SCORE.SYSTEM>
0

>  <SCORE.SYSTEM.CONST>
0

>  <SCORE.SYSTEM.DIHEDRAL>
0

>  <SCORE.SYSTEM.SOLV>
0

>  <SCORE.SYSTEM.norm>
0

>  <SCORE.heavy>
37

>  <SCORE.norm>
-0.732643

>  <RMSD>
1.115

$$$$
1yrj_lig
 OpenBabel11021811423D
libRbt.so/2013.1/901 2013/11/27
 37 40  0  0  0  0  0  0  0  0999 V2000
   39.1144    5.8020   10.0575 C   0  0  1  0  0  0  0  0  0  0  0  0
   40.2838    5.7555   11.0604 C   0  0  1  0  0  0  0  0  0  0  0  0
   41.3442    4.7198   10.6539 C   0  0  0  0  0  0  0  0  0  0  0  0
   40.6853    3.3277   10.4706 C   0  0  1  0  0  0  0  0  0  0  0  0
   39.5578    3.4113    9.4243 C   0  0  1  0  0  0  0  0  0  0  0  0
   38.9103    1.9735    9.2467 C   0  0  1  0  0  0  0  0  0  0  0  0
   39.9858    0.9740    8.7911 C   0  0  1  0  0  0  0  0  0  0  0  0
   41.1155    0.9644    9.8495 C   0  0  2  0  0  0  0  0  0  0  0  0
   40.0508   -1.2752    7.5895 C   0  0  0  0  0  0  0  0  0  0  0  0
   40.9061    7.0773   11.2408 N   0  0  0  0  0  0  0  0  0  0  0  0
   39.3733   -0.3730    8.5726 N   0  0  0  0  0  0  0  0  0  0  0  0
   39.4455    6.4479    8.8139 O   0  0  0  0  0  0  0  0  0  0  0  0
   38.5899    4.4356    9.8660 O   0  0  0  0  0  0  0  0  0  0  0  0
   41.6610    2.3005   10.0401 O   0  0  0  0  0  0  0  0  0  0  0  0
   38.4184    1.5233   10.4917 O   0  0  0  0  0  0  0  0  0  0  0  0
   42.1912    0.1040    9.4727 O   0  0  0  0  0  0  0  0  0  0  0  0
   43.1234   -0.1503   10.5498 C   0  0  2  0  0  0  0  0  0  0  0  0
   44.4556   -0.7517   10.0731 C   0  0  1  0  0  0  0  0  0  0  0  0
   44.2626   -2.2032    9.5592 C   0  0  2  0  0  0  0  0  0  0  0  0
   43.6547   -3.0578   10.6478 C   0  0  1  0  0  0  0  0  0  0  0  0
   42.3035   -2.4438   11.0846 C   0  0  1  0  0  0  0  0  0  0  0  0
   41.6398   -3.2199   12.2199 C   0  0  0  0  0  0  0  0  0  0  0  0
   43.4792   -4.4298   10.1280 N   0  0  0  0  0  0  0  0  0  0  0  0
   42.5169   -1.0612   11.5484 O   0  0  0  0  0  0  0  0  0  0  0  0
   45.0069    0.1111    9.0677 O   0  0  0  0  0  0  0  0  0  0  0  0
   45.5333   -2.7588    9.1938 O   0  0  0  0  0  0  0  0  0  0  0  0
   42.4775   -3.2086   13.3451 O   0  0  0  0  0  0  0  0  0  0  0  0
   38.5073    6.5195    7.6185 C   0  0  1  0  0  0  0  0  0  0  0  0
   38.3078    8.0146    7.2854 C   0  0  1  0  0  0  0  0  0  0  0  0
   37.4159    8.1946    6.0331 C   0  0  2  0  0  0  0  0  0  0  0  0
   38.0481    7.4803    4.8327 C   0  0  1  0  0  0  0  0  0  0  0  0
   38.2204    5.9706    5.1395 C   0  0  0  0  0  0  0  0  0  0  0  0
   39.1186    5.8153    6.3711 C   0  0  2  0  0  0  0  0  0  0  0  0
   37.1850    7.6470    3.6421 N   0  0  0  0  0  0  0  0  0  0  0  0
   39.2707    4.3837    6.6161 N   0  0  0  0  0  0  0  0  0  0  0  0
   37.6686    8.6658    8.4049 O   0  0  0  0  0  0  0  0  0  0  0  0
   37.2838    9.6051    5.7541 O   0  0  0  0  0  0  0  0  0  0  0  0
  1  2  1  0  0  0  0
  1 12  1  6  0  0  0
  1 13  1  0  0  0  0
  2  3  1  0  0  0  0
  2 10  1  6  0  0  0
  4  3  1  6  0  0  0
  4  5  1  0  0  0  0
  4 14  1  0  0  0  0
  5  6  1  0  0  0  0
  5 13  1  1  0  0  0
  6  7  1  0  0  0  0
  6 15  1  1  0  0  0
  7  8  1  0  0  0  0
  7 11  1  1  0  0  0
  8 14  1  0  0  0  0
  8 16  1  6  0  0  0
  9 11  1  0  0  0  0
 17 16  1  6  0  0  0
 17 18  1  0  0  0  0
 17 24  1  0  0  0  0
 18 19  1  0  0  0  0
 18 25  1  6  0  0  0
 19 20  1  0  0  0  0
 19 26  1  1  0  0  0
 20 21  1  0  0  0  0
 20 23  1  6  0  0  0
 21 22  1  1  0  0  0
 21 24  1  0  0  0  0
 22 27  1  0  0  0  0
 28 12  1  1  0  0  0
 28 29  1  0  0  0  0
 28 33  1  0  0  0  0
 29 30  1  0  0  0  0
 29 36  1  1  0  0  0
 30 31  1  0  0  0  0
 30 37  1  6  0  0  0
 31 32  1  0  0  0  0
 31 34  1  6  0  0  0
 32 33  1  0  0  0  0
 33 35  1  1  0  0  0
M  END
>  <CHROM.1>
174.63382413,153.30706733,-167.68836881,-164.72307839,61.03255117,122.52165135
40.58833206,2.57535085,9.07085179,-2.96858476,1.11574017,-2.13039966

>  <Name>
1yrj_lig

>  <RI>
0

>  <Rbt.Current_Directory>
/home/itssahil/PROJECTS/Mol_Feturizer/New_Systems/rnas/1yrj

>  <Rbt.Executable>
rbdock ($Id: //depot/dev/client3/rdock/2013.1/src/exe/rbdock.cxx#4 $)

>  <Rbt.Library>
libRbt.so (2013.1, Build901 2013/11/27)

>  <Rbt.Parameter_File>
/export/apps/rDock/src/rDock_2013.1_src/data/scripts/dock_solv.prm

>  <Rbt.Receptor>
prm/pocket_docking_5.prm

>  <SCORE>
-27.1873

>  <SCORE.INTER>
-24.1026

>  <SCORE.INTER.CONST>
1

>  <SCORE.INTER.POLAR>
-1.84767

>  <SCORE.INTER.ROT>
6

>  <SCORE.INTER.SOLV>
18.6297

>  <SCORE.INTER.VDW>
-23.7194

>  <SCORE.INTER.norm>
-0.651423

>  <SCORE.INTRA>
-3.08463

>  <SCORE.INTRA.DIHEDRAL>
-5.92649

>  <SCORE.INTRA.DIHEDRAL.0>
15.6389

>  <SCORE.INTRA.POLAR>
0

>  <SCORE.INTRA.POLAR.0>
0

>  <SCORE.INTRA.REPUL>
0

>  <SCORE.INTRA.REPUL.0>
0

>  <SCORE.INTRA.SOLV>
0.613525

>  <SCORE.INTRA.SOLV.lig_0>
-90.9181

>  <SCORE.INTRA.VDW>
-0.42815

>  <SCORE.INTRA.VDW.0>
-3.14158

>  <SCORE.INTRA.norm>
-0.0833684

>  <SCORE.RESTR>
0

>  <SCORE.RESTR.CAVITY>
0

>  <SCORE.RESTR.norm>
0

>  <SCORE.SYSTEM>
0

>  <SCORE.SYSTEM.CONST>
0

>  <SCORE.SYSTEM.DIHEDRAL>
0

>  <SCORE.SYSTEM.SOLV>
0

>  <SCORE.SYSTEM.norm>
0

>  <SCORE.heavy>
37

>  <SCORE.norm>
-0.734791

>  <RMSD>
1.126

$$$$
1yrj_lig
 OpenBabel11021811423D
libRbt.so/2013.1/901 2013/11/27
 37 40  0  0  0  0  0  0  0  0999 V2000
   38.8590    5.1243    9.3385 C   0  0  1  0  0  0  0  0  0  0  0  0
   39.9957    5.1519   10.3790 C   0  0  1  0  0  0  0  0  0  0  0  0
   41.0550    4.0746   10.0968 C   0  0  0  0  0  0  0  0  0  0  0  0
   40.3843    2.6787   10.0116 C   0  0  1  0  0  0  0  0  0  0  0  0
   39.2913    2.6838    8.9260 C   0  0  1  0  0  0  0  0  0  0  0  0
   38.6312    1.2427    8.8508 C   0  0  1  0  0  0  0  0  0  0  0  0
   39.7076    0.1970    8.5170 C   0  0  1  0  0  0  0  0  0  0  0  0
   40.8033    0.2666    9.6083 C   0  0  2  0  0  0  0  0  0  0  0  0
   38.4169   -1.4822    7.0954 C   0  0  0  0  0  0  0  0  0  0  0  0
   40.6290    6.4779   10.4661 N   0  0  0  0  0  0  0  0  0  0  0  0
   39.0850   -1.1575    8.3944 N   0  0  0  0  0  0  0  0  0  0  0  0
   39.2372    5.6580    8.0558 O   0  0  0  0  0  0  0  0  0  0  0  0
   38.3233    3.7519    9.2473 O   0  0  0  0  0  0  0  0  0  0  0  0
   41.3597    1.6085    9.7019 O   0  0  0  0  0  0  0  0  0  0  0  0
   38.0948    0.9057   10.1130 O   0  0  0  0  0  0  0  0  0  0  0  0
   41.8792   -0.6337    9.3412 O   0  0  0  0  0  0  0  0  0  0  0  0
   42.7540   -0.8313   10.4767 C   0  0  2  0  0  0  0  0  0  0  0  0
   44.1573   -1.3231   10.0862 C   0  0  1  0  0  0  0  0  0  0  0  0
   44.1110   -2.7779    9.5479 C   0  0  2  0  0  0  0  0  0  0  0  0
   43.4990   -3.6911   10.5854 C   0  0  1  0  0  0  0  0  0  0  0  0
   42.0786   -3.1877   10.9350 C   0  0  1  0  0  0  0  0  0  0  0  0
   41.4018   -4.0275   12.0160 C   0  0  0  0  0  0  0  0  0  0  0  0
   43.4644   -5.0652   10.0431 N   0  0  0  0  0  0  0  0  0  0  0  0
   42.1537   -1.7993   11.4241 O   0  0  0  0  0  0  0  0  0  0  0  0
   44.7068   -0.4072    9.1280 O   0  0  0  0  0  0  0  0  0  0  0  0
   45.4422   -3.2303    9.2647 O   0  0  0  0  0  0  0  0  0  0  0  0
   42.1368   -3.9348   13.2073 O   0  0  0  0  0  0  0  0  0  0  0  0
   38.6058    6.8928    7.4306 C   0  0  1  0  0  0  0  0  0  0  0  0
   39.0401    8.1065    8.2818 C   0  0  1  0  0  0  0  0  0  0  0  0
   38.5010    9.4295    7.6858 C   0  0  2  0  0  0  0  0  0  0  0  0
   39.0077    9.6014    6.2489 C   0  0  1  0  0  0  0  0  0  0  0  0
   38.5475    8.4077    5.3737 C   0  0  0  0  0  0  0  0  0  0  0  0
   39.1051    7.1118    5.9717 C   0  0  2  0  0  0  0  0  0  0  0  0
   38.4797   10.8623    5.6815 N   0  0  0  0  0  0  0  0  0  0  0  0
   38.6660    6.0162    5.1117 N   0  0  0  0  0  0  0  0  0  0  0  0
   38.5166    7.9557    9.6194 O   0  0  0  0  0  0  0  0  0  0  0  0
   38.9560   10.5287    8.5040 O   0  0  0  0  0  0  0  0  0  0  0  0
  1  2  1  0  0  0  0
  1 12  1  6  0  0  0
  1 13  1  0  0  0  0
  2  3  1  0  0  0  0
  2 10  1  6  0  0  0
  4  3  1  6  0  0  0
  4  5  1  0  0  0  0
  4 14  1  0  0  0  0
  5  6  1  0  0  0  0
  5 13  1  1  0  0  0
  6  7  1  0  0  0  0
  6 15  1  1  0  0  0
  7  8  1  0  0  0  0
  7 11  1  1  0  0  0
  8 14  1  0  0  0  0
  8 16  1  6  0  0  0
  9 11  1  0  0  0  0
 17 16  1  6  0  0  0
 17 18  1  0  0  0  0
 17 24  1  0  0  0  0
 18 19  1  0  0  0  0
 18 25  1  6  0  0  0
 19 20  1  0  0  0  0
 19 26  1  1  0  0  0
 20 21  1  0  0  0  0
 20 23  1  6  0  0  0
 21 22  1  1  0  0  0
 21 24  1  0  0  0  0
 22 27  1  0  0  0  0
 28 12  1  1  0  0  0
 28 29  1  0  0  0  0
 28 33  1  0  0  0  0
 29 30  1  0  0  0  0
 29 36  1  1  0  0  0
 30 31  1  0  0  0  0
 30 37  1  1  0  0  0
 31 32  1  0  0  0  0
 31 34  1  6  0  0  0
 32 33  1  0  0  0  0
 33 35  1  6  0  0  0
M  END
>  <CHROM.1>
-117.00708494,80.94633442,-166.16836829,-157.68656376,62.84751149,68.53595675
40.53158277,2.42228948,9.07640445,1.92676203,-0.39284599,-0.12282551

>  <Name>
1yrj_lig

>  <RI>
224

>  <Rbt.Current_Directory>
/home/itssahil/PROJECTS/Mol_Feturizer/New_Systems/rnas/1yrj

>  <Rbt.Executable>
rbdock ($Id: //depot/dev/client3/rdock/2013.1/src/exe/rbdock.cxx#4 $)

>  <Rbt.Library>
libRbt.so (2013.1, Build901 2013/11/27)

>  <Rbt.Parameter_File>
/export/apps/rDock/src/rDock_2013.1_src/data/scripts/dock_solv.prm

>  <Rbt.Receptor>
prm/pocket_docking_2.prm

>  <SCORE>
-20.998

>  <SCORE.INTER>
-19.3602

>  <SCORE.INTER.CONST>
1

>  <SCORE.INTER.POLAR>
-1.85359

>  <SCORE.INTER.ROT>
6

>  <SCORE.INTER.SOLV>
13.6083

>  <SCORE.INTER.VDW>
-18.8643

>  <SCORE.INTER.norm>
-0.52325

>  <SCORE.INTRA>
-1.68922

>  <SCORE.INTRA.DIHEDRAL>
-4.71909

>  <SCORE.INTRA.DIHEDRAL.0>
15.6389

>  <SCORE.INTRA.POLAR>
0

>  <SCORE.INTRA.POLAR.0>
0

>  <SCORE.INTRA.REPUL>
0

>  <SCORE.INTRA.REPUL.0>
0

>  <SCORE.INTRA.SOLV>
0.118708

>  <SCORE.INTRA.SOLV.lig_0>
-90.9181

>  <SCORE.INTRA.VDW>
0.610967

>  <SCORE.INTRA.VDW.0>
-3.14158

>  <SCORE.INTRA.norm>
-0.0456547

>  <SCORE.RESTR>
0.0514208

>  <SCORE.RESTR.CAVITY>
0.0514208

>  <SCORE.RESTR.norm>
0.00138975

>  <SCORE.SYSTEM>
0

>  <SCORE.SYSTEM.CONST>
0

>  <SCORE.SYSTEM.DIHEDRAL>
0

>  <SCORE.SYSTEM.SOLV>
0

>  <SCORE.SYSTEM.norm>
0

>  <SCORE.heavy>
37

>  <SCORE.norm>
-0.567515

>  <RMSD>
1.140

$$$$
1yrj_lig
 OpenBabel11021811423D
libRbt.so/2013.1/901 2013/11/27
 37 40  0  0  0  0  0  0  0  0999 V2000
   39.3536    5.6555    9.8680 C   0  0  1  0  0  0  0  0  0  0  0  0
   40.4762    5.4961   10.9120 C   0  0  1  0  0  0  0  0  0  0  0  0
   41.4492    4.3669   10.5369 C   0  0  0  0  0  0  0  0  0  0  0  0
   40.6700    3.0434   10.3206 C   0  0  1  0  0  0  0  0  0  0  0  0
   39.5941    3.2358    9.2349 C   0  0  1  0  0  0  0  0  0  0  0  0
   38.8218    1.8657    9.0244 C   0  0  1  0  0  0  0  0  0  0  0  0
   39.8149    0.7713    8.6010 C   0  0  1  0  0  0  0  0  0  0  0  0
   40.8994    0.6523    9.6992 C   0  0  2  0  0  0  0  0  0  0  0  0
   38.3530   -0.6338    7.0534 C   0  0  0  0  0  0  0  0  0  0  0  0
   41.2125    6.7531   11.1236 N   0  0  0  0  0  0  0  0  0  0  0  0
   39.0874   -0.5116    8.3514 N   0  0  0  0  0  0  0  0  0  0  0  0
   39.7888    6.2717    8.6416 O   0  0  0  0  0  0  0  0  0  0  0  0
   38.7109    4.3449    9.6485 O   0  0  0  0  0  0  0  0  0  0  0  0
   41.5603    1.9307    9.9184 O   0  0  0  0  0  0  0  0  0  0  0  0
   38.2449    1.4594   10.2478 O   0  0  0  0  0  0  0  0  0  0  0  0
   41.9030   -0.3039    9.3555 O   0  0  0  0  0  0  0  0  0  0  0  0
   42.9079   -0.4717   10.3830 C   0  0  2  0  0  0  0  0  0  0  0  0
   44.2197   -1.0784    9.8587 C   0  0  1  0  0  0  0  0  0  0  0  0
   44.0261   -2.5632    9.4510 C   0  0  2  0  0  0  0  0  0  0  0  0
   43.5086   -3.3568   10.6288 C   0  0  1  0  0  0  0  0  0  0  0  0
   42.1751   -2.7405   11.1138 C   0  0  1  0  0  0  0  0  0  0  0  0
   41.6031   -3.4538   12.3368 C   0  0  0  0  0  0  0  0  0  0  0  0
   43.3304   -4.7623   10.2090 N   0  0  0  0  0  0  0  0  0  0  0  0
   42.3872   -1.3273   11.4746 O   0  0  0  0  0  0  0  0  0  0  0  0
   44.6859   -0.2722    8.7670 O   0  0  0  0  0  0  0  0  0  0  0  0
   45.2827   -3.1181    9.0387 O   0  0  0  0  0  0  0  0  0  0  0  0
   42.4602   -3.2640   13.4310 O   0  0  0  0  0  0  0  0  0  0  0  0
   38.8419    6.8031    7.5761 C   0  0  1  0  0  0  0  0  0  0  0  0
   38.0424    7.9606    8.2141 C   0  0  1  0  0  0  0  0  0  0  0  0
   37.0913    8.6178    7.1847 C   0  0  2  0  0  0  0  0  0  0  0  0
   37.8959    9.1454    5.9908 C   0  0  1  0  0  0  0  0  0  0  0  0
   38.6750    7.9867    5.3177 C   0  0  0  0  0  0  0  0  0  0  0  0
   39.6208    7.3619    6.3486 C   0  0  2  0  0  0  0  0  0  0  0  0
   36.9797    9.7623    5.0057 N   0  0  0  0  0  0  0  0  0  0  0  0
   40.3471    6.2898    5.6734 N   0  0  0  0  0  0  0  0  0  0  0  0
   37.2527    7.4421    9.3066 O   0  0  0  0  0  0  0  0  0  0  0  0
   36.3902    9.7049    7.8259 O   0  0  0  0  0  0  0  0  0  0  0  0
  1  2  1  0  0  0  0
  1 12  1  6  0  0  0
  1 13  1  0  0  0  0
  2  3  1  0  0  0  0
  2 10  1  6  0  0  0
  4  3  1  6  0  0  0
  4  5  1  0  0  0  0
  4 14  1  0  0  0  0
  5  6  1  0  0  0  0
  5 13  1  1  0  0  0
  6  7  1  0  0  0  0
  6 15  1  1  0  0  0
  7  8  1  0  0  0  0
  7 11  1  1  0  0  0
  8 14  1  0  0  0  0
  8 16  1  6  0  0  0
  9 11  1  0  0  0  0
 17 16  1  6  0  0  0
 17 18  1  0  0  0  0
 17 24  1  0  0  0  0
 18 19  1  0  0  0  0
 18 25  1  6  0  0  0
 19 20  1  0  0  0  0
 19 26  1  1  0  0  0
 20 21  1  0  0  0  0
 20 23  1  6  0  0  0
 21 22  1  1  0  0  0
 21 24  1  0  0  0  0
 22 27  1  0  0  0  0
 28 12  1  1  0  0  0
 28 29  1  0  0  0  0
 28 33  1  0  0  0  0
 29 30  1  0  0  0  0
 29 36  1  1  0  0  0
 30 31  1  0  0  0  0
 30 37  1  1  0  0  0
 31 32  1  0  0  0  0
 31 34  1  6  0  0  0
 32 33  1  0  0  0  0
 33 35  1  6  0  0  0
M  END
>  <CHROM.1>
-166.79819617,77.91726809,-178.02854990,-159.35733602,65.73457484,63.65391502
40.48652149,2.63672201,9.15127433,2.63801102,1.09403577,-1.30820921

>  <Name>
1yrj_lig

>  <RI>
0

>  <Rbt.Current_Directory>
/home/itssahil/PROJECTS/Mol_Feturizer/New_Systems/rnas/1yrj

>  <Rbt.Executable>
rbdock ($Id: //depot/dev/client3/rdock/2013.1/src/exe/rbdock.cxx#4 $)

>  <Rbt.Library>
libRbt.so (2013.1, Build901 2013/11/27)

>  <Rbt.Parameter_File>
/export/apps/rDock/src/rDock_2013.1_src/data/scripts/dock_solv.prm

>  <Rbt.Receptor>
prm/pocket_docking_3.prm

>  <SCORE>
-27.0219

>  <SCORE.INTER>
-20.7812

>  <SCORE.INTER.CONST>
1

>  <SCORE.INTER.POLAR>
-1.85359

>  <SCORE.INTER.ROT>
6

>  <SCORE.INTER.SOLV>
23.0299

>  <SCORE.INTER.VDW>
-22.9522

>  <SCORE.INTER.norm>
-0.561655

>  <SCORE.INTRA>
-6.24071

>  <SCORE.INTRA.DIHEDRAL>
-12.3667

>  <SCORE.INTRA.DIHEDRAL.0>
15.6389

>  <SCORE.INTRA.POLAR>
0

>  <SCORE.INTRA.POLAR.0>
0

>  <SCORE.INTRA.REPUL>
0

>  <SCORE.INTRA.REPUL.0>
0

>  <SCORE.INTRA.SOLV>
-2.27891

>  <SCORE.INTRA.SOLV.lig_0>
-90.9181

>  <SCORE.INTRA.VDW>
1.08209

>  <SCORE.INTRA.VDW.0>
-3.14158

>  <SCORE.INTRA.norm>
-0.168668

>  <SCORE.RESTR>
0

>  <SCORE.RESTR.CAVITY>
0

>  <SCORE.RESTR.norm>
0

>  <SCORE.SYSTEM>
0

>  <SCORE.SYSTEM.CONST>
0

>  <SCORE.SYSTEM.DIHEDRAL>
0

>  <SCORE.SYSTEM.SOLV>
0

>  <SCORE.SYSTEM.norm>
0

>  <SCORE.heavy>
37

>  <SCORE.norm>
-0.730323

>  <RMSD>
1.152

$$$$
1yrj_lig
 OpenBabel11021811423D
libRbt.so/2013.1/901 2013/11/27
 37 40  0  0  0  0  0  0  0  0999 V2000
   39.2502    5.7875   10.2780 C   0  0  1  0  0  0  0  0  0  0  0  0
   40.5252    5.6377   11.1309 C   0  0  1  0  0  0  0  0  0  0  0  0
   41.4568    4.5467   10.5792 C   0  0  0  0  0  0  0  0  0  0  0  0
   40.6878    3.2060   10.4502 C   0  0  1  0  0  0  0  0  0  0  0  0
   39.4517    3.3911    9.5498 C   0  0  1  0  0  0  0  0  0  0  0  0
   38.6915    2.0039    9.4243 C   0  0  1  0  0  0  0  0  0  0  0  0
   39.6346    0.9494    8.8227 C   0  0  1  0  0  0  0  0  0  0  0  0
   40.8794    0.8375    9.7362 C   0  0  2  0  0  0  0  0  0  0  0  0
   38.2872   -0.6093    7.3189 C   0  0  0  0  0  0  0  0  0  0  0  0
   41.2529    6.9108   11.2600 N   0  0  0  0  0  0  0  0  0  0  0  0
   38.9104   -0.3485    8.6540 N   0  0  0  0  0  0  0  0  0  0  0  0
   39.4734    6.4442    9.0162 O   0  0  0  0  0  0  0  0  0  0  0  0
   38.6152    4.4638   10.1251 O   0  0  0  0  0  0  0  0  0  0  0  0
   41.5331    2.1296    9.8850 O   0  0  0  0  0  0  0  0  0  0  0  0
   38.3225    1.5528   10.7107 O   0  0  0  0  0  0  0  0  0  0  0  0
   41.8416   -0.0804    9.2155 O   0  0  0  0  0  0  0  0  0  0  0  0
   42.8615   -0.4444   10.1751 C   0  0  2  0  0  0  0  0  0  0  0  0
   44.0931   -1.1047    9.5341 C   0  0  1  0  0  0  0  0  0  0  0  0
   43.7499   -2.5148    8.9844 C   0  0  2  0  0  0  0  0  0  0  0  0
   43.2023   -3.3809   10.0956 C   0  0  1  0  0  0  0  0  0  0  0  0
   41.9486   -2.7050   10.6996 C   0  0  1  0  0  0  0  0  0  0  0  0
   41.3558   -3.4916   11.8665 C   0  0  0  0  0  0  0  0  0  0  0  0
   42.8813   -4.7125    9.5415 N   0  0  0  0  0  0  0  0  0  0  0  0
   42.3021   -1.3624   11.1945 O   0  0  0  0  0  0  0  0  0  0  0  0
   44.5937   -0.2309    8.5119 O   0  0  0  0  0  0  0  0  0  0  0  0
   44.9352   -3.1309    8.4624 O   0  0  0  0  0  0  0  0  0  0  0  0
   40.4786   -2.6674   12.5870 O   0  0  0  0  0  0  0  0  0  0  0  0
   38.4417    6.5115    7.9002 C   0  0  1  0  0  0  0  0  0  0  0  0
   37.7072    7.8631    8.0403 C   0  0  1  0  0  0  0  0  0  0  0  0
   36.6753    8.0597    6.9033 C   0  0  2  0  0  0  0  0  0  0  0  0
   37.3775    7.9947    5.5418 C   0  0  1  0  0  0  0  0  0  0  0  0
   38.0887    6.6279    5.3721 C   0  0  0  0  0  0  0  0  0  0  0  0
   39.1157    6.4616    6.4970 C   0  0  2  0  0  0  0  0  0  0  0  0
   36.3839    8.1722    4.4594 N   0  0  0  0  0  0  0  0  0  0  0  0
   39.7746    5.1744    6.2923 N   0  0  0  0  0  0  0  0  0  0  0  0
   37.0112    7.8925    9.3054 O   0  0  0  0  0  0  0  0  0  0  0  0
   36.0386    9.3449    7.0690 O   0  0  0  0  0  0  0  0  0  0  0  0
  1  2  1  0  0  0  0
  1 12  1  6  0  0  0
  1 13  1  0  0  0  0
  2  3  1  0  0  0  0
  2 10  1  6  0  0  0
  4  3  1  6  0  0  0
  4  5  1  0  0  0  0
  4 14  1  0  0  0  0
  5  6  1  0  0  0  0
  5 13  1  1  0  0  0
  6  7  1  0  0  0  0
  6 15  1  1  0  0  0
  7  8  1  0  0  0  0
  7 11  1  1  0  0  0
  8 14  1  0  0  0  0
  8 16  1  6  0  0  0
  9 11  1  0  0  0  0
 17 16  1  6  0  0  0
 17 18  1  0  0  0  0
 17 24  1  0  0  0  0
 18 19  1  0  0  0  0
 18 25  1  6  0  0  0
 19 20  1  0  0  0  0
 19 26  1  1  0  0  0
 20 21  1  0  0  0  0
 20 23  1  6  0  0  0
 21 22  1  1  0  0  0
 21 24  1  0  0  0  0
 22 27  1  0  0  0  0
 28 12  1  1  0  0  0
 28 29  1  0  0  0  0
 28 33  1  0  0  0  0
 29 30  1  0  0  0  0
 29 36  1  1  0  0  0
 30 31  1  0  0  0  0
 30 37  1  1  0  0  0
 31 32  1  0  0  0  0
 31 34  1  6  0  0  0
 32 33  1  0  0  0  0
 33 35  1  6  0  0  0
M  END
>  <CHROM.1>
169.49800148,93.96818218,-166.54407168,-164.11350325,163.84853208,95.89815219
40.21725941,2.54212609,9.08070254,-2.77830197,1.09117874,-2.23630710

>  <Name>
1yrj_lig

>  <RI>
0

>  <Rbt.Current_Directory>
/home/itssahil/PROJECTS/Mol_Feturizer/New_Systems/rnas/1yrj

>  <Rbt.Executable>
rbdock ($Id: //depot/dev/client3/rdock/2013.1/src/exe/rbdock.cxx#4 $)

>  <Rbt.Library>
libRbt.so (2013.1, Build901 2013/11/27)

>  <Rbt.Parameter_File>
/export/apps/rDock/src/rDock_2013.1_src/data/scripts/dock_solv.prm

>  <Rbt.Receptor>
prm/pocket_docking_4.prm

>  <SCORE>
-31.3069

>  <SCORE.INTER>
-26.9248

>  <SCORE.INTER.CONST>
1

>  <SCORE.INTER.POLAR>
-2.91723

>  <SCORE.INTER.ROT>
6

>  <SCORE.INTER.SOLV>
24.7707

>  <SCORE.INTER.VDW>
-24.0827

>  <SCORE.INTER.norm>
-0.727699

>  <SCORE.INTRA>
-4.38201

>  <SCORE.INTRA.DIHEDRAL>
-6.6905

>  <SCORE.INTRA.DIHEDRAL.0>
15.6389

>  <SCORE.INTRA.POLAR>
0

>  <SCORE.INTRA.POLAR.0>
0

>  <SCORE.INTRA.REPUL>
0

>  <SCORE.INTRA.REPUL.0>
0

>  <SCORE.INTRA.SOLV>
-2.18342

>  <SCORE.INTRA.SOLV.lig_0>
-90.9181

>  <SCORE.INTRA.VDW>
0.0549544

>  <SCORE.INTRA.VDW.0>
-3.14158

>  <SCORE.INTRA.norm>
-0.118433

>  <SCORE.RESTR>
0

>  <SCORE.RESTR.CAVITY>
0

>  <SCORE.RESTR.norm>
0

>  <SCORE.SYSTEM>
0

>  <SCORE.SYSTEM.CONST>
0

>  <SCORE.SYSTEM.DIHEDRAL>
0

>  <SCORE.SYSTEM.SOLV>
0

>  <SCORE.SYSTEM.norm>
0

>  <SCORE.heavy>
37

>  <SCORE.norm>
-0.846131

>  <RMSD>
1.184

$$$$
1yrj_lig
 OpenBabel11021811423D
libRbt.so/2013.1/901 2013/11/27
 37 40  0  0  0  0  0  0  0  0999 V2000
   39.1880    5.8275   10.3023 C   0  0  1  0  0  0  0  0  0  0  0  0
   40.4478    5.7114   11.1824 C   0  0  1  0  0  0  0  0  0  0  0  0
   41.4213    4.6481   10.6493 C   0  0  0  0  0  0  0  0  0  0  0  0
   40.6931    3.2867   10.5014 C   0  0  1  0  0  0  0  0  0  0  0  0
   39.4721    3.4394    9.5747 C   0  0  1  0  0  0  0  0  0  0  0  0
   38.7539    2.0317    9.4303 C   0  0  1  0  0  0  0  0  0  0  0  0
   39.7390    1.0053    8.8476 C   0  0  1  0  0  0  0  0  0  0  0  0
   40.9662    0.9262    9.7877 C   0  0  2  0  0  0  0  0  0  0  0  0
   39.1910   -0.9631    7.3206 C   0  0  0  0  0  0  0  0  0  0  0  0
   41.1366    7.0040   11.3296 N   0  0  0  0  0  0  0  0  0  0  0  0
   39.0552   -0.3119    8.6610 N   0  0  0  0  0  0  0  0  0  0  0  0
   39.4200    6.4930    9.0467 O   0  0  0  0  0  0  0  0  0  0  0  0
   38.5936    4.4870   10.1334 O   0  0  0  0  0  0  0  0  0  0  0  0
   41.5802    2.2357    9.9530 O   0  0  0  0  0  0  0  0  0  0  0  0
   38.3699    1.5676   10.7076 O   0  0  0  0  0  0  0  0  0  0  0  0
   41.9648    0.0367    9.2865 O   0  0  0  0  0  0  0  0  0  0  0  0
   42.9587   -0.3218   10.2752 C   0  0  2  0  0  0  0  0  0  0  0  0
   44.2288   -0.9380    9.6663 C   0  0  1  0  0  0  0  0  0  0  0  0
   43.9415   -2.3445    9.0768 C   0  0  2  0  0  0  0  0  0  0  0  0
   43.3768   -3.2466   10.1501 C   0  0  1  0  0  0  0  0  0  0  0  0
   42.0855   -2.6146   10.7214 C   0  0  1  0  0  0  0  0  0  0  0  0
   41.4715   -3.4395   11.8502 C   0  0  0  0  0  0  0  0  0  0  0  0
   43.1098   -4.5740    9.5584 N   0  0  0  0  0  0  0  0  0  0  0  0
   42.3867   -1.2742   11.2553 O   0  0  0  0  0  0  0  0  0  0  0  0
   44.7433   -0.0311    8.6804 O   0  0  0  0  0  0  0  0  0  0  0  0
   45.1600   -2.9202    8.5861 O   0  0  0  0  0  0  0  0  0  0  0  0
   40.5441   -2.6542   12.5510 O   0  0  0  0  0  0  0  0  0  0  0  0
   38.4125    6.5315    7.9075 C   0  0  1  0  0  0  0  0  0  0  0  0
   37.6375    7.8620    8.0301 C   0  0  1  0  0  0  0  0  0  0  0  0
   36.6266    8.0297    6.8698 C   0  0  2  0  0  0  0  0  0  0  0  0
   37.3612    7.9846    5.5247 C   0  0  1  0  0  0  0  0  0  0  0  0
   38.1140    6.6382    5.3720 C   0  0  0  0  0  0  0  0  0  0  0  0
   39.1194    6.5006    6.5201 C   0  0  2  0  0  0  0  0  0  0  0  0
   36.3878    8.1342    4.4199 N   0  0  0  0  0  0  0  0  0  0  0  0
   39.8186    5.2324    6.3312 N   0  0  0  0  0  0  0  0  0  0  0  0
   36.9123    7.8718    9.2791 O   0  0  0  0  0  0  0  0  0  0  0  0
   35.9506    9.2966    7.0203 O   0  0  0  0  0  0  0  0  0  0  0  0
  1  2  1  0  0  0  0
  1 12  1  6  0  0  0
  1 13  1  0  0  0  0
  2  3  1  0  0  0  0
  2 10  1  6  0  0  0
  4  3  1  6  0  0  0
  4  5  1  0  0  0  0
  4 14  1  0  0  0  0
  5  6  1  0  0  0  0
  5 13  1  1  0  0  0
  6  7  1  0  0  0  0
  6 15  1  1  0  0  0
  7  8  1  0  0  0  0
  7 11  1  1  0  0  0
  8 14  1  0  0  0  0
  8 16  1  6  0  0  0
  9 11  1  0  0  0  0
 17 16  1  6  0  0  0
 17 18  1  0  0  0  0
 17 24  1  0  0  0  0
 18 19  1  0  0  0  0
 18 25  1  6  0  0  0
 19 20  1  0  0  0  0
 19 26  1  1  0  0  0
 20 21  1  0  0  0  0
 20 23  1  6  0  0  0
 21 22  1  1  0  0  0
 21 24  1  0  0  0  0
 22 27  1  0  0  0  0
 28 12  1  1  0  0  0
 28 29  1  0  0  0  0
 28 33  1  0  0  0  0
 29 30  1  0  0  0  0
 29 36  1  1  0  0  0
 30 31  1  0  0  0  0
 30 37  1  1  0  0  0
 31 32  1  0  0  0  0
 31 34  1  6  0  0  0
 32 33  1  0  0  0  0
 33 35  1  6  0  0  0
M  END
>  <CHROM.1>
169.36013915,129.52912678,-165.39565327,-163.74476177,164.10400321,96.05695553
40.28654248,2.59477457,9.11239170,-2.93993766,1.09633943,-2.06328260

>  <Name>
1yrj_lig

>  <RI>
0

>  <Rbt.Current_Directory>
/home/itssahil/PROJECTS/Mol_Feturizer/New_Systems/rnas/1yrj

>  <Rbt.Executable>
rbdock ($Id: //depot/dev/client3/rdock/2013.1/src/exe/rbdock.cxx#4 $)

>  <Rbt.Library>
libRbt.so (2013.1, Build901 2013/11/27)

>  <Rbt.Parameter_File>
/export/apps/rDock/src/rDock_2013.1_src/data/scripts/dock_solv.prm

>  <Rbt.Receptor>
prm/pocket_docking_5.prm

>  <SCORE>
-30.8398

>  <SCORE.INTER>
-26.4946

>  <SCORE.INTER.CONST>
1

>  <SCORE.INTER.POLAR>
-2.91815

>  <SCORE.INTER.ROT>
6

>  <SCORE.INTER.SOLV>
24.8692

>  <SCORE.INTER.VDW>
-23.8256

>  <SCORE.INTER.norm>
-0.716071

>  <SCORE.INTRA>
-4.34519

>  <SCORE.INTRA.DIHEDRAL>
-6.07626

>  <SCORE.INTRA.DIHEDRAL.0>
15.6389

>  <SCORE.INTRA.POLAR>
0

>  <SCORE.INTRA.POLAR.0>
0

>  <SCORE.INTRA.REPUL>
0

>  <SCORE.INTRA.REPUL.0>
0

>  <SCORE.INTRA.SOLV>
-2.16407

>  <SCORE.INTRA.SOLV.lig_0>
-90.9181

>  <SCORE.INTRA.VDW>
-0.22502

>  <SCORE.INTRA.VDW.0>
-3.14158

>  <SCORE.INTRA.norm>
-0.117437

>  <SCORE.RESTR>
0

>  <SCORE.RESTR.CAVITY>
0

>  <SCORE.RESTR.norm>
0

>  <SCORE.SYSTEM>
0

>  <SCORE.SYSTEM.CONST>
0

>  <SCORE.SYSTEM.DIHEDRAL>
0

>  <SCORE.SYSTEM.SOLV>
0

>  <SCORE.SYSTEM.norm>
0

>  <SCORE.heavy>
37

>  <SCORE.norm>
-0.833508

>  <RMSD>
1.195

$$$$
1yrj_lig
 OpenBabel11021811423D
libRbt.so/2013.1/901 2013/11/27
 37 40  0  0  0  0  0  0  0  0999 V2000
   39.2357    5.7657   10.2999 C   0  0  1  0  0  0  0  0  0  0  0  0
   40.5112    5.6121   11.1515 C   0  0  1  0  0  0  0  0  0  0  0  0
   41.4398    4.5197   10.5977 C   0  0  0  0  0  0  0  0  0  0  0  0
   40.6677    3.1808   10.4679 C   0  0  1  0  0  0  0  0  0  0  0  0
   39.4312    3.3698    9.5688 C   0  0  1  0  0  0  0  0  0  0  0  0
   38.6679    1.9843    9.4424 C   0  0  1  0  0  0  0  0  0  0  0  0
   39.6081    0.9284    8.8387 C   0  0  1  0  0  0  0  0  0  0  0  0
   40.8535    0.8128    9.7509 C   0  0  2  0  0  0  0  0  0  0  0  0
   38.9515   -1.0142    7.3215 C   0  0  0  0  0  0  0  0  0  0  0  0
   41.2417    6.8835   11.2815 N   0  0  0  0  0  0  0  0  0  0  0  0
   38.8809   -0.3677    8.6692 N   0  0  0  0  0  0  0  0  0  0  0  0
   39.4592    6.4233    9.0387 O   0  0  0  0  0  0  0  0  0  0  0  0
   38.5976    4.4436   10.1461 O   0  0  0  0  0  0  0  0  0  0  0  0
   41.5102    2.1032    9.9007 O   0  0  0  0  0  0  0  0  0  0  0  0
   38.2991    1.5326   10.7286 O   0  0  0  0  0  0  0  0  0  0  0  0
   41.8132   -0.1067    9.2283 O   0  0  0  0  0  0  0  0  0  0  0  0
   42.8800   -0.4088   10.1579 C   0  0  2  0  0  0  0  0  0  0  0  0
   44.0707   -1.1297    9.5052 C   0  0  1  0  0  0  0  0  0  0  0  0
   43.6882   -2.5733    9.0832 C   0  0  2  0  0  0  0  0  0  0  0  0
   43.1942   -3.3466   10.2844 C   0  0  1  0  0  0  0  0  0  0  0  0
   41.9795   -2.6125   10.9003 C   0  0  1  0  0  0  0  0  0  0  0  0
   41.4439   -3.3018   12.1532 C   0  0  0  0  0  0  0  0  0  0  0  0
   42.8341   -4.7125    9.8509 N   0  0  0  0  0  0  0  0  0  0  0  0
   42.3689   -1.2405   11.2723 O   0  0  0  0  0  0  0  0  0  0  0  0
   44.5227   -0.3415    8.3945 O   0  0  0  0  0  0  0  0  0  0  0  0
   44.8393   -3.2407    8.5481 O   0  0  0  0  0  0  0  0  0  0  0  0
   42.4502   -3.3427   13.1296 O   0  0  0  0  0  0  0  0  0  0  0  0
   38.4280    6.4910    7.9222 C   0  0  1  0  0  0  0  0  0  0  0  0
   37.6979    7.8454    8.0585 C   0  0  1  0  0  0  0  0  0  0  0  0
   36.6669    8.0422    6.9207 C   0  0  2  0  0  0  0  0  0  0  0  0
   37.3693    7.9713    5.5595 C   0  0  1  0  0  0  0  0  0  0  0  0
   38.0760    6.6017    5.3937 C   0  0  0  0  0  0  0  0  0  0  0  0
   39.1022    6.4351    6.5194 C   0  0  2  0  0  0  0  0  0  0  0  0
   36.3764    8.1491    4.4764 N   0  0  0  0  0  0  0  0  0  0  0  0
   39.7570    5.1452    6.3184 N   0  0  0  0  0  0  0  0  0  0  0  0
   37.0017    7.8804    9.3234 O   0  0  0  0  0  0  0  0  0  0  0  0
   36.0344    9.3299    7.0827 O   0  0  0  0  0  0  0  0  0  0  0  0
  1  2  1  0  0  0  0
  1 12  1  6  0  0  0
  1 13  1  0  0  0  0
  2  3  1  0  0  0  0
  2 10  1  6  0  0  0
  4  3  1  6  0  0  0
  4  5  1  0  0  0  0
  4 14  1  0  0  0  0
  5  6  1  0  0  0  0
  5 13  1  1  0  0  0
  6  7  1  0  0  0  0
  6 15  1  1  0  0  0
  7  8  1  0  0  0  0
  7 11  1  1  0  0  0
  8 14  1  0  0  0  0
  8 16  1  6  0  0  0
  9 11  1  0  0  0  0
 17 16  1  6  0  0  0
 17 18  1  0  0  0  0
 17 24  1  0  0  0  0
 18 19  1  0  0  0  0
 18 25  1  6  0  0  0
 19 20  1  0  0  0  0
 19 26  1  1  0  0  0
 20 21  1  0  0  0  0
 20 23  1  6  0  0  0
 21 22  1  1  0  0  0
 21 24  1  0  0  0  0
 22 27  1  0  0  0  0
 28 12  1  1  0  0  0
 28 29  1  0  0  0  0
 28 33  1  0  0  0  0
 29 30  1  0  0  0  0
 29 36  1  1  0  0  0
 30 31  1  0  0  0  0
 30 37  1  1  0  0  0
 31 32  1  0  0  0  0
 31 34  1  6  0  0  0
 32 33  1  0  0  0  0
 33 35  1  6  0  0  0
M  END
>  <CHROM.1>
169.32581238,128.73522466,-170.22237189,-166.80879071,60.42140376,96.18503542
40.28229799,2.49901335,9.13816204,-2.83652256,1.09216529,-2.18788676

>  <Name>
1yrj_lig

>  <RI>
0

>  <Rbt.Current_Directory>
/home/itssahil/PROJECTS/Mol_Feturizer/New_Systems/rnas/1yrj

>  <Rbt.Executable>
rbdock ($Id: //depot/dev/client3/rdock/2013.1/src/exe/rbdock.cxx#4 $)

>  <Rbt.Library>
libRbt.so (2013.1, Build901 2013/11/27)

>  <Rbt.Parameter_File>
/export/apps/rDock/src/rDock_2013.1_src/data/scripts/dock_solv.prm

>  <Rbt.Receptor>
prm/pocket_docking_3.prm

>  <SCORE>
-29.5394

>  <SCORE.INTER>
-24.6653

>  <SCORE.INTER.CONST>
1

>  <SCORE.INTER.POLAR>
-2.48713

>  <SCORE.INTER.ROT>
6

>  <SCORE.INTER.SOLV>
24.1845

>  <SCORE.INTER.VDW>
-23.8146

>  <SCORE.INTER.norm>
-0.666629

>  <SCORE.INTRA>
-4.8741

>  <SCORE.INTRA.DIHEDRAL>
-7.8328

>  <SCORE.INTRA.DIHEDRAL.0>
15.6389

>  <SCORE.INTRA.POLAR>
0

>  <SCORE.INTRA.POLAR.0>
0

>  <SCORE.INTRA.REPUL>
0

>  <SCORE.INTRA.REPUL.0>
0

>  <SCORE.INTRA.SOLV>
-1.55346

>  <SCORE.INTRA.SOLV.lig_0>
-90.9181

>  <SCORE.INTRA.VDW>
-0.180967

>  <SCORE.INTRA.VDW.0>
-3.14158

>  <SCORE.INTRA.norm>
-0.131732

>  <SCORE.RESTR>
0

>  <SCORE.RESTR.CAVITY>
0

>  <SCORE.RESTR.norm>
0

>  <SCORE.SYSTEM>
0

>  <SCORE.SYSTEM.CONST>
0

>  <SCORE.SYSTEM.DIHEDRAL>
0

>  <SCORE.SYSTEM.SOLV>
0

>  <SCORE.SYSTEM.norm>
0

>  <SCORE.heavy>
37

>  <SCORE.norm>
-0.798362

>  <RMSD>
1.205

$$$$
1yrj_lig
 OpenBabel11021811423D
libRbt.so/2013.1/901 2013/11/27
 37 40  0  0  0  0  0  0  0  0999 V2000
   39.1044    5.6502   10.1307 C   0  0  1  0  0  0  0  0  0  0  0  0
   40.3297    5.5533   11.0606 C   0  0  1  0  0  0  0  0  0  0  0  0
   41.3201    4.4762   10.5903 C   0  0  0  0  0  0  0  0  0  0  0  0
   40.5947    3.1127   10.4473 C   0  0  1  0  0  0  0  0  0  0  0  0
   39.4101    3.2450    9.4716 C   0  0  1  0  0  0  0  0  0  0  0  0
   38.6945    1.8353    9.3336 C   0  0  1  0  0  0  0  0  0  0  0  0
   39.6985    0.7938    8.8134 C   0  0  1  0  0  0  0  0  0  0  0  0
   40.8891    0.7353    9.8010 C   0  0  2  0  0  0  0  0  0  0  0  0
   38.1036   -0.6631    7.4567 C   0  0  0  0  0  0  0  0  0  0  0  0
   41.0155    6.8481   11.2028 N   0  0  0  0  0  0  0  0  0  0  0  0
   39.0191   -0.5265    8.6325 N   0  0  0  0  0  0  0  0  0  0  0  0
   39.3855    6.2852    8.8693 O   0  0  0  0  0  0  0  0  0  0  0  0
   38.5136    4.3070    9.9714 O   0  0  0  0  0  0  0  0  0  0  0  0
   41.4995    2.0475    9.9582 O   0  0  0  0  0  0  0  0  0  0  0  0
   38.2612    1.4024   10.6062 O   0  0  0  0  0  0  0  0  0  0  0  0
   41.9038   -0.1674    9.3595 O   0  0  0  0  0  0  0  0  0  0  0  0
   42.9933   -0.3072   10.3013 C   0  0  2  0  0  0  0  0  0  0  0  0
   44.2420   -0.9677    9.6946 C   0  0  1  0  0  0  0  0  0  0  0  0
   43.9864   -2.4660    9.3811 C   0  0  2  0  0  0  0  0  0  0  0  0
   43.5621   -3.1896   10.6386 C   0  0  1  0  0  0  0  0  0  0  0  0
   42.2884   -2.5208   11.2077 C   0  0  1  0  0  0  0  0  0  0  0  0
   41.8152   -3.1608   12.5109 C   0  0  0  0  0  0  0  0  0  0  0  0
   43.3221   -4.6095   10.3078 N   0  0  0  0  0  0  0  0  0  0  0  0
   42.5570   -1.0967   11.4765 O   0  0  0  0  0  0  0  0  0  0  0  0
   44.6231   -0.2263    8.5266 O   0  0  0  0  0  0  0  0  0  0  0  0
   45.1910   -3.0682    8.8881 O   0  0  0  0  0  0  0  0  0  0  0  0
   42.7708   -2.9388   13.5136 O   0  0  0  0  0  0  0  0  0  0  0  0
   38.3738    6.4157    7.7407 C   0  0  1  0  0  0  0  0  0  0  0  0
   37.6435    7.7626    7.9375 C   0  0  1  0  0  0  0  0  0  0  0  0
   36.6327    8.0232    6.7946 C   0  0  2  0  0  0  0  0  0  0  0  0
   37.3582    8.0243    5.4438 C   0  0  1  0  0  0  0  0  0  0  0  0
   38.0656    6.6639    5.2163 C   0  0  0  0  0  0  0  0  0  0  0  0
   39.0720    6.4341    6.3486 C   0  0  2  0  0  0  0  0  0  0  0  0
   36.3845    8.2629    4.3550 N   0  0  0  0  0  0  0  0  0  0  0  0
   39.7281    5.1553    6.0893 N   0  0  0  0  0  0  0  0  0  0  0  0
   36.9257    7.7309    9.1903 O   0  0  0  0  0  0  0  0  0  0  0  0
   35.9995    9.3019    7.0152 O   0  0  0  0  0  0  0  0  0  0  0  0
  1  2  1  0  0  0  0
  1 12  1  6  0  0  0
  1 13  1  0  0  0  0
  2  3  1  0  0  0  0
  2 10  1  6  0  0  0
  4  3  1  6  0  0  0
  4  5  1  0  0  0  0
  4 14  1  0  0  0  0
  5  6  1  0  0  0  0
  5 13  1  1  0  0  0
  6  7  1  0  0  0  0
  6 15  1  1  0  0  0
  7  8  1  0  0  0  0
  7 11  1  1  0  0  0
  8 14  1  0  0  0  0
  8 16  1  6  0  0  0
  9 11  1  0  0  0  0
 17 16  1  6  0  0  0
 17 18  1  0  0  0  0
 17 24  1  0  0  0  0
 18 19  1  0  0  0  0
 18 25  1  6  0  0  0
 19 20  1  0  0  0  0
 19 26  1  1  0  0  0
 20 21  1  0  0  0  0
 20 23  1  6  0  0  0
 21 22  1  1  0  0  0
 21 24  1  0  0  0  0
 22 27  1  0  0  0  0
 28 12  1  1  0  0  0
 28 29  1  0  0  0  0
 28 33  1  0  0  0  0
 29 30  1  0  0  0  0
 29 36  1  1  0  0  0
 30 31  1  0  0  0  0
 30 37  1  1  0  0  0
 31 32  1  0  0  0  0
 31 34  1  6  0  0  0
 32 33  1  0  0  0  0
 33 35  1  6  0  0  0
M  END
>  <CHROM.1>
175.54432711,74.26854158,-176.41449179,-164.85052152,65.64107155,91.17150131
40.31733954,2.51258634,9.16703373,-2.92861150,1.07547492,-2.14000801

>  <Name>
1yrj_lig

>  <RI>
0

>  <Rbt.Current_Directory>
/home/itssahil/PROJECTS/Mol_Feturizer/New_Systems/rnas/1yrj

>  <Rbt.Executable>
rbdock ($Id: //depot/dev/client3/rdock/2013.1/src/exe/rbdock.cxx#4 $)

>  <Rbt.Library>
libRbt.so (2013.1, Build901 2013/11/27)

>  <Rbt.Parameter_File>
/export/apps/rDock/src/rDock_2013.1_src/data/scripts/dock_solv.prm

>  <Rbt.Receptor>
prm/pocket_docking_5.prm

>  <SCORE>
-29.9907

>  <SCORE.INTER>
-24.5391

>  <SCORE.INTER.CONST>
1

>  <SCORE.INTER.POLAR>
-2.44829

>  <SCORE.INTER.ROT>
6

>  <SCORE.INTER.SOLV>
24.5015

>  <SCORE.INTER.VDW>
-23.9656

>  <SCORE.INTER.norm>
-0.66322

>  <SCORE.INTRA>
-5.45157

>  <SCORE.INTRA.DIHEDRAL>
-10.2075

>  <SCORE.INTRA.DIHEDRAL.0>
15.6389

>  <SCORE.INTRA.POLAR>
0

>  <SCORE.INTRA.POLAR.0>
0

>  <SCORE.INTRA.REPUL>
0

>  <SCORE.INTRA.REPUL.0>
0

>  <SCORE.INTRA.SOLV>
-1.87755

>  <SCORE.INTRA.SOLV.lig_0>
-90.9181

>  <SCORE.INTRA.VDW>
0.590951

>  <SCORE.INTRA.VDW.0>
-3.14158

>  <SCORE.INTRA.norm>
-0.14734

>  <SCORE.RESTR>
0

>  <SCORE.RESTR.CAVITY>
0

>  <SCORE.RESTR.norm>
0

>  <SCORE.SYSTEM>
0

>  <SCORE.SYSTEM.CONST>
0

>  <SCORE.SYSTEM.DIHEDRAL>
0

>  <SCORE.SYSTEM.SOLV>
0

>  <SCORE.SYSTEM.norm>
0

>  <SCORE.heavy>
37

>  <SCORE.norm>
-0.81056

>  <RMSD>
1.245

$$$$
1yrj_lig
 OpenBabel11021811423D
libRbt.so/2013.1/901 2013/11/27
 37 40  0  0  0  0  0  0  0  0999 V2000
   39.2340    5.5850   10.2426 C   0  0  1  0  0  0  0  0  0  0  0  0
   40.5140    5.4070   11.0825 C   0  0  1  0  0  0  0  0  0  0  0  0
   41.4260    4.3108   10.5088 C   0  0  0  0  0  0  0  0  0  0  0  0
   40.6377    2.9823   10.3693 C   0  0  1  0  0  0  0  0  0  0  0  0
   39.3967    3.1958    9.4820 C   0  0  1  0  0  0  0  0  0  0  0  0
   38.6167    1.8207    9.3451 C   0  0  1  0  0  0  0  0  0  0  0  0
   39.5403    0.7614    8.7219 C   0  0  1  0  0  0  0  0  0  0  0  0
   40.7911    0.6210    9.6232 C   0  0  2  0  0  0  0  0  0  0  0  0
   37.8413   -0.6012    7.3941 C   0  0  0  0  0  0  0  0  0  0  0  0
   41.2599    6.6684   11.2218 N   0  0  0  0  0  0  0  0  0  0  0  0
   38.7972   -0.5243    8.5428 N   0  0  0  0  0  0  0  0  0  0  0  0
   39.4554    6.2549    8.9875 O   0  0  0  0  0  0  0  0  0  0  0  0
   38.5797    4.2721   10.0782 O   0  0  0  0  0  0  0  0  0  0  0  0
   41.4636    1.9021    9.7830 O   0  0  0  0  0  0  0  0  0  0  0  0
   38.2525    1.3579   10.6288 O   0  0  0  0  0  0  0  0  0  0  0  0
   41.7363   -0.3030    9.0824 O   0  0  0  0  0  0  0  0  0  0  0  0
   42.7774   -0.6686   10.0184 C   0  0  2  0  0  0  0  0  0  0  0  0
   43.8974   -1.5104    9.3854 C   0  0  1  0  0  0  0  0  0  0  0  0
   43.3883   -2.9273    9.0091 C   0  0  2  0  0  0  0  0  0  0  0  0
   42.8347   -3.6174   10.2347 C   0  0  1  0  0  0  0  0  0  0  0  0
   41.6919   -2.7616   10.8305 C   0  0  1  0  0  0  0  0  0  0  0  0
   41.1044   -3.3628   12.1054 C   0  0  0  0  0  0  0  0  0  0  0  0
   42.3547   -4.9592    9.8444 N   0  0  0  0  0  0  0  0  0  0  0  0
   42.2013   -1.4182   11.1591 O   0  0  0  0  0  0  0  0  0  0  0  0
   44.4108   -0.7990    8.2499 O   0  0  0  0  0  0  0  0  0  0  0  0
   44.4741   -3.7087    8.4921 O   0  0  0  0  0  0  0  0  0  0  0  0
   42.1126   -3.4797   13.0737 O   0  0  0  0  0  0  0  0  0  0  0  0
   38.4064    6.3738    7.8921 C   0  0  1  0  0  0  0  0  0  0  0  0
   37.7531    7.7660    8.0368 C   0  0  1  0  0  0  0  0  0  0  0  0
   36.7107    8.0138    6.9196 C   0  0  2  0  0  0  0  0  0  0  0  0
   37.3798    7.9002    5.5446 C   0  0  1  0  0  0  0  0  0  0  0  0
   38.0084    6.4940    5.3709 C   0  0  0  0  0  0  0  0  0  0  0  0
   39.0474    6.2766    6.4760 C   0  0  2  0  0  0  0  0  0  0  0  0
   36.3757    8.1272    4.4813 N   0  0  0  0  0  0  0  0  0  0  0  0
   39.6276    4.9526    6.2678 N   0  0  0  0  0  0  0  0  0  0  0  0
   37.0861    7.8432    9.3156 O   0  0  0  0  0  0  0  0  0  0  0  0
   36.1518    9.3343    7.0884 O   0  0  0  0  0  0  0  0  0  0  0  0
  1  2  1  0  0  0  0
  1 12  1  6  0  0  0
  1 13  1  0  0  0  0
  2  3  1  0  0  0  0
  2 10  1  6  0  0  0
  4  3  1  6  0  0  0
  4  5  1  0  0  0  0
  4 14  1  0  0  0  0
  5  6  1  0  0  0  0
  5 13  1  1  0  0  0
  6  7  1  0  0  0  0
  6 15  1  1  0  0  0
  7  8  1  0  0  0  0
  7 11  1  1  0  0  0
  8 14  1  0  0  0  0
  8 16  1  6  0  0  0
  9 11  1  0  0  0  0
 17 16  1  6  0  0  0
 17 18  1  0  0  0  0
 17 24  1  0  0  0  0
 18 19  1  0  0  0  0
 18 25  1  6  0  0  0
 19 20  1  0  0  0  0
 19 26  1  1  0  0  0
 20 21  1  0  0  0  0
 20 23  1  6  0  0  0
 21 22  1  1  0  0  0
 21 24  1  0  0  0  0
 22 27  1  0  0  0  0
 28 12  1  1  0  0  0
 28 29  1  0  0  0  0
 28 33  1  0  0  0  0
 29 30  1  0  0  0  0
 29 36  1  1  0  0  0
 30 31  1  0  0  0  0
 30 37  1  1  0  0  0
 31 32  1  0  0  0  0
 31 34  1  6  0  0  0
 32 33  1  0  0  0  0
 33 35  1  6  0  0  0
M  END
>  <CHROM.1>
170.72871817,76.71978505,-167.93051634,-172.24802198,59.57091213,97.84460440
40.15591164,2.33366820,9.07332256,-2.66282670,1.08279202,-2.37105468

>  <Name>
1yrj_lig

>  <RI>
0

>  <Rbt.Current_Directory>
/home/itssahil/PROJECTS/Mol_Feturizer/New_Systems/rnas/1yrj

>  <Rbt.Executable>
rbdock ($Id: //depot/dev/client3/rdock/2013.1/src/exe/rbdock.cxx#4 $)

>  <Rbt.Library>
libRbt.so (2013.1, Build901 2013/11/27)

>  <Rbt.Parameter_File>
/export/apps/rDock/src/rDock_2013.1_src/data/scripts/dock_solv.prm

>  <Rbt.Receptor>
prm/pocket_docking_4.prm

>  <SCORE>
-30.2157

>  <SCORE.INTER>
-25.311

>  <SCORE.INTER.CONST>
1

>  <SCORE.INTER.POLAR>
-2.48434

>  <SCORE.INTER.ROT>
6

>  <SCORE.INTER.SOLV>
24.1735

>  <SCORE.INTER.VDW>
-24.2507

>  <SCORE.INTER.norm>
-0.684081

>  <SCORE.INTRA>
-4.90466

>  <SCORE.INTRA.DIHEDRAL>
-8.89021

>  <SCORE.INTRA.DIHEDRAL.0>
15.6389

>  <SCORE.INTRA.POLAR>
0

>  <SCORE.INTRA.POLAR.0>
0

>  <SCORE.INTRA.REPUL>
0

>  <SCORE.INTRA.REPUL.0>
0

>  <SCORE.INTRA.SOLV>
-1.38291

>  <SCORE.INTRA.SOLV.lig_0>
-90.9181

>  <SCORE.INTRA.VDW>
0.231904

>  <SCORE.INTRA.VDW.0>
-3.14158

>  <SCORE.INTRA.norm>
-0.132558

>  <SCORE.RESTR>
0

>  <SCORE.RESTR.CAVITY>
0

>  <SCORE.RESTR.norm>
0

>  <SCORE.SYSTEM>
0

>  <SCORE.SYSTEM.CONST>
0

>  <SCORE.SYSTEM.DIHEDRAL>
0

>  <SCORE.SYSTEM.SOLV>
0

>  <SCORE.SYSTEM.norm>
0

>  <SCORE.heavy>
37

>  <SCORE.norm>
-0.816639

>  <RMSD>
1.263

$$$$
1yrj_lig
 OpenBabel11021811423D
libRbt.so/2013.1/901 2013/11/27
 37 40  0  0  0  0  0  0  0  0999 V2000
   39.3346    5.7193   10.3774 C   0  0  1  0  0  0  0  0  0  0  0  0
   40.6437    5.4971   11.1600 C   0  0  1  0  0  0  0  0  0  0  0  0
   41.5016    4.3856   10.5346 C   0  0  0  0  0  0  0  0  0  0  0  0
   40.6735    3.0799   10.4123 C   0  0  1  0  0  0  0  0  0  0  0  0
   39.4022    3.3371    9.5812 C   0  0  1  0  0  0  0  0  0  0  0  0
   38.5813    1.9845    9.4607 C   0  0  1  0  0  0  0  0  0  0  0  0
   39.4496    0.9103    8.7858 C   0  0  1  0  0  0  0  0  0  0  0  0
   40.7331    0.7255    9.6313 C   0  0  2  0  0  0  0  0  0  0  0  0
   37.9468   -0.5429    7.3242 C   0  0  0  0  0  0  0  0  0  0  0  0
   41.4278    6.7369   11.2829 N   0  0  0  0  0  0  0  0  0  0  0  0
   38.6660   -0.3534    8.6226 N   0  0  0  0  0  0  0  0  0  0  0  0
   39.5205    6.4001    9.1224 O   0  0  0  0  0  0  0  0  0  0  0  0
   38.6397    4.4260   10.2248 O   0  0  0  0  0  0  0  0  0  0  0  0
   41.4452    1.9867    9.7783 O   0  0  0  0  0  0  0  0  0  0  0  0
   38.2594    1.5141   10.7529 O   0  0  0  0  0  0  0  0  0  0  0  0
   41.6301   -0.2151    9.0396 O   0  0  0  0  0  0  0  0  0  0  0  0
   42.7095   -0.6070    9.9200 C   0  0  2  0  0  0  0  0  0  0  0  0
   43.7911   -1.4469    9.2212 C   0  0  1  0  0  0  0  0  0  0  0  0
   43.2516   -2.8521    8.8435 C   0  0  2  0  0  0  0  0  0  0  0  0
   42.7483   -3.5595   10.0808 C   0  0  1  0  0  0  0  0  0  0  0  0
   41.6422   -2.7048   10.7437 C   0  0  1  0  0  0  0  0  0  0  0  0
   41.1081   -3.3240   12.0333 C   0  0  0  0  0  0  0  0  0  0  0  0
   42.2379   -4.8898    9.6891 N   0  0  0  0  0  0  0  0  0  0  0  0
   42.1791   -1.3721   11.0724 O   0  0  0  0  0  0  0  0  0  0  0  0
   44.2587   -0.7193    8.0761 O   0  0  0  0  0  0  0  0  0  0  0  0
   44.3050   -3.6334    8.2632 O   0  0  0  0  0  0  0  0  0  0  0  0
   42.1368   -3.3791   12.9855 O   0  0  0  0  0  0  0  0  0  0  0  0
   38.4657    6.4660    8.0281 C   0  0  1  0  0  0  0  0  0  0  0  0
   37.7598    7.8338    8.1582 C   0  0  1  0  0  0  0  0  0  0  0  0
   36.7067    8.0286    7.0405 C   0  0  2  0  0  0  0  0  0  0  0  0
   37.3771    7.9246    5.6655 C   0  0  1  0  0  0  0  0  0  0  0  0
   38.0587    6.5415    5.5066 C   0  0  0  0  0  0  0  0  0  0  0  0
   39.1073    6.3768    6.6118 C   0  0  2  0  0  0  0  0  0  0  0  0
   36.3631    8.1006    4.6019 N   0  0  0  0  0  0  0  0  0  0  0  0
   39.7373    5.0737    6.4176 N   0  0  0  0  0  0  0  0  0  0  0  0
   37.0928    7.9003    9.4375 O   0  0  0  0  0  0  0  0  0  0  0  0
   36.0980    9.3286    7.1953 O   0  0  0  0  0  0  0  0  0  0  0  0
  1  2  1  0  0  0  0
  1 12  1  6  0  0  0
  1 13  1  0  0  0  0
  2  3  1  0  0  0  0
  2 10  1  6  0  0  0
  4  3  1  6  0  0  0
  4  5  1  0  0  0  0
  4 14  1  0  0  0  0
  5  6  1  0  0  0  0
  5 13  1  1  0  0  0
  6  7  1  0  0  0  0
  6 15  1  1  0  0  0
  7  8  1  0  0  0  0
  7 11  1  1  0  0  0
  8 14  1  0  0  0  0
  8 16  1  6  0  0  0
  9 11  1  0  0  0  0
 17 16  1  6  0  0  0
 17 18  1  0  0  0  0
 17 24  1  0  0  0  0
 18 19  1  0  0  0  0
 18 25  1  6  0  0  0
 19 20  1  0  0  0  0
 19 26  1  1  0  0  0
 20 21  1  0  0  0  0
 20 23  1  6  0  0  0
 21 22  1  1  0  0  0
 21 24  1  0  0  0  0
 22 27  1  0  0  0  0
 28 12  1  1  0  0  0
 28 29  1  0  0  0  0
 28 33  1  0  0  0  0
 29 30  1  0  0  0  0
 29 36  1  1  0  0  0
 30 31  1  0  0  0  0
 30 37  1  1  0  0  0
 31 32  1  0  0  0  0
 31 34  1  6  0  0  0
 32 33  1  0  0  0  0
 33 35  1  6  0  0  0
M  END
>  <CHROM.1>
165.68224276,92.92208635,-168.67668041,-171.18428267,63.76936331,98.84043266
40.14593936,2.41744850,9.09345144,-2.62622755,1.07971045,-2.38610266

>  <Name>
1yrj_lig

>  <RI>
0

>  <Rbt.Current_Directory>
/home/itssahil/PROJECTS/Mol_Feturizer/New_Systems/rnas/1yrj

>  <Rbt.Executable>
rbdock ($Id: //depot/dev/client3/rdock/2013.1/src/exe/rbdock.cxx#4 $)

>  <Rbt.Library>
libRbt.so (2013.1, Build901 2013/11/27)

>  <Rbt.Parameter_File>
/export/apps/rDock/src/rDock_2013.1_src/data/scripts/dock_solv.prm

>  <Rbt.Receptor>
prm/pocket_docking_3.prm

>  <SCORE>
-30.1204

>  <SCORE.INTER>
-25.6264

>  <SCORE.INTER.CONST>
1

>  <SCORE.INTER.POLAR>
-2.53646

>  <SCORE.INTER.ROT>
6

>  <SCORE.INTER.SOLV>
24.4361

>  <SCORE.INTER.VDW>
-24.3748

>  <SCORE.INTER.norm>
-0.692606

>  <SCORE.INTRA>
-4.49402

>  <SCORE.INTRA.DIHEDRAL>
-7.65132

>  <SCORE.INTRA.DIHEDRAL.0>
15.6389

>  <SCORE.INTRA.POLAR>
0

>  <SCORE.INTRA.POLAR.0>
0

>  <SCORE.INTRA.REPUL>
0

>  <SCORE.INTRA.REPUL.0>
0

>  <SCORE.INTRA.SOLV>
-1.3057

>  <SCORE.INTRA.SOLV.lig_0>
-90.9181

>  <SCORE.INTRA.VDW>
-0.0155111

>  <SCORE.INTRA.VDW.0>
-3.14158

>  <SCORE.INTRA.norm>
-0.12146

>  <SCORE.RESTR>
0

>  <SCORE.RESTR.CAVITY>
0

>  <SCORE.RESTR.norm>
0

>  <SCORE.SYSTEM>
0

>  <SCORE.SYSTEM.CONST>
0

>  <SCORE.SYSTEM.DIHEDRAL>
0

>  <SCORE.SYSTEM.SOLV>
0

>  <SCORE.SYSTEM.norm>
0

>  <SCORE.heavy>
37

>  <SCORE.norm>
-0.814066

>  <RMSD>
1.275

$$$$
1yrj_lig
 OpenBabel11021811423D
libRbt.so/2013.1/901 2013/11/27
 37 40  0  0  0  0  0  0  0  0999 V2000
   39.2508    5.6192   10.2525 C   0  0  1  0  0  0  0  0  0  0  0  0
   40.5309    5.4420   11.0924 C   0  0  1  0  0  0  0  0  0  0  0  0
   41.4309    4.3281   10.5342 C   0  0  0  0  0  0  0  0  0  0  0  0
   40.6296    3.0053   10.4174 C   0  0  1  0  0  0  0  0  0  0  0  0
   39.3886    3.2167    9.5296 C   0  0  1  0  0  0  0  0  0  0  0  0
   38.5951    1.8473    9.4163 C   0  0  1  0  0  0  0  0  0  0  0  0
   39.5069    0.7693    8.8079 C   0  0  1  0  0  0  0  0  0  0  0  0
   40.7584    0.6310    9.7086 C   0  0  2  0  0  0  0  0  0  0  0  0
   37.7748   -0.5893    7.5194 C   0  0  0  0  0  0  0  0  0  0  0  0
   41.2894    6.6982   11.2100 N   0  0  0  0  0  0  0  0  0  0  0  0
   38.7510   -0.5118    8.6509 N   0  0  0  0  0  0  0  0  0  0  0  0
   39.4758    6.2669    8.9864 O   0  0  0  0  0  0  0  0  0  0  0  0
   38.5835    4.3103   10.1104 O   0  0  0  0  0  0  0  0  0  0  0  0
   41.4436    1.9079    9.8467 O   0  0  0  0  0  0  0  0  0  0  0  0
   38.2293    1.4085   10.7079 O   0  0  0  0  0  0  0  0  0  0  0  0
   41.6934   -0.3105    9.1806 O   0  0  0  0  0  0  0  0  0  0  0  0
   42.8171   -0.5537   10.0590 C   0  0  2  0  0  0  0  0  0  0  0  0
   43.9532   -1.3444    9.3900 C   0  0  1  0  0  0  0  0  0  0  0  0
   43.5275   -2.8110    9.1139 C   0  0  2  0  0  0  0  0  0  0  0  0
   43.1072   -3.4764   10.4044 C   0  0  1  0  0  0  0  0  0  0  0  0
   41.9448   -2.6752   11.0372 C   0  0  1  0  0  0  0  0  0  0  0  0
   41.4874   -3.2520   12.3751 C   0  0  0  0  0  0  0  0  0  0  0  0
   42.7040   -4.8669   10.1090 N   0  0  0  0  0  0  0  0  0  0  0  0
   42.3732   -1.2842   11.2691 O   0  0  0  0  0  0  0  0  0  0  0  0
   44.3378   -0.6562    8.1911 O   0  0  0  0  0  0  0  0  0  0  0  0
   44.6327   -3.5382    8.5601 O   0  0  0  0  0  0  0  0  0  0  0  0
   40.9194   -4.5178   12.1678 O   0  0  0  0  0  0  0  0  0  0  0  0
   38.4274    6.3732    7.8892 C   0  0  1  0  0  0  0  0  0  0  0  0
   37.7569    7.7573    8.0329 C   0  0  1  0  0  0  0  0  0  0  0  0
   36.7136    7.9926    6.9138 C   0  0  2  0  0  0  0  0  0  0  0  0
   37.3866    7.8874    5.5400 C   0  0  1  0  0  0  0  0  0  0  0  0
   38.0326    6.4890    5.3673 C   0  0  0  0  0  0  0  0  0  0  0  0
   39.0721    6.2840    6.4742 C   0  0  2  0  0  0  0  0  0  0  0  0
   36.3817    8.1023    4.4749 N   0  0  0  0  0  0  0  0  0  0  0  0
   39.6688    4.9673    6.2669 N   0  0  0  0  0  0  0  0  0  0  0  0
   37.0867    7.8261    9.3105 O   0  0  0  0  0  0  0  0  0  0  0  0
   36.1383    9.3061    7.0818 O   0  0  0  0  0  0  0  0  0  0  0  0
  1  2  1  0  0  0  0
  1 12  1  6  0  0  0
  1 13  1  0  0  0  0
  2  3  1  0  0  0  0
  2 10  1  6  0  0  0
  4  3  1  6  0  0  0
  4  5  1  0  0  0  0
  4 14  1  0  0  0  0
  5  6  1  0  0  0  0
  5 13  1  1  0  0  0
  6  7  1  0  0  0  0
  6 15  1  1  0  0  0
  7  8  1  0  0  0  0
  7 11  1  1  0  0  0
  8 14  1  0  0  0  0
  8 16  1  6  0  0  0
  9 11  1  0  0  0  0
 17 16  1  6  0  0  0
 17 18  1  0  0  0  0
 17 24  1  0  0  0  0
 18 19  1  0  0  0  0
 18 25  1  6  0  0  0
 19 20  1  0  0  0  0
 19 26  1  1  0  0  0
 20 21  1  0  0  0  0
 20 23  1  6  0  0  0
 21 22  1  1  0  0  0
 21 24  1  0  0  0  0
 22 27  1  0  0  0  0
 28 12  1  1  0  0  0
 28 29  1  0  0  0  0
 28 33  1  0  0  0  0
 29 30  1  0  0  0  0
 29 36  1  1  0  0  0
 30 31  1  0  0  0  0
 30 37  1  1  0  0  0
 31 32  1  0  0  0  0
 31 34  1  6  0  0  0
 32 33  1  0  0  0  0
 33 35  1  6  0  0  0
M  END
>  <CHROM.1>
170.44541142,75.71540401,-174.69606141,-168.75143683,-66.07287924,96.44807752
40.16292806,2.34276856,9.09957811,-2.57054663,1.05619361,-2.47812044

>  <Name>
1yrj_lig

>  <RI>
0

>  <Rbt.Current_Directory>
/home/itssahil/PROJECTS/Mol_Feturizer/New_Systems/rnas/1yrj

>  <Rbt.Executable>
rbdock ($Id: //depot/dev/client3/rdock/2013.1/src/exe/rbdock.cxx#4 $)

>  <Rbt.Library>
libRbt.so (2013.1, Build901 2013/11/27)

>  <Rbt.Parameter_File>
/export/apps/rDock/src/rDock_2013.1_src/data/scripts/dock_solv.prm

>  <Rbt.Receptor>
prm/pocket_docking_6.prm

>  <SCORE>
-29.6741

>  <SCORE.INTER>
-24.9207

>  <SCORE.INTER.CONST>
1

>  <SCORE.INTER.POLAR>
-2.47493

>  <SCORE.INTER.ROT>
6

>  <SCORE.INTER.SOLV>
24.4122

>  <SCORE.INTER.VDW>
-24.1014

>  <SCORE.INTER.norm>
-0.673532

>  <SCORE.INTRA>
-4.75341

>  <SCORE.INTRA.DIHEDRAL>
-9.24625

>  <SCORE.INTRA.DIHEDRAL.0>
15.6389

>  <SCORE.INTRA.POLAR>
0

>  <SCORE.INTRA.POLAR.0>
0

>  <SCORE.INTRA.REPUL>
0

>  <SCORE.INTRA.REPUL.0>
0

>  <SCORE.INTRA.SOLV>
-1.20662

>  <SCORE.INTRA.SOLV.lig_0>
-90.9181

>  <SCORE.INTRA.VDW>
0.473028

>  <SCORE.INTRA.VDW.0>
-3.14158

>  <SCORE.INTRA.norm>
-0.12847

>  <SCORE.RESTR>
0

>  <SCORE.RESTR.CAVITY>
0

>  <SCORE.RESTR.norm>
0

>  <SCORE.SYSTEM>
0

>  <SCORE.SYSTEM.CONST>
0

>  <SCORE.SYSTEM.DIHEDRAL>
0

>  <SCORE.SYSTEM.SOLV>
0

>  <SCORE.SYSTEM.norm>
0

>  <SCORE.heavy>
37

>  <SCORE.norm>
-0.802003

>  <RMSD>
1.282

$$$$
1yrj_lig
 OpenBabel11021811423D
libRbt.so/2013.1/901 2013/11/27
 37 40  0  0  0  0  0  0  0  0999 V2000
   39.2095    5.8694   10.4825 C   0  0  1  0  0  0  0  0  0  0  0  0
   40.5059    5.7148   11.3015 C   0  0  1  0  0  0  0  0  0  0  0  0
   41.4620    4.6904   10.6700 C   0  0  0  0  0  0  0  0  0  0  0  0
   40.7358    3.3335   10.4772 C   0  0  1  0  0  0  0  0  0  0  0  0
   39.4760    3.5275    9.6121 C   0  0  1  0  0  0  0  0  0  0  0  0
   38.7603    2.1244    9.4198 C   0  0  1  0  0  0  0  0  0  0  0  0
   39.7256    1.1396    8.7403 C   0  0  1  0  0  0  0  0  0  0  0  0
   40.9918    1.0183    9.6226 C   0  0  2  0  0  0  0  0  0  0  0  0
   38.0691   -0.2378    7.3745 C   0  0  0  0  0  0  0  0  0  0  0  0
   41.1931    7.0027   11.4914 N   0  0  0  0  0  0  0  0  0  0  0  0
   39.0420   -0.1706    8.5095 N   0  0  0  0  0  0  0  0  0  0  0  0
   39.3847    6.6052    9.2573 O   0  0  0  0  0  0  0  0  0  0  0  0
   38.6160    4.5357   10.2644 O   0  0  0  0  0  0  0  0  0  0  0  0
   41.6049    2.3215    9.8346 O   0  0  0  0  0  0  0  0  0  0  0  0
   38.4329    1.5873   10.6843 O   0  0  0  0  0  0  0  0  0  0  0  0
   41.9734    0.1658    9.0315 O   0  0  0  0  0  0  0  0  0  0  0  0
   43.2079    0.1085    9.7839 C   0  0  2  0  0  0  0  0  0  0  0  0
   44.3950   -0.4270    8.9668 C   0  0  1  0  0  0  0  0  0  0  0  0
   44.2220   -1.9366    8.6516 C   0  0  2  0  0  0  0  0  0  0  0  0
   44.0690   -2.7164    9.9373 C   0  0  1  0  0  0  0  0  0  0  0  0
   42.8506   -2.1744   10.7216 C   0  0  1  0  0  0  0  0  0  0  0  0
   42.6497   -2.8761   12.0629 C   0  0  0  0  0  0  0  0  0  0  0  0
   43.9019   -4.1465    9.6050 N   0  0  0  0  0  0  0  0  0  0  0  0
   43.0355   -0.7367   10.9884 O   0  0  0  0  0  0  0  0  0  0  0  0
   44.5185    0.3652    7.7767 O   0  0  0  0  0  0  0  0  0  0  0  0
   45.3791   -2.4199    7.9554 O   0  0  0  0  0  0  0  0  0  0  0  0
   41.5450   -2.3161   12.7217 O   0  0  0  0  0  0  0  0  0  0  0  0
   38.3808    6.6020    8.1143 C   0  0  1  0  0  0  0  0  0  0  0  0
   37.6138    7.9412    8.1784 C   0  0  1  0  0  0  0  0  0  0  0  0
   36.6075    8.0662    7.0089 C   0  0  2  0  0  0  0  0  0  0  0  0
   37.3456    7.9600    5.6692 C   0  0  1  0  0  0  0  0  0  0  0  0
   38.0904    6.6038    5.5756 C   0  0  0  0  0  0  0  0  0  0  0  0
   39.0916    6.5084    6.7316 C   0  0  2  0  0  0  0  0  0  0  0  0
   36.3765    8.0691    4.5559 N   0  0  0  0  0  0  0  0  0  0  0  0
   39.7833    5.2291    6.5984 N   0  0  0  0  0  0  0  0  0  0  0  0
   36.8851    8.0080    9.4235 O   0  0  0  0  0  0  0  0  0  0  0  0
   35.9390    9.3425    7.1038 O   0  0  0  0  0  0  0  0  0  0  0  0
  1  2  1  0  0  0  0
  1 12  1  6  0  0  0
  1 13  1  0  0  0  0
  2  3  1  0  0  0  0
  2 10  1  6  0  0  0
  4  3  1  6  0  0  0
  4  5  1  0  0  0  0
  4 14  1  0  0  0  0
  5  6  1  0  0  0  0
  5 13  1  1  0  0  0
  6  7  1  0  0  0  0
  6 15  1  1  0  0  0
  7  8  1  0  0  0  0
  7 11  1  1  0  0  0
  8 14  1  0  0  0  0
  8 16  1  6  0  0  0
  9 11  1  0  0  0  0
 17 16  1  6  0  0  0
 17 18  1  0  0  0  0
 17 24  1  0  0  0  0
 18 19  1  0  0  0  0
 18 25  1  6  0  0  0
 19 20  1  0  0  0  0
 19 26  1  1  0  0  0
 20 21  1  0  0  0  0
 20 23  1  6  0  0  0
 21 22  1  1  0  0  0
 21 24  1  0  0  0  0
 22 27  1  0  0  0  0
 28 12  1  1  0  0  0
 28 29  1  0  0  0  0
 28 33  1  0  0  0  0
 29 30  1  0  0  0  0
 29 36  1  1  0  0  0
 30 31  1  0  0  0  0
 30 37  1  6  0  0  0
 31 32  1  0  0  0  0
 31 34  1  6  0  0  0
 32 33  1  0  0  0  0
 33 35  1  1  0  0  0
M  END
>  <CHROM.1>
163.88983345,76.21922097,175.75331461,-161.96960040,178.99145770,103.33461397
40.41303912,2.79002968,9.06988884,-3.08488596,1.04222217,-1.87950070

>  <Name>
1yrj_lig

>  <RI>
0

>  <Rbt.Current_Directory>
/home/itssahil/PROJECTS/Mol_Feturizer/New_Systems/rnas/1yrj

>  <Rbt.Executable>
rbdock ($Id: //depot/dev/client3/rdock/2013.1/src/exe/rbdock.cxx#4 $)

>  <Rbt.Library>
libRbt.so (2013.1, Build901 2013/11/27)

>  <Rbt.Parameter_File>
/export/apps/rDock/src/rDock_2013.1_src/data/scripts/dock_solv.prm

>  <Rbt.Receptor>
prm/pocket_docking_3.prm

>  <SCORE>
-29.8747

>  <SCORE.INTER>
-26.216

>  <SCORE.INTER.CONST>
1

>  <SCORE.INTER.POLAR>
-2.4748

>  <SCORE.INTER.ROT>
6

>  <SCORE.INTER.SOLV>
23.723

>  <SCORE.INTER.VDW>
-24.7356

>  <SCORE.INTER.norm>
-0.70854

>  <SCORE.INTRA>
-3.65867

>  <SCORE.INTRA.DIHEDRAL>
-6.66282

>  <SCORE.INTRA.DIHEDRAL.0>
15.6389

>  <SCORE.INTRA.POLAR>
0

>  <SCORE.INTRA.POLAR.0>
0

>  <SCORE.INTRA.REPUL>
0

>  <SCORE.INTRA.REPUL.0>
0

>  <SCORE.INTRA.SOLV>
-1.59855

>  <SCORE.INTRA.SOLV.lig_0>
-90.9181

>  <SCORE.INTRA.VDW>
0.472011

>  <SCORE.INTRA.VDW.0>
-3.14158

>  <SCORE.INTRA.norm>
-0.098883

>  <SCORE.RESTR>
0

>  <SCORE.RESTR.CAVITY>
0

>  <SCORE.RESTR.norm>
0

>  <SCORE.SYSTEM>
0

>  <SCORE.SYSTEM.CONST>
0

>  <SCORE.SYSTEM.DIHEDRAL>
0

>  <SCORE.SYSTEM.SOLV>
0

>  <SCORE.SYSTEM.norm>
0

>  <SCORE.heavy>
37

>  <SCORE.norm>
-0.807423

>  <RMSD>
1.289

$$$$
1yrj_lig
 OpenBabel11021811423D
libRbt.so/2013.1/901 2013/11/27
 37 40  0  0  0  0  0  0  0  0999 V2000
   39.3455    5.7545   10.5185 C   0  0  1  0  0  0  0  0  0  0  0  0
   40.6803    5.5333   11.2566 C   0  0  1  0  0  0  0  0  0  0  0  0
   41.5590    4.4901   10.5481 C   0  0  0  0  0  0  0  0  0  0  0  0
   40.7721    3.1655   10.3688 C   0  0  1  0  0  0  0  0  0  0  0  0
   39.4727    3.4259    9.5834 C   0  0  1  0  0  0  0  0  0  0  0  0
   38.6946    2.0547    9.4030 C   0  0  1  0  0  0  0  0  0  0  0  0
   39.5813    1.0519    8.6469 C   0  0  1  0  0  0  0  0  0  0  0  0
   40.8908    0.8635    9.4507 C   0  0  2  0  0  0  0  0  0  0  0  0
   37.9341   -0.2911    7.2363 C   0  0  0  0  0  0  0  0  0  0  0  0
   41.4255    6.7904   11.4338 N   0  0  0  0  0  0  0  0  0  0  0  0
   38.8365   -0.2267    8.4282 N   0  0  0  0  0  0  0  0  0  0  0  0
   39.4774    6.5124    9.3014 O   0  0  0  0  0  0  0  0  0  0  0  0
   38.6906    4.4488   10.3066 O   0  0  0  0  0  0  0  0  0  0  0  0
   41.5639    2.1381    9.6546 O   0  0  0  0  0  0  0  0  0  0  0  0
   38.4208    1.4999   10.6725 O   0  0  0  0  0  0  0  0  0  0  0  0
   41.8037   -0.0098    8.7847 O   0  0  0  0  0  0  0  0  0  0  0  0
   43.0851   -0.1111    9.4491 C   0  0  2  0  0  0  0  0  0  0  0  0
   44.1782   -0.7420    8.5711 C   0  0  1  0  0  0  0  0  0  0  0  0
   43.9006   -2.2495    8.3285 C   0  0  2  0  0  0  0  0  0  0  0  0
   43.7999   -2.9735    9.6516 C   0  0  1  0  0  0  0  0  0  0  0  0
   42.6736   -2.3354   10.4987 C   0  0  1  0  0  0  0  0  0  0  0  0
   42.5336   -2.9767   11.8774 C   0  0  0  0  0  0  0  0  0  0  0  0
   43.5312   -4.4024    9.3883 N   0  0  0  0  0  0  0  0  0  0  0  0
   42.9557   -0.9021   10.6950 O   0  0  0  0  0  0  0  0  0  0  0  0
   44.2571   -0.0006    7.3451 O   0  0  0  0  0  0  0  0  0  0  0  0
   44.9755   -2.8223    7.5712 O   0  0  0  0  0  0  0  0  0  0  0  0
   41.4825   -2.3616   12.5737 O   0  0  0  0  0  0  0  0  0  0  0  0
   38.4222    6.5498    8.2062 C   0  0  1  0  0  0  0  0  0  0  0  0
   37.7347    7.9308    8.2835 C   0  0  1  0  0  0  0  0  0  0  0  0
   36.6828    8.0959    7.1599 C   0  0  2  0  0  0  0  0  0  0  0  0
   37.3501    7.9297    5.7894 C   0  0  1  0  0  0  0  0  0  0  0  0
   38.0131    6.5326    5.6840 C   0  0  0  0  0  0  0  0  0  0  0  0
   39.0607    6.3970    6.7939 C   0  0  2  0  0  0  0  0  0  0  0  0
   36.3371    8.0777    4.7205 N   0  0  0  0  0  0  0  0  0  0  0  0
   39.6732    5.0791    6.6501 N   0  0  0  0  0  0  0  0  0  0  0  0
   37.0702    8.0559    9.5598 O   0  0  0  0  0  0  0  0  0  0  0  0
   36.0916    9.4090    7.2645 O   0  0  0  0  0  0  0  0  0  0  0  0
  1  2  1  0  0  0  0
  1 12  1  6  0  0  0
  1 13  1  0  0  0  0
  2  3  1  0  0  0  0
  2 10  1  6  0  0  0
  4  3  1  6  0  0  0
  4  5  1  0  0  0  0
  4 14  1  0  0  0  0
  5  6  1  0  0  0  0
  5 13  1  1  0  0  0
  6  7  1  0  0  0  0
  6 15  1  1  0  0  0
  7  8  1  0  0  0  0
  7 11  1  1  0  0  0
  8 14  1  0  0  0  0
  8 16  1  6  0  0  0
  9 11  1  0  0  0  0
 17 16  1  6  0  0  0
 17 18  1  0  0  0  0
 17 24  1  0  0  0  0
 18 19  1  0  0  0  0
 18 25  1  6  0  0  0
 19 20  1  0  0  0  0
 19 26  1  6  0  0  0
 20 21  1  0  0  0  0
 20 23  1  6  0  0  0
 21 22  1  1  0  0  0
 21 24  1  0  0  0  0
 22 27  1  0  0  0  0
 28 12  1  1  0  0  0
 28 29  1  0  0  0  0
 28 33  1  0  0  0  0
 29 30  1  0  0  0  0
 29 36  1  1  0  0  0
 30 31  1  0  0  0  0
 30 37  1  6  0  0  0
 31 32  1  0  0  0  0
 31 34  1  6  0  0  0
 32 33  1  0  0  0  0
 33 35  1  1  0  0  0
M  END
>  <CHROM.1>
162.55406910,84.29895542,174.69722601,-165.11884207,-179.03733431,106.34282636
40.35597105,2.65774167,8.98060697,-2.93211905,1.05777656,-2.00790662

>  <Name>
1yrj_lig

>  <RI>
0

>  <Rbt.Current_Directory>
/home/itssahil/PROJECTS/Mol_Feturizer/New_Systems/rnas/1yrj

>  <Rbt.Executable>
rbdock ($Id: //depot/dev/client3/rdock/2013.1/src/exe/rbdock.cxx#4 $)

>  <Rbt.Library>
libRbt.so (2013.1, Build901 2013/11/27)

>  <Rbt.Parameter_File>
/export/apps/rDock/src/rDock_2013.1_src/data/scripts/dock_solv.prm

>  <Rbt.Receptor>
prm/pocket_docking_3.prm

>  <SCORE>
-29.8157

>  <SCORE.INTER>
-26.3719

>  <SCORE.INTER.CONST>
1

>  <SCORE.INTER.POLAR>
-2.58834

>  <SCORE.INTER.ROT>
6

>  <SCORE.INTER.SOLV>
23.5002

>  <SCORE.INTER.VDW>
-24.3869

>  <SCORE.INTER.norm>
-0.712753

>  <SCORE.INTRA>
-3.44381

>  <SCORE.INTRA.DIHEDRAL>
-6.24858

>  <SCORE.INTRA.DIHEDRAL.0>
15.6389

>  <SCORE.INTRA.POLAR>
0

>  <SCORE.INTRA.POLAR.0>
0

>  <SCORE.INTRA.REPUL>
0

>  <SCORE.INTRA.REPUL.0>
0

>  <SCORE.INTRA.SOLV>
-1.27209

>  <SCORE.INTRA.SOLV.lig_0>
-90.9181

>  <SCORE.INTRA.VDW>
0.316524

>  <SCORE.INTRA.VDW.0>
-3.14158

>  <SCORE.INTRA.norm>
-0.093076

>  <SCORE.RESTR>
0

>  <SCORE.RESTR.CAVITY>
0

>  <SCORE.RESTR.norm>
0

>  <SCORE.SYSTEM>
0

>  <SCORE.SYSTEM.CONST>
0

>  <SCORE.SYSTEM.DIHEDRAL>
0

>  <SCORE.SYSTEM.SOLV>
0

>  <SCORE.SYSTEM.norm>
0

>  <SCORE.heavy>
37

>  <SCORE.norm>
-0.805829

>  <RMSD>
1.299

$$$$
1yrj_lig
 OpenBabel11021811423D
libRbt.so/2013.1/901 2013/11/27
 37 40  0  0  0  0  0  0  0  0999 V2000
   39.3952    5.7055   10.6141 C   0  0  1  0  0  0  0  0  0  0  0  0
   40.7547    5.4520   11.2945 C   0  0  1  0  0  0  0  0  0  0  0  0
   41.5958    4.4216   10.5243 C   0  0  0  0  0  0  0  0  0  0  0  0
   40.7899    3.1095   10.3382 C   0  0  1  0  0  0  0  0  0  0  0  0
   39.4644    3.4031    9.6104 C   0  0  1  0  0  0  0  0  0  0  0  0
   38.6668    2.0444    9.4216 C   0  0  1  0  0  0  0  0  0  0  0  0
   39.5145    1.0556    8.6047 C   0  0  1  0  0  0  0  0  0  0  0  0
   40.8515    0.8334    9.3526 C   0  0  2  0  0  0  0  0  0  0  0  0
   38.5702   -0.6504    6.9603 C   0  0  0  0  0  0  0  0  0  0  0  0
   41.5181    6.6972   11.4781 N   0  0  0  0  0  0  0  0  0  0  0  0
   38.7495   -0.2098    8.3790 N   0  0  0  0  0  0  0  0  0  0  0  0
   39.4884    6.4962    9.4144 O   0  0  0  0  0  0  0  0  0  0  0  0
   38.7200    4.4120   10.3910 O   0  0  0  0  0  0  0  0  0  0  0  0
   41.5442    2.0958    9.5662 O   0  0  0  0  0  0  0  0  0  0  0  0
   38.4357    1.4564   10.6847 O   0  0  0  0  0  0  0  0  0  0  0  0
   41.7301   -0.0287    8.6284 O   0  0  0  0  0  0  0  0  0  0  0  0
   43.0200   -0.1936    9.2630 C   0  0  2  0  0  0  0  0  0  0  0  0
   44.0575   -0.8849    8.3634 C   0  0  1  0  0  0  0  0  0  0  0  0
   43.6961   -2.3769    8.1363 C   0  0  2  0  0  0  0  0  0  0  0  0
   43.5893   -3.0884    9.4656 C   0  0  1  0  0  0  0  0  0  0  0  0
   42.5182   -2.3884   10.3352 C   0  0  1  0  0  0  0  0  0  0  0  0
   42.3779   -3.0151   11.7206 C   0  0  0  0  0  0  0  0  0  0  0  0
   43.2404   -4.5026    9.2173 N   0  0  0  0  0  0  0  0  0  0  0  0
   42.8792   -0.9709   10.5164 O   0  0  0  0  0  0  0  0  0  0  0  0
   44.1457   -0.1544    7.1314 O   0  0  0  0  0  0  0  0  0  0  0  0
   44.7213   -3.0086    7.3574 O   0  0  0  0  0  0  0  0  0  0  0  0
   41.4128   -2.3108   12.4558 O   0  0  0  0  0  0  0  0  0  0  0  0
   38.4172    6.5299    8.3346 C   0  0  1  0  0  0  0  0  0  0  0  0
   37.7716    7.9325    8.3776 C   0  0  1  0  0  0  0  0  0  0  0  0
   36.7071    8.0929    7.2653 C   0  0  2  0  0  0  0  0  0  0  0  0
   37.3471    7.8632    5.8909 C   0  0  1  0  0  0  0  0  0  0  0  0
   37.9672    6.4443    5.8208 C   0  0  0  0  0  0  0  0  0  0  0  0
   39.0282    6.3132    6.9185 C   0  0  2  0  0  0  0  0  0  0  0  0
   36.3218    8.0070    4.8333 N   0  0  0  0  0  0  0  0  0  0  0  0
   39.5996    4.9738    6.8082 N   0  0  0  0  0  0  0  0  0  0  0  0
   37.1317    8.1180    9.6590 O   0  0  0  0  0  0  0  0  0  0  0  0
   36.1562    9.4256    7.3362 O   0  0  0  0  0  0  0  0  0  0  0  0
  1  2  1  0  0  0  0
  1 12  1  6  0  0  0
  1 13  1  0  0  0  0
  2  3  1  0  0  0  0
  2 10  1  6  0  0  0
  4  3  1  6  0  0  0
  4  5  1  0  0  0  0
  4 14  1  0  0  0  0
  5  6  1  0  0  0  0
  5 13  1  1  0  0  0
  6  7  1  0  0  0  0
  6 15  1  1  0  0  0
  7  8  1  0  0  0  0
  7 11  1  1  0  0  0
  8 14  1  0  0  0  0
  8 16  1  6  0  0  0
  9 11  1  0  0  0  0
 17 16  1  6  0  0  0
 17 18  1  0  0  0  0
 17 24  1  0  0  0  0
 18 19  1  0  0  0  0
 18 25  1  6  0  0  0
 19 20  1  0  0  0  0
 19 26  1  6  0  0  0
 20 21  1  0  0  0  0
 20 23  1  6  0  0  0
 21 22  1  1  0  0  0
 21 24  1  0  0  0  0
 22 27  1  0  0  0  0
 28 12  1  1  0  0  0
 28 29  1  0  0  0  0
 28 33  1  0  0  0  0
 29 30  1  0  0  0  0
 29 36  1  1  0  0  0
 30 31  1  0  0  0  0
 30 37  1  6  0  0  0
 31 32  1  0  0  0  0
 31 34  1  6  0  0  0
 32 33  1  0  0  0  0
 33 35  1  1  0  0  0
M  END
>  <CHROM.1>
159.98207249,124.29039205,176.56059192,-168.58275471,178.74837091,110.98953468
40.32860899,2.59617607,8.94685398,-2.86668944,1.06493873,-2.04396072

>  <Name>
1yrj_lig

>  <RI>
0

>  <Rbt.Current_Directory>
/home/itssahil/PROJECTS/Mol_Feturizer/New_Systems/rnas/1yrj

>  <Rbt.Executable>
rbdock ($Id: //depot/dev/client3/rdock/2013.1/src/exe/rbdock.cxx#4 $)

>  <Rbt.Library>
libRbt.so (2013.1, Build901 2013/11/27)

>  <Rbt.Parameter_File>
/export/apps/rDock/src/rDock_2013.1_src/data/scripts/dock_solv.prm

>  <Rbt.Receptor>
prm/pocket_docking_8.prm

>  <SCORE>
-29.0055

>  <SCORE.INTER>
-26.0191

>  <SCORE.INTER.CONST>
1

>  <SCORE.INTER.POLAR>
-2.62087

>  <SCORE.INTER.ROT>
6

>  <SCORE.INTER.SOLV>
23.5984

>  <SCORE.INTER.VDW>
-24.076

>  <SCORE.INTER.norm>
-0.703219

>  <SCORE.INTRA>
-2.98644

>  <SCORE.INTRA.DIHEDRAL>
-5.09592

>  <SCORE.INTRA.DIHEDRAL.0>
15.6389

>  <SCORE.INTRA.POLAR>
0

>  <SCORE.INTRA.POLAR.0>
0

>  <SCORE.INTRA.REPUL>
0

>  <SCORE.INTRA.REPUL.0>
0

>  <SCORE.INTRA.SOLV>
-0.750733

>  <SCORE.INTRA.SOLV.lig_0>
-90.9181

>  <SCORE.INTRA.VDW>
-0.0631176

>  <SCORE.INTRA.VDW.0>
-3.14158

>  <SCORE.INTRA.norm>
-0.0807147

>  <SCORE.RESTR>
0

>  <SCORE.RESTR.CAVITY>
0

>  <SCORE.RESTR.norm>
0

>  <SCORE.SYSTEM>
0

>  <SCORE.SYSTEM.CONST>
0

>  <SCORE.SYSTEM.DIHEDRAL>
0

>  <SCORE.SYSTEM.SOLV>
0

>  <SCORE.SYSTEM.norm>
0

>  <SCORE.heavy>
37

>  <SCORE.norm>
-0.783933

>  <RMSD>
1.344

$$$$
1yrj_lig
 OpenBabel11021811423D
libRbt.so/2013.1/901 2013/11/27
 37 40  0  0  0  0  0  0  0  0999 V2000
   39.3378    5.7057   10.2980 C   0  0  1  0  0  0  0  0  0  0  0  0
   40.6347    5.5017   11.1055 C   0  0  1  0  0  0  0  0  0  0  0  0
   41.4978    4.3706   10.5241 C   0  0  0  0  0  0  0  0  0  0  0  0
   40.6673    3.0644   10.4262 C   0  0  1  0  0  0  0  0  0  0  0  0
   39.4091    3.3020    9.5698 C   0  0  1  0  0  0  0  0  0  0  0  0
   38.5855    1.9489    9.4752 C   0  0  1  0  0  0  0  0  0  0  0  0
   39.4600    0.8537    8.8434 C   0  0  1  0  0  0  0  0  0  0  0  0
   40.7305    0.6890    9.7124 C   0  0  2  0  0  0  0  0  0  0  0  0
   37.6395   -0.4527    7.6243 C   0  0  0  0  0  0  0  0  0  0  0  0
   41.4210    6.7422   11.2052 N   0  0  0  0  0  0  0  0  0  0  0  0
   38.6747   -0.4117    8.7041 N   0  0  0  0  0  0  0  0  0  0  0  0
   39.5442    6.3505    9.0273 O   0  0  0  0  0  0  0  0  0  0  0  0
   38.6409    4.4107   10.1715 O   0  0  0  0  0  0  0  0  0  0  0  0
   41.4445    1.9516    9.8343 O   0  0  0  0  0  0  0  0  0  0  0  0
   38.2434    1.5158   10.7752 O   0  0  0  0  0  0  0  0  0  0  0  0
   41.6328   -0.2705    9.1603 O   0  0  0  0  0  0  0  0  0  0  0  0
   42.5759   -0.7900   10.1269 C   0  0  2  0  0  0  0  0  0  0  0  0
   43.6882   -1.6428    9.4951 C   0  0  1  0  0  0  0  0  0  0  0  0
   43.1250   -2.9815    8.9484 C   0  0  2  0  0  0  0  0  0  0  0  0
   42.4395   -3.7433   10.0596 C   0  0  1  0  0  0  0  0  0  0  0  0
   41.3081   -2.8716   10.6541 C   0  0  1  0  0  0  0  0  0  0  0  0
   40.5904   -3.5473   11.8204 C   0  0  0  0  0  0  0  0  0  0  0  0
   41.9108   -5.0081    9.5083 N   0  0  0  0  0  0  0  0  0  0  0  0
   41.8708   -1.6014   11.1464 O   0  0  0  0  0  0  0  0  0  0  0  0
   44.3282   -0.8655    8.4727 O   0  0  0  0  0  0  0  0  0  0  0  0
   44.1981   -3.7828    8.4353 O   0  0  0  0  0  0  0  0  0  0  0  0
   39.4661   -2.7888   12.1790 O   0  0  0  0  0  0  0  0  0  0  0  0
   38.4860    6.4373    7.9377 C   0  0  1  0  0  0  0  0  0  0  0  0
   37.7799    7.8019    8.0967 C   0  0  1  0  0  0  0  0  0  0  0  0
   36.7233    8.0179    6.9862 C   0  0  2  0  0  0  0  0  0  0  0  0
   37.3896    7.9412    5.6074 C   0  0  1  0  0  0  0  0  0  0  0  0
   38.0714    6.5619    5.4194 C   0  0  0  0  0  0  0  0  0  0  0  0
   39.1233    6.3761    6.5180 C   0  0  2  0  0  0  0  0  0  0  0  0
   36.3723    8.1374    4.5505 N   0  0  0  0  0  0  0  0  0  0  0  0
   39.7534    5.0774    6.2964 N   0  0  0  0  0  0  0  0  0  0  0  0
   37.1167    7.8430    9.3790 O   0  0  0  0  0  0  0  0  0  0  0  0
   36.1144    9.3143    7.1682 O   0  0  0  0  0  0  0  0  0  0  0  0
  1  2  1  0  0  0  0
  1 12  1  6  0  0  0
  1 13  1  0  0  0  0
  2  3  1  0  0  0  0
  2 10  1  6  0  0  0
  4  3  1  6  0  0  0
  4  5  1  0  0  0  0
  4 14  1  0  0  0  0
  5  6  1  0  0  0  0
  5 13  1  1  0  0  0
  6  7  1  0  0  0  0
  6 15  1  1  0  0  0
  7  8  1  0  0  0  0
  7 11  1  1  0  0  0
  8 14  1  0  0  0  0
  8 16  1  6  0  0  0
  9 11  1  0  0  0  0
 17 16  1  6  0  0  0
 17 18  1  0  0  0  0
 17 24  1  0  0  0  0
 18 19  1  0  0  0  0
 18 25  1  6  0  0  0
 19 20  1  0  0  0  0
 19 26  1  1  0  0  0
 20 21  1  0  0  0  0
 20 23  1  6  0  0  0
 21 22  1  1  0  0  0
 21 24  1  0  0  0  0
 22 27  1  0  0  0  0
 28 12  1  1  0  0  0
 28 29  1  0  0  0  0
 28 33  1  0  0  0  0
 29 30  1  0  0  0  0
 29 36  1  1  0  0  0
 30 31  1  0  0  0  0
 30 37  1  1  0  0  0
 31 32  1  0  0  0  0
 31 34  1  6  0  0  0
 32 33  1  0  0  0  0
 33 35  1  6  0  0  0
M  END
>  <CHROM.1>
168.24284419,73.86852664,-159.96458474,-170.58973466,-171.63787453,95.42118643
40.00236916,2.37846569,9.08179420,-2.33035582,0.99203661,-2.71059942

>  <Name>
1yrj_lig

>  <RI>
0

>  <Rbt.Current_Directory>
/home/itssahil/PROJECTS/Mol_Feturizer/New_Systems/rnas/1yrj

>  <Rbt.Executable>
rbdock ($Id: //depot/dev/client3/rdock/2013.1/src/exe/rbdock.cxx#4 $)

>  <Rbt.Library>
libRbt.so (2013.1, Build901 2013/11/27)

>  <Rbt.Parameter_File>
/export/apps/rDock/src/rDock_2013.1_src/data/scripts/dock_solv.prm

>  <Rbt.Receptor>
prm/pocket_docking_6.prm

>  <SCORE>
-30.4111

>  <SCORE.INTER>
-25.5782

>  <SCORE.INTER.CONST>
1

>  <SCORE.INTER.POLAR>
-2.52039

>  <SCORE.INTER.ROT>
6

>  <SCORE.INTER.SOLV>
25.3904

>  <SCORE.INTER.VDW>
-24.7143

>  <SCORE.INTER.norm>
-0.691304

>  <SCORE.INTRA>
-4.83291

>  <SCORE.INTRA.DIHEDRAL>
-7.65076

>  <SCORE.INTRA.DIHEDRAL.0>
15.6389

>  <SCORE.INTRA.POLAR>
0

>  <SCORE.INTRA.POLAR.0>
0

>  <SCORE.INTRA.REPUL>
0

>  <SCORE.INTRA.REPUL.0>
0

>  <SCORE.INTRA.SOLV>
-2.0449

>  <SCORE.INTRA.SOLV.lig_0>
-90.9181

>  <SCORE.INTRA.VDW>
0.0149233

>  <SCORE.INTRA.VDW.0>
-3.14158

>  <SCORE.INTRA.norm>
-0.130619

>  <SCORE.RESTR>
0

>  <SCORE.RESTR.CAVITY>
0

>  <SCORE.RESTR.norm>
0

>  <SCORE.SYSTEM>
0

>  <SCORE.SYSTEM.CONST>
0

>  <SCORE.SYSTEM.DIHEDRAL>
0

>  <SCORE.SYSTEM.SOLV>
0

>  <SCORE.SYSTEM.norm>
0

>  <SCORE.heavy>
37

>  <SCORE.norm>
-0.821923

>  <RMSD>
1.363

$$$$
1yrj_lig
 OpenBabel11021811423D
libRbt.so/2013.1/901 2013/11/27
 37 40  0  0  0  0  0  0  0  0999 V2000
   39.2801    5.8507   10.5237 C   0  0  1  0  0  0  0  0  0  0  0  0
   40.6025    5.6763   11.2959 C   0  0  1  0  0  0  0  0  0  0  0  0
   41.5235    4.6441   10.6261 C   0  0  0  0  0  0  0  0  0  0  0  0
   40.7747    3.2970   10.4520 C   0  0  1  0  0  0  0  0  0  0  0  0
   39.4879    3.5106    9.6327 C   0  0  1  0  0  0  0  0  0  0  0  0
   38.7490    2.1171    9.4585 C   0  0  1  0  0  0  0  0  0  0  0  0
   39.6781    1.1247    8.7407 C   0  0  1  0  0  0  0  0  0  0  0  0
   40.9729    0.9836    9.5773 C   0  0  2  0  0  0  0  0  0  0  0  0
   38.9413   -1.1293    9.6806 C   0  0  0  0  0  0  0  0  0  0  0  0
   41.3113    6.9550   11.4681 N   0  0  0  0  0  0  0  0  0  0  0  0
   38.9711   -0.1761    8.5274 N   0  0  0  0  0  0  0  0  0  0  0  0
   39.4211    6.5910    9.2969 O   0  0  0  0  0  0  0  0  0  0  0  0
   38.6634    4.5252   10.3198 O   0  0  0  0  0  0  0  0  0  0  0  0
   41.6086    2.2783    9.7742 O   0  0  0  0  0  0  0  0  0  0  0  0
   38.4598    1.5770   10.7310 O   0  0  0  0  0  0  0  0  0  0  0  0
   41.9228    0.1228    8.9479 O   0  0  0  0  0  0  0  0  0  0  0  0
   43.1742    0.0293    9.6682 C   0  0  2  0  0  0  0  0  0  0  0  0
   44.3261   -0.5309    8.8179 C   0  0  1  0  0  0  0  0  0  0  0  0
   44.1067   -2.0335    8.4984 C   0  0  2  0  0  0  0  0  0  0  0  0
   43.9665   -2.8175    9.7831 C   0  0  1  0  0  0  0  0  0  0  0  0
   42.7826   -2.2498   10.6014 C   0  0  1  0  0  0  0  0  0  0  0  0
   42.5980   -2.9548   11.9433 C   0  0  0  0  0  0  0  0  0  0  0  0
   43.7545   -4.2406    9.4468 N   0  0  0  0  0  0  0  0  0  0  0  0
   43.0110   -0.8190   10.8718 O   0  0  0  0  0  0  0  0  0  0  0  0
   44.4395    0.2656    7.6296 O   0  0  0  0  0  0  0  0  0  0  0  0
   45.2329   -2.5415    7.7700 O   0  0  0  0  0  0  0  0  0  0  0  0
   41.5905   -2.3088   12.6751 O   0  0  0  0  0  0  0  0  0  0  0  0
   38.3927    6.5801    8.1758 C   0  0  1  0  0  0  0  0  0  0  0  0
   37.6649    7.9420    8.2126 C   0  0  1  0  0  0  0  0  0  0  0  0
   36.6369    8.0583    7.0611 C   0  0  2  0  0  0  0  0  0  0  0  0
   37.3424    7.8886    5.7103 C   0  0  1  0  0  0  0  0  0  0  0  0
   38.0469    6.5095    5.6451 C   0  0  0  0  0  0  0  0  0  0  0  0
   39.0702    6.4224    6.7823 C   0  0  2  0  0  0  0  0  0  0  0  0
   36.3524    7.9899    4.6147 N   0  0  0  0  0  0  0  0  0  0  0  0
   39.7230    5.1203    6.6761 N   0  0  0  0  0  0  0  0  0  0  0  0
   36.9657    8.0690    9.4700 O   0  0  0  0  0  0  0  0  0  0  0  0
   36.0065    9.3555    7.1286 O   0  0  0  0  0  0  0  0  0  0  0  0
  1  2  1  0  0  0  0
  1 12  1  6  0  0  0
  1 13  1  0  0  0  0
  2  3  1  0  0  0  0
  2 10  1  6  0  0  0
  4  3  1  6  0  0  0
  4  5  1  0  0  0  0
  4 14  1  0  0  0  0
  5  6  1  0  0  0  0
  5 13  1  1  0  0  0
  6  7  1  0  0  0  0
  6 15  1  1  0  0  0
  7  8  1  0  0  0  0
  7 11  1  1  0  0  0
  8 14  1  0  0  0  0
  8 16  1  6  0  0  0
  9 11  1  0  0  0  0
 17 16  1  6  0  0  0
 17 18  1  0  0  0  0
 17 24  1  0  0  0  0
 18 19  1  0  0  0  0
 18 25  1  6  0  0  0
 19 20  1  0  0  0  0
 19 26  1  1  0  0  0
 20 21  1  0  0  0  0
 20 23  1  6  0  0  0
 21 22  1  1  0  0  0
 21 24  1  0  0  0  0
 22 27  1  0  0  0  0
 28 12  1  1  0  0  0
 28 29  1  0  0  0  0
 28 33  1  0  0  0  0
 29 30  1  0  0  0  0
 29 36  1  1  0  0  0
 30 31  1  0  0  0  0
 30 37  1  6  0  0  0
 31 32  1  0  0  0  0
 31 34  1  6  0  0  0
 32 33  1  0  0  0  0
 33 35  1  1  0  0  0
M  END
>  <CHROM.1>
162.39768198,-82.04176441,176.72919607,-162.67863155,174.67444178,106.29255343
40.42798236,2.71905797,9.10913369,2.84098588,1.03261595,-1.45009277

>  <Name>
1yrj_lig

>  <RI>
0

>  <Rbt.Current_Directory>
/home/itssahil/PROJECTS/Mol_Feturizer/New_Systems/rnas/1yrj

>  <Rbt.Executable>
rbdock ($Id: //depot/dev/client3/rdock/2013.1/src/exe/rbdock.cxx#4 $)

>  <Rbt.Library>
libRbt.so (2013.1, Build901 2013/11/27)

>  <Rbt.Parameter_File>
/export/apps/rDock/src/rDock_2013.1_src/data/scripts/dock_solv.prm

>  <Rbt.Receptor>
prm/pocket_docking_3.prm

>  <SCORE>
-27.7417

>  <SCORE.INTER>
-26.018

>  <SCORE.INTER.CONST>
1

>  <SCORE.INTER.POLAR>
-2.51399

>  <SCORE.INTER.ROT>
6

>  <SCORE.INTER.SOLV>
23.4922

>  <SCORE.INTER.VDW>
-24.3961

>  <SCORE.INTER.norm>
-0.703189

>  <SCORE.INTRA>
-1.72373

>  <SCORE.INTRA.DIHEDRAL>
-5.94516

>  <SCORE.INTRA.DIHEDRAL.0>
15.6389

>  <SCORE.INTRA.POLAR>
0

>  <SCORE.INTRA.POLAR.0>
0

>  <SCORE.INTRA.REPUL>
0

>  <SCORE.INTRA.REPUL.0>
0

>  <SCORE.INTRA.SOLV>
-0.937283

>  <SCORE.INTRA.SOLV.lig_0>
-90.9181

>  <SCORE.INTRA.VDW>
1.71749

>  <SCORE.INTRA.VDW.0>
-3.14158

>  <SCORE.INTRA.norm>
-0.0465874

>  <SCORE.RESTR>
0

>  <SCORE.RESTR.CAVITY>
0

>  <SCORE.RESTR.norm>
0

>  <SCORE.SYSTEM>
0

>  <SCORE.SYSTEM.CONST>
0

>  <SCORE.SYSTEM.DIHEDRAL>
0

>  <SCORE.SYSTEM.SOLV>
0

>  <SCORE.SYSTEM.norm>
0

>  <SCORE.heavy>
37

>  <SCORE.norm>
-0.749776

>  <RMSD>
1.371

$$$$
1yrj_lig
 OpenBabel11021811423D
libRbt.so/2013.1/901 2013/11/27
 37 40  0  0  0  0  0  0  0  0999 V2000
   39.3371    5.6877   10.3043 C   0  0  1  0  0  0  0  0  0  0  0  0
   40.6355    5.4898   11.1109 C   0  0  1  0  0  0  0  0  0  0  0  0
   41.5085    4.3699   10.5226 C   0  0  0  0  0  0  0  0  0  0  0  0
   40.6893    3.0572   10.4163 C   0  0  1  0  0  0  0  0  0  0  0  0
   39.4292    3.2893    9.5610 C   0  0  1  0  0  0  0  0  0  0  0  0
   38.6174    1.9298    9.4576 C   0  0  1  0  0  0  0  0  0  0  0  0
   39.5014    0.8462    8.8191 C   0  0  1  0  0  0  0  0  0  0  0  0
   40.7731    0.6870    9.6874 C   0  0  2  0  0  0  0  0  0  0  0  0
   38.2033   -0.7462    7.3073 C   0  0  0  0  0  0  0  0  0  0  0  0
   41.4111    6.7364   11.2186 N   0  0  0  0  0  0  0  0  0  0  0  0
   38.7271   -0.4250    8.6717 N   0  0  0  0  0  0  0  0  0  0  0  0
   39.5382    6.3423    9.0377 O   0  0  0  0  0  0  0  0  0  0  0  0
   38.6514    4.3876   10.1694 O   0  0  0  0  0  0  0  0  0  0  0  0
   41.4762    1.9549    9.8176 O   0  0  0  0  0  0  0  0  0  0  0  0
   38.2787    1.4856   10.7547 O   0  0  0  0  0  0  0  0  0  0  0  0
   41.6838   -0.2612    9.1297 O   0  0  0  0  0  0  0  0  0  0  0  0
   42.6028   -0.8112   10.1025 C   0  0  2  0  0  0  0  0  0  0  0  0
   43.6907   -1.7002    9.4781 C   0  0  1  0  0  0  0  0  0  0  0  0
   43.0875   -3.0198    8.9276 C   0  0  2  0  0  0  0  0  0  0  0  0
   42.3699   -3.7584   10.0340 C   0  0  1  0  0  0  0  0  0  0  0  0
   41.2638   -2.8500   10.6211 C   0  0  1  0  0  0  0  0  0  0  0  0
   40.5165   -3.5016   11.7824 C   0  0  0  0  0  0  0  0  0  0  0  0
   41.8036   -5.0053    9.4791 N   0  0  0  0  0  0  0  0  0  0  0  0
   41.8646   -1.5989   11.1172 O   0  0  0  0  0  0  0  0  0  0  0  0
   44.3627   -0.9445    8.4601 O   0  0  0  0  0  0  0  0  0  0  0  0
   44.1371   -3.8560    8.4216 O   0  0  0  0  0  0  0  0  0  0  0  0
   39.4606   -2.6696   12.1834 O   0  0  0  0  0  0  0  0  0  0  0  0
   38.4786    6.4294    7.9496 C   0  0  1  0  0  0  0  0  0  0  0  0
   37.7732    7.7943    8.1095 C   0  0  1  0  0  0  0  0  0  0  0  0
   36.7152    8.0106    7.0004 C   0  0  2  0  0  0  0  0  0  0  0  0
   37.3796    7.9337    5.6207 C   0  0  1  0  0  0  0  0  0  0  0  0
   38.0606    6.5541    5.4319 C   0  0  0  0  0  0  0  0  0  0  0  0
   39.1139    6.3680    6.5290 C   0  0  2  0  0  0  0  0  0  0  0  0
   36.3609    8.1302    4.5652 N   0  0  0  0  0  0  0  0  0  0  0  0
   39.7432    5.0690    6.3066 N   0  0  0  0  0  0  0  0  0  0  0  0
   37.1118    7.8357    9.3927 O   0  0  0  0  0  0  0  0  0  0  0  0
   36.1070    9.3073    7.1833 O   0  0  0  0  0  0  0  0  0  0  0  0
  1  2  1  0  0  0  0
  1 12  1  6  0  0  0
  1 13  1  0  0  0  0
  2  3  1  0  0  0  0
  2 10  1  6  0  0  0
  4  3  1  6  0  0  0
  4  5  1  0  0  0  0
  4 14  1  0  0  0  0
  5  6  1  0  0  0  0
  5 13  1  1  0  0  0
  6  7  1  0  0  0  0
  6 15  1  1  0  0  0
  7  8  1  0  0  0  0
  7 11  1  1  0  0  0
  8 14  1  0  0  0  0
  8 16  1  6  0  0  0
  9 11  1  0  0  0  0
 17 16  1  6  0  0  0
 17 18  1  0  0  0  0
 17 24  1  0  0  0  0
 18 19  1  0  0  0  0
 18 25  1  6  0  0  0
 19 20  1  0  0  0  0
 19 26  1  1  0  0  0
 20 21  1  0  0  0  0
 20 23  1  6  0  0  0
 21 22  1  1  0  0  0
 21 24  1  0  0  0  0
 22 27  1  0  0  0  0
 28 12  1  1  0  0  0
 28 29  1  0  0  0  0
 28 33  1  0  0  0  0
 29 30  1  0  0  0  0
 29 36  1  1  0  0  0
 30 31  1  0  0  0  0
 30 37  1  1  0  0  0
 31 32  1  0  0  0  0
 31 34  1  6  0  0  0
 32 33  1  0  0  0  0
 33 35  1  6  0  0  0
M  END
>  <CHROM.1>
168.38115602,101.95652286,-158.06177985,-173.03100249,-174.95945567,95.97075945
40.01630805,2.36169670,9.06558584,-2.43106200,1.05223960,-2.58547156

>  <Name>
1yrj_lig

>  <RI>
0

>  <Rbt.Current_Directory>
/home/itssahil/PROJECTS/Mol_Feturizer/New_Systems/rnas/1yrj

>  <Rbt.Executable>
rbdock ($Id: //depot/dev/client3/rdock/2013.1/src/exe/rbdock.cxx#4 $)

>  <Rbt.Library>
libRbt.so (2013.1, Build901 2013/11/27)

>  <Rbt.Parameter_File>
/export/apps/rDock/src/rDock_2013.1_src/data/scripts/dock_solv.prm

>  <Rbt.Receptor>
prm/pocket_docking_8.prm

>  <SCORE>
-29.876

>  <SCORE.INTER>
-25.0945

>  <SCORE.INTER.CONST>
1

>  <SCORE.INTER.POLAR>
-2.52654

>  <SCORE.INTER.ROT>
6

>  <SCORE.INTER.SOLV>
25.2063

>  <SCORE.INTER.VDW>
-24.3099

>  <SCORE.INTER.norm>
-0.678229

>  <SCORE.INTRA>
-4.78156

>  <SCORE.INTRA.DIHEDRAL>
-6.79831

>  <SCORE.INTRA.DIHEDRAL.0>
15.6389

>  <SCORE.INTRA.POLAR>
0

>  <SCORE.INTRA.POLAR.0>
0

>  <SCORE.INTRA.REPUL>
0

>  <SCORE.INTRA.REPUL.0>
0

>  <SCORE.INTRA.SOLV>
-1.96594

>  <SCORE.INTRA.SOLV.lig_0>
-90.9181

>  <SCORE.INTRA.VDW>
-0.399434

>  <SCORE.INTRA.VDW.0>
-3.14158

>  <SCORE.INTRA.norm>
-0.129231

>  <SCORE.RESTR>
0

>  <SCORE.RESTR.CAVITY>
0

>  <SCORE.RESTR.norm>
0

>  <SCORE.SYSTEM>
0

>  <SCORE.SYSTEM.CONST>
0

>  <SCORE.SYSTEM.DIHEDRAL>
0

>  <SCORE.SYSTEM.SOLV>
0

>  <SCORE.SYSTEM.norm>
0

>  <SCORE.heavy>
37

>  <SCORE.norm>
-0.80746

>  <RMSD>
1.371

$$$$
1yrj_lig
 OpenBabel11021811423D
libRbt.so/2013.1/901 2013/11/27
 37 40  0  0  0  0  0  0  0  0999 V2000
   39.5700    5.5198   10.0515 C   0  0  1  0  0  0  0  0  0  0  0  0
   40.8120    5.2027   10.9073 C   0  0  1  0  0  0  0  0  0  0  0  0
   41.6045    4.0118   10.3451 C   0  0  0  0  0  0  0  0  0  0  0  0
   40.6763    2.7782   10.1955 C   0  0  1  0  0  0  0  0  0  0  0  0
   39.4776    3.1262    9.2928 C   0  0  1  0  0  0  0  0  0  0  0  0
   38.5524    1.8454    9.1461 C   0  0  1  0  0  0  0  0  0  0  0  0
   39.3611    0.6898    8.5344 C   0  0  1  0  0  0  0  0  0  0  0  0
   40.5774    0.4134    9.4513 C   0  0  2  0  0  0  0  0  0  0  0  0
   38.1168   -1.2795    9.5735 C   0  0  0  0  0  0  0  0  0  0  0  0
   41.6908    6.3742   11.0561 N   0  0  0  0  0  0  0  0  0  0  0  0
   38.4830   -0.5062    8.3459 N   0  0  0  0  0  0  0  0  0  0  0  0
   39.8797    6.1595    8.7993 O   0  0  0  0  0  0  0  0  0  0  0  0
   38.7770    4.2869    9.8787 O   0  0  0  0  0  0  0  0  0  0  0  0
   41.3852    1.6127    9.6196 O   0  0  0  0  0  0  0  0  0  0  0  0
   38.1233    1.4273   10.4250 O   0  0  0  0  0  0  0  0  0  0  0  0
   41.4216   -0.6099    8.9224 O   0  0  0  0  0  0  0  0  0  0  0  0
   42.4581   -1.0272    9.8417 C   0  0  2  0  0  0  0  0  0  0  0  0
   43.4825   -1.9845    9.2109 C   0  0  1  0  0  0  0  0  0  0  0  0
   42.8444   -3.3661    8.9069 C   0  0  2  0  0  0  0  0  0  0  0  0
   42.2749   -3.9599   10.1749 C   0  0  1  0  0  0  0  0  0  0  0  0
   41.2277   -2.9882   10.7687 C   0  0  1  0  0  0  0  0  0  0  0  0
   40.6335   -3.4887   12.0833 C   0  0  0  0  0  0  0  0  0  0  0  0
   41.6717   -5.2698    9.8532 N   0  0  0  0  0  0  0  0  0  0  0  0
   41.8584   -1.6815   11.0279 O   0  0  0  0  0  0  0  0  0  0  0  0
   44.0167   -1.3627    8.0332 O   0  0  0  0  0  0  0  0  0  0  0  0
   43.8436   -4.2560    8.3905 O   0  0  0  0  0  0  0  0  0  0  0  0
   39.9356   -4.6840   11.8547 O   0  0  0  0  0  0  0  0  0  0  0  0
   38.8311    6.7207    7.8507 C   0  0  1  0  0  0  0  0  0  0  0  0
   38.3514    8.0632    8.4452 C   0  0  1  0  0  0  0  0  0  0  0  0
   37.3244    8.7523    7.5143 C   0  0  2  0  0  0  0  0  0  0  0  0
   37.9481    8.9945    6.1347 C   0  0  1  0  0  0  0  0  0  0  0  0
   38.4010    7.6503    5.5097 C   0  0  0  0  0  0  0  0  0  0  0  0
   39.4280    6.9940    6.4383 C   0  0  2  0  0  0  0  0  0  0  0  0
   36.9576    9.6433    5.2467 N   0  0  0  0  0  0  0  0  0  0  0  0
   39.8420    5.7433    5.8080 N   0  0  0  0  0  0  0  0  0  0  0  0
   37.7237    7.8158    9.7222 O   0  0  0  0  0  0  0  0  0  0  0  0
   36.9304   10.0095    8.1049 O   0  0  0  0  0  0  0  0  0  0  0  0
  1  2  1  0  0  0  0
  1 12  1  6  0  0  0
  1 13  1  0  0  0  0
  2  3  1  0  0  0  0
  2 10  1  6  0  0  0
  4  3  1  6  0  0  0
  4  5  1  0  0  0  0
  4 14  1  0  0  0  0
  5  6  1  0  0  0  0
  5 13  1  1  0  0  0
  6  7  1  0  0  0  0
  6 15  1  1  0  0  0
  7  8  1  0  0  0  0
  7 11  1  1  0  0  0
  8 14  1  0  0  0  0
  8 16  1  6  0  0  0
  9 11  1  0  0  0  0
 17 16  1  6  0  0  0
 17 18  1  0  0  0  0
 17 24  1  0  0  0  0
 18 19  1  0  0  0  0
 18 25  1  6  0  0  0
 19 20  1  0  0  0  0
 19 26  1  1  0  0  0
 20 21  1  0  0  0  0
 20 23  1  6  0  0  0
 21 22  1  1  0  0  0
 21 24  1  0  0  0  0
 22 27  1  0  0  0  0
 28 12  1  1  0  0  0
 28 29  1  0  0  0  0
 28 33  1  0  0  0  0
 29 30  1  0  0  0  0
 29 36  1  1  0  0  0
 30 31  1  0  0  0  0
 30 37  1  1  0  0  0
 31 32  1  0  0  0  0
 31 34  1  6  0  0  0
 32 33  1  0  0  0  0
 33 35  1  6  0  0  0
M  END
>  <CHROM.1>
-172.55858930,-74.63111560,-171.62678043,-172.08604246,-63.34300489,76.90042379
40.12511564,2.31608502,9.08920458,1.97020771,0.71601302,-0.47732359

>  <Name>
1yrj_lig

>  <RI>
0

>  <Rbt.Current_Directory>
/home/itssahil/PROJECTS/Mol_Feturizer/New_Systems/rnas/1yrj

>  <Rbt.Executable>
rbdock ($Id: //depot/dev/client3/rdock/2013.1/src/exe/rbdock.cxx#4 $)

>  <Rbt.Library>
libRbt.so (2013.1, Build901 2013/11/27)

>  <Rbt.Parameter_File>
/export/apps/rDock/src/rDock_2013.1_src/data/scripts/dock_solv.prm

>  <Rbt.Receptor>
prm/pocket_docking_3.prm

>  <SCORE>
-24.8098

>  <SCORE.INTER>
-19.7019

>  <SCORE.INTER.CONST>
1

>  <SCORE.INTER.POLAR>
-1.85359

>  <SCORE.INTER.ROT>
6

>  <SCORE.INTER.SOLV>
22.3292

>  <SCORE.INTER.VDW>
-21.999

>  <SCORE.INTER.norm>
-0.532484

>  <SCORE.INTRA>
-5.10791

>  <SCORE.INTRA.DIHEDRAL>
-13.0931

>  <SCORE.INTRA.DIHEDRAL.0>
15.6389

>  <SCORE.INTRA.POLAR>
0

>  <SCORE.INTRA.POLAR.0>
0

>  <SCORE.INTRA.REPUL>
0

>  <SCORE.INTRA.REPUL.0>
0

>  <SCORE.INTRA.SOLV>
-1.45817

>  <SCORE.INTRA.SOLV.lig_0>
-90.9181

>  <SCORE.INTRA.VDW>
2.1677

>  <SCORE.INTRA.VDW.0>
-3.14158

>  <SCORE.INTRA.norm>
-0.138052

>  <SCORE.RESTR>
0

>  <SCORE.RESTR.CAVITY>
0

>  <SCORE.RESTR.norm>
0

>  <SCORE.SYSTEM>
0

>  <SCORE.SYSTEM.CONST>
0

>  <SCORE.SYSTEM.DIHEDRAL>
0

>  <SCORE.SYSTEM.SOLV>
0

>  <SCORE.SYSTEM.norm>
0

>  <SCORE.heavy>
37

>  <SCORE.norm>
-0.670536

>  <RMSD>
1.424

$$$$
1yrj_lig
 OpenBabel11021811423D
libRbt.so/2013.1/901 2013/11/27
 37 40  0  0  0  0  0  0  0  0999 V2000
   39.1077    5.3908    9.4907 C   0  0  1  0  0  0  0  0  0  0  0  0
   40.2741    5.4109   10.4980 C   0  0  1  0  0  0  0  0  0  0  0  0
   41.3051    4.3106   10.2004 C   0  0  0  0  0  0  0  0  0  0  0  0
   40.6071    2.9264   10.1532 C   0  0  1  0  0  0  0  0  0  0  0  0
   39.4837    2.9375    9.0992 C   0  0  1  0  0  0  0  0  0  0  0  0
   38.7957    1.5081    9.0623 C   0  0  1  0  0  0  0  0  0  0  0  0
   39.8429    0.4384    8.7123 C   0  0  1  0  0  0  0  0  0  0  0  0
   40.9706    0.5019    9.7710 C   0  0  2  0  0  0  0  0  0  0  0  0
   38.3835   -1.1906    7.3996 C   0  0  0  0  0  0  0  0  0  0  0  0
   40.9336    6.7261   10.5491 N   0  0  0  0  0  0  0  0  0  0  0  0
   39.1926   -0.9059    8.6258 N   0  0  0  0  0  0  0  0  0  0  0  0
   39.4586    5.9007    8.1906 O   0  0  0  0  0  0  0  0  0  0  0  0
   38.5448    4.0275    9.4334 O   0  0  0  0  0  0  0  0  0  0  0  0
   41.5537    1.8344    9.8305 O   0  0  0  0  0  0  0  0  0  0  0  0
   38.2897    1.1975   10.3437 O   0  0  0  0  0  0  0  0  0  0  0  0
   42.0219   -0.4216    9.4856 O   0  0  0  0  0  0  0  0  0  0  0  0
   42.7995   -0.7801   10.6520 C   0  0  2  0  0  0  0  0  0  0  0  0
   44.1010   -1.5242   10.3112 C   0  0  1  0  0  0  0  0  0  0  0  0
   43.8059   -2.9442    9.7591 C   0  0  2  0  0  0  0  0  0  0  0  0
   42.9946   -3.7287   10.7647 C   0  0  1  0  0  0  0  0  0  0  0  0
   41.6800   -2.9700   11.0640 C   0  0  1  0  0  0  0  0  0  0  0  0
   40.8171   -3.6704   12.1112 C   0  0  0  0  0  0  0  0  0  0  0  0
   42.7261   -5.0716   10.2098 N   0  0  0  0  0  0  0  0  0  0  0  0
   41.9930   -1.6205   11.5674 O   0  0  0  0  0  0  0  0  0  0  0  0
   44.8483   -0.7254    9.3824 O   0  0  0  0  0  0  0  0  0  0  0  0
   45.0397   -3.6362    9.5231 O   0  0  0  0  0  0  0  0  0  0  0  0
   39.6172   -2.9627   12.2762 O   0  0  0  0  0  0  0  0  0  0  0  0
   38.4515    6.1589    7.0800 C   0  0  1  0  0  0  0  0  0  0  0  0
   37.6051    7.3782    7.5076 C   0  0  1  0  0  0  0  0  0  0  0  0
   36.5876    7.7665    6.4076 C   0  0  2  0  0  0  0  0  0  0  0  0
   37.3247    8.0849    5.1013 C   0  0  1  0  0  0  0  0  0  0  0  0
   38.1498    6.8563    4.6404 C   0  0  0  0  0  0  0  0  0  0  0  0
   39.1602    6.4997    5.7357 C   0  0  2  0  0  0  0  0  0  0  0  0
   36.3456    8.4444    4.0513 N   0  0  0  0  0  0  0  0  0  0  0  0
   39.9276    5.3528    5.2577 N   0  0  0  0  0  0  0  0  0  0  0  0
   36.8793    7.0492    8.7122 O   0  0  0  0  0  0  0  0  0  0  0  0
   35.8435    8.9227    6.8483 O   0  0  0  0  0  0  0  0  0  0  0  0
  1  2  1  0  0  0  0
  1 12  1  6  0  0  0
  1 13  1  0  0  0  0
  2  3  1  0  0  0  0
  2 10  1  6  0  0  0
  4  3  1  6  0  0  0
  4  5  1  0  0  0  0
  4 14  1  0  0  0  0
  5  6  1  0  0  0  0
  5 13  1  1  0  0  0
  6  7  1  0  0  0  0
  6 15  1  1  0  0  0
  7  8  1  0  0  0  0
  7 11  1  1  0  0  0
  8 14  1  0  0  0  0
  8 16  1  6  0  0  0
  9 11  1  0  0  0  0
 17 16  1  6  0  0  0
 17 18  1  0  0  0  0
 17 24  1  0  0  0  0
 18 19  1  0  0  0  0
 18 25  1  6  0  0  0
 19 20  1  0  0  0  0
 19 26  1  1  0  0  0
 20 21  1  0  0  0  0
 20 23  1  6  0  0  0
 21 22  1  1  0  0  0
 21 24  1  0  0  0  0
 22 27  1  0  0  0  0
 28 12  1  1  0  0  0
 28 29  1  0  0  0  0
 28 33  1  0  0  0  0
 29 30  1  0  0  0  0
 29 36  1  1  0  0  0
 30 31  1  0  0  0  0
 30 37  1  1  0  0  0
 31 32  1  0  0  0  0
 31 34  1  6  0  0  0
 32 33  1  0  0  0  0
 33 35  1  6  0  0  0
M  END
>  <CHROM.1>
-171.62586430,75.86325239,-157.10645430,-167.63738319,-176.94365379,70.22140778
40.15149940,2.22046482,8.94013382,-2.00678238,0.24590475,2.89034716

>  <Name>
1yrj_lig

>  <RI>
0

>  <Rbt.Current_Directory>
/home/itssahil/PROJECTS/Mol_Feturizer/New_Systems/rnas/1yrj

>  <Rbt.Executable>
rbdock ($Id: //depot/dev/client3/rdock/2013.1/src/exe/rbdock.cxx#4 $)

>  <Rbt.Library>
libRbt.so (2013.1, Build901 2013/11/27)

>  <Rbt.Parameter_File>
/export/apps/rDock/src/rDock_2013.1_src/data/scripts/dock_solv.prm

>  <Rbt.Receptor>
prm/pocket_docking_6.prm

>  <SCORE>
-29.37

>  <SCORE.INTER>
-22.715

>  <SCORE.INTER.CONST>
1

>  <SCORE.INTER.POLAR>
-2.65789

>  <SCORE.INTER.ROT>
6

>  <SCORE.INTER.SOLV>
25.3294

>  <SCORE.INTER.VDW>
-22.3268

>  <SCORE.INTER.norm>
-0.61392

>  <SCORE.INTRA>
-6.65493

>  <SCORE.INTRA.DIHEDRAL>
-11.4516

>  <SCORE.INTRA.DIHEDRAL.0>
15.6389

>  <SCORE.INTRA.POLAR>
0

>  <SCORE.INTRA.POLAR.0>
0

>  <SCORE.INTRA.REPUL>
0

>  <SCORE.INTRA.REPUL.0>
0

>  <SCORE.INTRA.SOLV>
-2.6699

>  <SCORE.INTRA.SOLV.lig_0>
-90.9181

>  <SCORE.INTRA.VDW>
0.405844

>  <SCORE.INTRA.VDW.0>
-3.14158

>  <SCORE.INTRA.norm>
-0.179863

>  <SCORE.RESTR>
0

>  <SCORE.RESTR.CAVITY>
0

>  <SCORE.RESTR.norm>
0

>  <SCORE.SYSTEM>
0

>  <SCORE.SYSTEM.CONST>
0

>  <SCORE.SYSTEM.DIHEDRAL>
0

>  <SCORE.SYSTEM.SOLV>
0

>  <SCORE.SYSTEM.norm>
0

>  <SCORE.heavy>
37

>  <SCORE.norm>
-0.793783

>  <RMSD>
1.447

$$$$
1yrj_lig
 OpenBabel11021811423D
libRbt.so/2013.1/901 2013/11/27
 37 40  0  0  0  0  0  0  0  0999 V2000
   39.0718    5.3668    9.4519 C   0  0  1  0  0  0  0  0  0  0  0  0
   40.2128    5.4292   10.4862 C   0  0  1  0  0  0  0  0  0  0  0  0
   41.2816    4.3564   10.2233 C   0  0  0  0  0  0  0  0  0  0  0  0
   40.6247    2.9523   10.1727 C   0  0  1  0  0  0  0  0  0  0  0  0
   39.5269    2.9220    9.0924 C   0  0  1  0  0  0  0  0  0  0  0  0
   38.8810    1.4731    9.0528 C   0  0  1  0  0  0  0  0  0  0  0  0
   39.9664    0.4309    8.7376 C   0  0  1  0  0  0  0  0  0  0  0  0
   41.0662    0.5361    9.8219 C   0  0  2  0  0  0  0  0  0  0  0  0
   38.7457   -1.3178    7.3381 C   0  0  0  0  0  0  0  0  0  0  0  0
   40.8331    6.7631   10.5404 N   0  0  0  0  0  0  0  0  0  0  0  0
   39.3570   -0.9322    8.6484 N   0  0  0  0  0  0  0  0  0  0  0  0
   39.4388    5.8751    8.1558 O   0  0  0  0  0  0  0  0  0  0  0  0
   38.5495    3.9874    9.3942 O   0  0  0  0  0  0  0  0  0  0  0  0
   41.6095    1.8853    9.8826 O   0  0  0  0  0  0  0  0  0  0  0  0
   38.3537    1.1592   10.3248 O   0  0  0  0  0  0  0  0  0  0  0  0
   42.1500   -0.3592    9.5700 O   0  0  0  0  0  0  0  0  0  0  0  0
   43.1016   -0.4246   10.6581 C   0  0  2  0  0  0  0  0  0  0  0  0
   44.4610   -1.0112   10.2439 C   0  0  1  0  0  0  0  0  0  0  0  0
   44.3429   -2.5246    9.9216 C   0  0  2  0  0  0  0  0  0  0  0  0
   43.7891   -3.2637   11.1181 C   0  0  1  0  0  0  0  0  0  0  0  0
   42.4098   -2.6708   11.4914 C   0  0  1  0  0  0  0  0  0  0  0  0
   41.7963   -3.3291   12.7251 C   0  0  0  0  0  0  0  0  0  0  0  0
   43.6841   -4.6982   10.7796 N   0  0  0  0  0  0  0  0  0  0  0  0
   42.5516   -1.2309   11.7726 O   0  0  0  0  0  0  0  0  0  0  0  0
   44.9584   -0.2562    9.1296 O   0  0  0  0  0  0  0  0  0  0  0  0
   45.6392   -3.0548    9.6128 O   0  0  0  0  0  0  0  0  0  0  0  0
   41.4481   -4.6539   12.4226 O   0  0  0  0  0  0  0  0  0  0  0  0
   38.4457    6.1309    7.0320 C   0  0  1  0  0  0  0  0  0  0  0  0
   37.5654    7.3239    7.4653 C   0  0  1  0  0  0  0  0  0  0  0  0
   36.5589    7.7092    6.3541 C   0  0  2  0  0  0  0  0  0  0  0  0
   37.3115    8.0664    5.0669 C   0  0  1  0  0  0  0  0  0  0  0  0
   38.1714    6.8643    4.5997 C   0  0  0  0  0  0  0  0  0  0  0  0
   39.1702    6.5106    5.7066 C   0  0  2  0  0  0  0  0  0  0  0  0
   36.3432    8.4230    4.0059 N   0  0  0  0  0  0  0  0  0  0  0  0
   39.9708    5.3891    5.2226 N   0  0  0  0  0  0  0  0  0  0  0  0
   36.8262    6.9581    8.6510 O   0  0  0  0  0  0  0  0  0  0  0  0
   35.7820    8.8411    6.8013 O   0  0  0  0  0  0  0  0  0  0  0  0
  1  2  1  0  0  0  0
  1 12  1  6  0  0  0
  1 13  1  0  0  0  0
  2  3  1  0  0  0  0
  2 10  1  6  0  0  0
  4  3  1  6  0  0  0
  4  5  1  0  0  0  0
  4 14  1  0  0  0  0
  5  6  1  0  0  0  0
  5 13  1  1  0  0  0
  6  7  1  0  0  0  0
  6 15  1  1  0  0  0
  7  8  1  0  0  0  0
  7 11  1  1  0  0  0
  8 14  1  0  0  0  0
  8 16  1  6  0  0  0
  9 11  1  0  0  0  0
 17 16  1  6  0  0  0
 17 18  1  0  0  0  0
 17 24  1  0  0  0  0
 18 19  1  0  0  0  0
 18 25  1  6  0  0  0
 19 20  1  0  0  0  0
 19 26  1  1  0  0  0
 20 21  1  0  0  0  0
 20 23  1  6  0  0  0
 21 22  1  1  0  0  0
 21 24  1  0  0  0  0
 22 27  1  0  0  0  0
 28 12  1  1  0  0  0
 28 29  1  0  0  0  0
 28 33  1  0  0  0  0
 29 30  1  0  0  0  0
 29 36  1  1  0  0  0
 30 31  1  0  0  0  0
 30 37  1  1  0  0  0
 31 32  1  0  0  0  0
 31 34  1  6  0  0  0
 32 33  1  0  0  0  0
 33 35  1  6  0  0  0
M  END
>  <CHROM.1>
-169.86261655,83.87440821,-171.74077471,-161.78077193,-68.27488799,68.58718209
40.38687953,2.27260425,8.98899294,-2.05581794,0.23610824,2.86609550

>  <Name>
1yrj_lig

>  <RI>
0

>  <Rbt.Current_Directory>
/home/itssahil/PROJECTS/Mol_Feturizer/New_Systems/rnas/1yrj

>  <Rbt.Executable>
rbdock ($Id: //depot/dev/client3/rdock/2013.1/src/exe/rbdock.cxx#4 $)

>  <Rbt.Library>
libRbt.so (2013.1, Build901 2013/11/27)

>  <Rbt.Parameter_File>
/export/apps/rDock/src/rDock_2013.1_src/data/scripts/dock_solv.prm

>  <Rbt.Receptor>
prm/pocket_docking_6.prm

>  <SCORE>
-29.0166

>  <SCORE.INTER>
-22.7182

>  <SCORE.INTER.CONST>
1

>  <SCORE.INTER.POLAR>
-2.69594

>  <SCORE.INTER.ROT>
6

>  <SCORE.INTER.SOLV>
25.1209

>  <SCORE.INTER.VDW>
-22.1326

>  <SCORE.INTER.norm>
-0.614005

>  <SCORE.INTRA>
-6.29836

>  <SCORE.INTRA.DIHEDRAL>
-12.1893

>  <SCORE.INTRA.DIHEDRAL.0>
15.6389

>  <SCORE.INTRA.POLAR>
0

>  <SCORE.INTRA.POLAR.0>
0

>  <SCORE.INTRA.REPUL>
0

>  <SCORE.INTRA.REPUL.0>
0

>  <SCORE.INTRA.SOLV>
-1.93651

>  <SCORE.INTRA.SOLV.lig_0>
-90.9181

>  <SCORE.INTRA.VDW>
0.764544

>  <SCORE.INTRA.VDW.0>
-3.14158

>  <SCORE.INTRA.norm>
-0.170226

>  <SCORE.RESTR>
0

>  <SCORE.RESTR.CAVITY>
0

>  <SCORE.RESTR.norm>
0

>  <SCORE.SYSTEM>
0

>  <SCORE.SYSTEM.CONST>
0

>  <SCORE.SYSTEM.DIHEDRAL>
0

>  <SCORE.SYSTEM.SOLV>
0

>  <SCORE.SYSTEM.norm>
0

>  <SCORE.heavy>
37

>  <SCORE.norm>
-0.784231

>  <RMSD>
1.464

$$$$
1yrj_lig
 OpenBabel11021811423D
libRbt.so/2013.1/901 2013/11/27
 37 40  0  0  0  0  0  0  0  0999 V2000
   39.0932    5.3000    9.4151 C   0  0  1  0  0  0  0  0  0  0  0  0
   40.2390    5.3607   10.4442 C   0  0  1  0  0  0  0  0  0  0  0  0
   41.2993    4.2791   10.1831 C   0  0  0  0  0  0  0  0  0  0  0  0
   40.6326    2.8793   10.1435 C   0  0  1  0  0  0  0  0  0  0  0  0
   39.5301    2.8501    9.0681 C   0  0  1  0  0  0  0  0  0  0  0  0
   38.8742    1.4055    9.0396 C   0  0  1  0  0  0  0  0  0  0  0  0
   39.9511    0.3541    8.7260 C   0  0  1  0  0  0  0  0  0  0  0  0
   41.0562    0.4581    9.8051 C   0  0  2  0  0  0  0  0  0  0  0  0
   38.6128   -1.3512    7.3816 C   0  0  0  0  0  0  0  0  0  0  0  0
   40.8686    6.6906   10.4880 N   0  0  0  0  0  0  0  0  0  0  0  0
   39.3320   -1.0053    8.6474 N   0  0  0  0  0  0  0  0  0  0  0  0
   39.4582    5.7983    8.1144 O   0  0  0  0  0  0  0  0  0  0  0  0
   38.5613    3.9240    9.3676 O   0  0  0  0  0  0  0  0  0  0  0  0
   41.6089    1.8038    9.8556 O   0  0  0  0  0  0  0  0  0  0  0  0
   38.3502    1.1027   10.3156 O   0  0  0  0  0  0  0  0  0  0  0  0
   42.1327   -0.4461    9.5540 O   0  0  0  0  0  0  0  0  0  0  0  0
   43.1538   -0.4173   10.5788 C   0  0  2  0  0  0  0  0  0  0  0  0
   44.4824   -1.0493   10.1329 C   0  0  1  0  0  0  0  0  0  0  0  0
   44.3418   -2.5852    9.9607 C   0  0  2  0  0  0  0  0  0  0  0  0
   43.8672   -3.2066   11.2543 C   0  0  1  0  0  0  0  0  0  0  0  0
   42.5160   -2.5719   11.6604 C   0  0  1  0  0  0  0  0  0  0  0  0
   41.9843   -3.1089   12.9873 C   0  0  0  0  0  0  0  0  0  0  0  0
   43.7388   -4.6654   11.0579 N   0  0  0  0  0  0  0  0  0  0  0  0
   42.6774   -1.1132   11.7969 O   0  0  0  0  0  0  0  0  0  0  0  0
   44.9062   -0.4042    8.9232 O   0  0  0  0  0  0  0  0  0  0  0  0
   45.6145   -3.1509    9.6183 O   0  0  0  0  0  0  0  0  0  0  0  0
   42.8868   -2.7933   14.0137 O   0  0  0  0  0  0  0  0  0  0  0  0
   38.4579    6.0921    7.0066 C   0  0  1  0  0  0  0  0  0  0  0  0
   37.6079    7.2964    7.4685 C   0  0  1  0  0  0  0  0  0  0  0  0
   36.5970    7.7199    6.3754 C   0  0  2  0  0  0  0  0  0  0  0  0
   37.3420    8.0812    5.0848 C   0  0  1  0  0  0  0  0  0  0  0  0
   38.1709    6.8687    4.5892 C   0  0  0  0  0  0  0  0  0  0  0  0
   39.1747    6.4771    5.6786 C   0  0  2  0  0  0  0  0  0  0  0  0
   36.3692    8.4743    4.0410 N   0  0  0  0  0  0  0  0  0  0  0  0
   39.9458    5.3468    5.1681 N   0  0  0  0  0  0  0  0  0  0  0  0
   36.8750    6.9278    8.6572 O   0  0  0  0  0  0  0  0  0  0  0  0
   35.8494    8.8607    6.8490 O   0  0  0  0  0  0  0  0  0  0  0  0
  1  2  1  0  0  0  0
  1 12  1  6  0  0  0
  1 13  1  0  0  0  0
  2  3  1  0  0  0  0
  2 10  1  6  0  0  0
  4  3  1  6  0  0  0
  4  5  1  0  0  0  0
  4 14  1  0  0  0  0
  5  6  1  0  0  0  0
  5 13  1  1  0  0  0
  6  7  1  0  0  0  0
  6 15  1  1  0  0  0
  7  8  1  0  0  0  0
  7 11  1  1  0  0  0
  8 14  1  0  0  0  0
  8 16  1  6  0  0  0
  9 11  1  0  0  0  0
 17 16  1  6  0  0  0
 17 18  1  0  0  0  0
 17 24  1  0  0  0  0
 18 19  1  0  0  0  0
 18 25  1  6  0  0  0
 19 20  1  0  0  0  0
 19 26  1  1  0  0  0
 20 21  1  0  0  0  0
 20 23  1  6  0  0  0
 21 22  1  1  0  0  0
 21 24  1  0  0  0  0
 22 27  1  0  0  0  0
 28 12  1  1  0  0  0
 28 29  1  0  0  0  0
 28 33  1  0  0  0  0
 29 30  1  0  0  0  0
 29 36  1  1  0  0  0
 30 31  1  0  0  0  0
 30 37  1  1  0  0  0
 31 32  1  0  0  0  0
 31 34  1  6  0  0  0
 32 33  1  0  0  0  0
 33 35  1  6  0  0  0
M  END
>  <CHROM.1>
-168.03116192,78.89739426,-177.31459554,-162.90388759,62.11254523,67.44195288
40.44976866,2.30153916,9.04175382,2.90131478,1.06565003,-1.72664687

>  <Name>
1yrj_lig

>  <RI>
0

>  <Rbt.Current_Directory>
/home/itssahil/PROJECTS/Mol_Feturizer/New_Systems/rnas/1yrj

>  <Rbt.Executable>
rbdock ($Id: //depot/dev/client3/rdock/2013.1/src/exe/rbdock.cxx#4 $)

>  <Rbt.Library>
libRbt.so (2013.1, Build901 2013/11/27)

>  <Rbt.Parameter_File>
/export/apps/rDock/src/rDock_2013.1_src/data/scripts/dock_solv.prm

>  <Rbt.Receptor>
prm/pocket_docking_4.prm

>  <SCORE>
-30.0094

>  <SCORE.INTER>
-23.35

>  <SCORE.INTER.CONST>
1

>  <SCORE.INTER.POLAR>
-2.72497

>  <SCORE.INTER.ROT>
6

>  <SCORE.INTER.SOLV>
25.3388

>  <SCORE.INTER.VDW>
-22.5297

>  <SCORE.INTER.norm>
-0.63108

>  <SCORE.INTRA>
-6.65942

>  <SCORE.INTRA.DIHEDRAL>
-12.9187

>  <SCORE.INTRA.DIHEDRAL.0>
15.6389

>  <SCORE.INTRA.POLAR>
0

>  <SCORE.INTRA.POLAR.0>
0

>  <SCORE.INTRA.REPUL>
0

>  <SCORE.INTRA.REPUL.0>
0

>  <SCORE.INTRA.SOLV>
-2.27785

>  <SCORE.INTRA.SOLV.lig_0>
-90.9181

>  <SCORE.INTRA.VDW>
0.938863

>  <SCORE.INTRA.VDW.0>
-3.14158

>  <SCORE.INTRA.norm>
-0.179984

>  <SCORE.RESTR>
0

>  <SCORE.RESTR.CAVITY>
0

>  <SCORE.RESTR.norm>
0

>  <SCORE.SYSTEM>
0

>  <SCORE.SYSTEM.CONST>
0

>  <SCORE.SYSTEM.DIHEDRAL>
0

>  <SCORE.SYSTEM.SOLV>
0

>  <SCORE.SYSTEM.norm>
0

>  <SCORE.heavy>
37

>  <SCORE.norm>
-0.811065

>  <RMSD>
1.526

$$$$
1yrj_lig
 OpenBabel11021811423D
libRbt.so/2013.1/901 2013/11/27
 37 40  0  0  0  0  0  0  0  0999 V2000
   39.4597    5.6157   10.0438 C   0  0  1  0  0  0  0  0  0  0  0  0
   40.6935    5.3104   10.9157 C   0  0  1  0  0  0  0  0  0  0  0  0
   41.4812    4.1009   10.3876 C   0  0  0  0  0  0  0  0  0  0  0  0
   40.5452    2.8707   10.2611 C   0  0  1  0  0  0  0  0  0  0  0  0
   39.3552    3.2054    9.3419 C   0  0  1  0  0  0  0  0  0  0  0  0
   38.4218    1.9279    9.2194 C   0  0  1  0  0  0  0  0  0  0  0  0
   39.2263    0.7524    8.6412 C   0  0  1  0  0  0  0  0  0  0  0  0
   40.4343    0.4894    9.5729 C   0  0  2  0  0  0  0  0  0  0  0  0
   37.7931   -0.6951    7.1060 C   0  0  0  0  0  0  0  0  0  0  0  0
   41.5797    6.4790   11.0425 N   0  0  0  0  0  0  0  0  0  0  0  0
   38.3408   -0.4416    8.4752 N   0  0  0  0  0  0  0  0  0  0  0  0
   39.7826    6.2231    8.7789 O   0  0  0  0  0  0  0  0  0  0  0  0
   38.6590    4.3847    9.8951 O   0  0  0  0  0  0  0  0  0  0  0  0
   41.2495    1.6867    9.7182 O   0  0  0  0  0  0  0  0  0  0  0  0
   37.9810    1.5437   10.5050 O   0  0  0  0  0  0  0  0  0  0  0  0
   41.2747   -0.5522    9.0745 O   0  0  0  0  0  0  0  0  0  0  0  0
   42.0208   -1.2301   10.1125 C   0  0  2  0  0  0  0  0  0  0  0  0
   43.4110   -0.6220   10.3594 C   0  0  1  0  0  0  0  0  0  0  0  0
   44.3576   -0.8829    9.1577 C   0  0  2  0  0  0  0  0  0  0  0  0
   44.4668   -2.3686    8.9019 C   0  0  1  0  0  0  0  0  0  0  0  0
   43.0574   -2.9449    8.6282 C   0  0  1  0  0  0  0  0  0  0  0  0
   43.0680   -4.4556    8.4060 C   0  0  0  0  0  0  0  0  0  0  0  0
   45.3690   -2.5845    7.7517 N   0  0  0  0  0  0  0  0  0  0  0  0
   42.1781   -2.6646    9.7773 O   0  0  0  0  0  0  0  0  0  0  0  0
   43.2504    0.7781   10.6296 O   0  0  0  0  0  0  0  0  0  0  0  0
   45.6641   -0.3695    9.4521 O   0  0  0  0  0  0  0  0  0  0  0  0
   43.5003   -5.0964    9.5767 O   0  0  0  0  0  0  0  0  0  0  0  0
   38.7450    6.6300    7.7433 C   0  0  1  0  0  0  0  0  0  0  0  0
   38.7524    8.1731    7.6737 C   0  0  1  0  0  0  0  0  0  0  0  0
   37.7715    8.6891    6.5931 C   0  0  2  0  0  0  0  0  0  0  0  0
   38.1490    8.1109    5.2241 C   0  0  1  0  0  0  0  0  0  0  0  0
   38.1098    6.5619    5.2692 C   0  0  0  0  0  0  0  0  0  0  0  0
   39.0986    6.0727    6.3326 C   0  0  2  0  0  0  0  0  0  0  0  0
   37.2009    8.5993    4.1980 N   0  0  0  0  0  0  0  0  0  0  0  0
   39.0454    4.6133    6.3319 N   0  0  0  0  0  0  0  0  0  0  0  0
   38.3493    8.7047    8.9547 O   0  0  0  0  0  0  0  0  0  0  0  0
   37.8373   10.1310    6.5545 O   0  0  0  0  0  0  0  0  0  0  0  0
  1  2  1  0  0  0  0
  1 12  1  6  0  0  0
  1 13  1  0  0  0  0
  2  3  1  0  0  0  0
  2 10  1  6  0  0  0
  4  3  1  6  0  0  0
  4  5  1  0  0  0  0
  4 14  1  0  0  0  0
  5  6  1  0  0  0  0
  5 13  1  1  0  0  0
  6  7  1  0  0  0  0
  6 15  1  1  0  0  0
  7  8  1  0  0  0  0
  7 11  1  1  0  0  0
  8 14  1  0  0  0  0
  8 16  1  6  0  0  0
  9 11  1  0  0  0  0
 17 16  1  6  0  0  0
 17 18  1  0  0  0  0
 17 24  1  0  0  0  0
 18 19  1  0  0  0  0
 18 25  1  6  0  0  0
 19 20  1  0  0  0  0
 19 26  1  1  0  0  0
 20 21  1  0  0  0  0
 20 23  1  6  0  0  0
 21 22  1  1  0  0  0
 21 24  1  0  0  0  0
 22 27  1  0  0  0  0
 28 12  1  1  0  0  0
 28 29  1  0  0  0  0
 28 33  1  0  0  0  0
 29 30  1  0  0  0  0
 29 36  1  1  0  0  0
 30 31  1  0  0  0  0
 30 37  1  6  0  0  0
 31 32  1  0  0  0  0
 31 34  1  6  0  0  0
 32 33  1  0  0  0  0
 33 35  1  1  0  0  0
M  END
>  <CHROM.1>
-179.54483881,98.71618782,-154.03984416,-92.11637300,63.53848472,112.04643639
40.54333317,2.58296621,8.68815631,-2.13642533,0.66207511,-2.97369594

>  <Name>
1yrj_lig

>  <RI>
224

>  <Rbt.Current_Directory>
/home/itssahil/PROJECTS/Mol_Feturizer/New_Systems/rnas/1yrj

>  <Rbt.Executable>
rbdock ($Id: //depot/dev/client3/rdock/2013.1/src/exe/rbdock.cxx#4 $)

>  <Rbt.Library>
libRbt.so (2013.1, Build901 2013/11/27)

>  <Rbt.Parameter_File>
/export/apps/rDock/src/rDock_2013.1_src/data/scripts/dock_solv.prm

>  <Rbt.Receptor>
prm/pocket_docking_2.prm

>  <SCORE>
-15.1948

>  <SCORE.INTER>
-15.4931

>  <SCORE.INTER.CONST>
1

>  <SCORE.INTER.POLAR>
-0.959166

>  <SCORE.INTER.ROT>
6

>  <SCORE.INTER.SOLV>
19.1322

>  <SCORE.INTER.VDW>
-21.1089

>  <SCORE.INTER.norm>
-0.418732

>  <SCORE.INTRA>
0.272012

>  <SCORE.INTRA.DIHEDRAL>
-0.925613

>  <SCORE.INTRA.DIHEDRAL.0>
15.6389

>  <SCORE.INTRA.POLAR>
0

>  <SCORE.INTRA.POLAR.0>
0

>  <SCORE.INTRA.REPUL>
0

>  <SCORE.INTRA.REPUL.0>
0

>  <SCORE.INTRA.SOLV>
0.0464632

>  <SCORE.INTRA.SOLV.lig_0>
-90.9181

>  <SCORE.INTRA.VDW>
0.711587

>  <SCORE.INTRA.VDW.0>
-3.14158

>  <SCORE.INTRA.norm>
0.00735168

>  <SCORE.RESTR>
0.0262639

>  <SCORE.RESTR.CAVITY>
0.0262639

>  <SCORE.RESTR.norm>
0.000709835

>  <SCORE.SYSTEM>
0

>  <SCORE.SYSTEM.CONST>
0

>  <SCORE.SYSTEM.DIHEDRAL>
0

>  <SCORE.SYSTEM.SOLV>
0

>  <SCORE.SYSTEM.norm>
0

>  <SCORE.heavy>
37

>  <SCORE.norm>
-0.41067

>  <RMSD>
1.549

$$$$
1yrj_lig
 OpenBabel11021811423D
libRbt.so/2013.1/901 2013/11/27
 37 40  0  0  0  0  0  0  0  0999 V2000
   39.0416    5.3990    9.5196 C   0  0  1  0  0  0  0  0  0  0  0  0
   40.0535    5.4776   10.6795 C   0  0  1  0  0  0  0  0  0  0  0  0
   41.2100    4.4818   10.4974 C   0  0  0  0  0  0  0  0  0  0  0  0
   40.6519    3.0462   10.3147 C   0  0  1  0  0  0  0  0  0  0  0  0
   39.6860    3.0043    9.1155 C   0  0  1  0  0  0  0  0  0  0  0  0
   39.1404    1.5241    8.9430 C   0  0  1  0  0  0  0  0  0  0  0  0
   40.3172    0.5623    8.7121 C   0  0  1  0  0  0  0  0  0  0  0  0
   41.2800    0.6788    9.9187 C   0  0  2  0  0  0  0  0  0  0  0  0
   39.2798   -1.1551    7.1370 C   0  0  0  0  0  0  0  0  0  0  0  0
   40.5793    6.8409   10.8588 N   0  0  0  0  0  0  0  0  0  0  0  0
   39.8080   -0.8278    8.4983 N   0  0  0  0  0  0  0  0  0  0  0  0
   39.5190    5.9887    8.2959 O   0  0  0  0  0  0  0  0  0  0  0  0
   38.6163    3.9962    9.3463 O   0  0  0  0  0  0  0  0  0  0  0  0
   41.7277    2.0525   10.0962 O   0  0  0  0  0  0  0  0  0  0  0  0
   38.4947    1.1204   10.1324 O   0  0  0  0  0  0  0  0  0  0  0  0
   42.4390   -0.1398    9.7565 O   0  0  0  0  0  0  0  0  0  0  0  0
   43.0864   -0.4678   11.0083 C   0  0  2  0  0  0  0  0  0  0  0  0
   44.4697   -1.1139   10.8276 C   0  0  1  0  0  0  0  0  0  0  0  0
   44.3475   -2.5393   10.2263 C   0  0  2  0  0  0  0  0  0  0  0  0
   43.4731   -3.3978   11.1113 C   0  0  1  0  0  0  0  0  0  0  0  0
   42.0811   -2.7371   11.2494 C   0  0  1  0  0  0  0  0  0  0  0  0
   41.1444   -3.5160   12.1700 C   0  0  0  0  0  0  0  0  0  0  0  0
   43.3723   -4.7444   10.5114 N   0  0  0  0  0  0  0  0  0  0  0  0
   42.2320   -1.3798   11.8039 O   0  0  0  0  0  0  0  0  0  0  0  0
   45.2702   -0.2472   10.0108 O   0  0  0  0  0  0  0  0  0  0  0  0
   45.6470   -3.1403   10.1415 O   0  0  0  0  0  0  0  0  0  0  0  0
   39.8533   -2.9733   12.0897 O   0  0  0  0  0  0  0  0  0  0  0  0
   38.7126    6.0388    7.0068 C   0  0  1  0  0  0  0  0  0  0  0  0
   39.1171    7.3330    6.2670 C   0  0  1  0  0  0  0  0  0  0  0  0
   38.3969    7.4452    4.9014 C   0  0  2  0  0  0  0  0  0  0  0  0
   38.7329    6.2287    4.0306 C   0  0  1  0  0  0  0  0  0  0  0  0
   38.2983    4.9237    4.7453 C   0  0  0  0  0  0  0  0  0  0  0  0
   39.0345    4.8250    6.0856 C   0  0  2  0  0  0  0  0  0  0  0  0
   38.0325    6.3370    2.7313 N   0  0  0  0  0  0  0  0  0  0  0  0
   38.6131    3.5778    6.7180 N   0  0  0  0  0  0  0  0  0  0  0  0
   38.7523    8.4723    7.0762 O   0  0  0  0  0  0  0  0  0  0  0  0
   38.8293    8.6562    4.2447 O   0  0  0  0  0  0  0  0  0  0  0  0
  1  2  1  0  0  0  0
  1 12  1  6  0  0  0
  1 13  1  0  0  0  0
  2  3  1  0  0  0  0
  2 10  1  6  0  0  0
  4  3  1  6  0  0  0
  4  5  1  0  0  0  0
  4 14  1  0  0  0  0
  5  6  1  0  0  0  0
  5 13  1  1  0  0  0
  6  7  1  0  0  0  0
  6 15  1  1  0  0  0
  7  8  1  0  0  0  0
  7 11  1  1  0  0  0
  8 14  1  0  0  0  0
  8 16  1  6  0  0  0
  9 11  1  0  0  0  0
 17 16  1  6  0  0  0
 17 18  1  0  0  0  0
 17 24  1  0  0  0  0
 18 19  1  0  0  0  0
 18 25  1  6  0  0  0
 19 20  1  0  0  0  0
 19 26  1  1  0  0  0
 20 21  1  0  0  0  0
 20 23  1  6  0  0  0
 21 22  1  1  0  0  0
 21 24  1  0  0  0  0
 22 27  1  0  0  0  0
 28 12  1  1  0  0  0
 28 29  1  0  0  0  0
 28 33  1  0  0  0  0
 29 30  1  0  0  0  0
 29 36  1  1  0  0  0
 30 31  1  0  0  0  0
 30 37  1  6  0  0  0
 31 32  1  0  0  0  0
 31 34  1  6  0  0  0
 32 33  1  0  0  0  0
 33 35  1  1  0  0  0
M  END
>  <CHROM.1>
179.95898411,79.54315062,-157.62028949,-168.96760491,-171.29866495,148.01633624
40.64332454,2.13196393,8.85121071,-2.52285965,1.09399686,-2.72828779

>  <Name>
1yrj_lig

>  <RI>
0

>  <Rbt.Current_Directory>
/home/itssahil/PROJECTS/Mol_Feturizer/New_Systems/rnas/1yrj

>  <Rbt.Executable>
rbdock ($Id: //depot/dev/client3/rdock/2013.1/src/exe/rbdock.cxx#4 $)

>  <Rbt.Library>
libRbt.so (2013.1, Build901 2013/11/27)

>  <Rbt.Parameter_File>
/export/apps/rDock/src/rDock_2013.1_src/data/scripts/dock_solv.prm

>  <Rbt.Receptor>
prm/pocket_docking_5.prm

>  <SCORE>
-28.9171

>  <SCORE.INTER>
-25.7625

>  <SCORE.INTER.CONST>
1

>  <SCORE.INTER.POLAR>
-1.85359

>  <SCORE.INTER.ROT>
6

>  <SCORE.INTER.SOLV>
16.8489

>  <SCORE.INTER.VDW>
-24.2126

>  <SCORE.INTER.norm>
-0.696283

>  <SCORE.INTRA>
-3.15465

>  <SCORE.INTRA.DIHEDRAL>
-8.22682

>  <SCORE.INTRA.DIHEDRAL.0>
15.6389

>  <SCORE.INTRA.POLAR>
0

>  <SCORE.INTRA.POLAR.0>
0

>  <SCORE.INTRA.REPUL>
0

>  <SCORE.INTRA.REPUL.0>
0

>  <SCORE.INTRA.SOLV>
1.26262

>  <SCORE.INTRA.SOLV.lig_0>
-90.9181

>  <SCORE.INTRA.VDW>
0.327448

>  <SCORE.INTRA.VDW.0>
-3.14158

>  <SCORE.INTRA.norm>
-0.0852609

>  <SCORE.RESTR>
0

>  <SCORE.RESTR.CAVITY>
0

>  <SCORE.RESTR.norm>
0

>  <SCORE.SYSTEM>
0

>  <SCORE.SYSTEM.CONST>
0

>  <SCORE.SYSTEM.DIHEDRAL>
0

>  <SCORE.SYSTEM.SOLV>
0

>  <SCORE.SYSTEM.norm>
0

>  <SCORE.heavy>
37

>  <SCORE.norm>
-0.781544

>  <RMSD>
1.686

$$$$
1yrj_lig
 OpenBabel11021811423D
libRbt.so/2013.1/901 2013/11/27
 37 40  0  0  0  0  0  0  0  0999 V2000
   38.3748    5.0191    9.0031 C   0  0  1  0  0  0  0  0  0  0  0  0
   39.5826    5.3781    9.8906 C   0  0  1  0  0  0  0  0  0  0  0  0
   40.7739    4.4394    9.6413 C   0  0  0  0  0  0  0  0  0  0  0  0
   40.3367    2.9634    9.8311 C   0  0  1  0  0  0  0  0  0  0  0  0
   39.1622    2.6358    8.8896 C   0  0  1  0  0  0  0  0  0  0  0  0
   38.7438    1.1188    9.0942 C   0  0  1  0  0  0  0  0  0  0  0  0
   39.9418    0.2055    8.7879 C   0  0  1  0  0  0  0  0  0  0  0  0
   41.1072    0.6073    9.7242 C   0  0  2  0  0  0  0  0  0  0  0  0
   38.6932   -1.8072    7.8410 C   0  0  0  0  0  0  0  0  0  0  0  0
   39.9948    6.7806    9.7169 N   0  0  0  0  0  0  0  0  0  0  0  0
   39.5416   -1.2288    8.9295 N   0  0  0  0  0  0  0  0  0  0  0  0
   38.5400    5.3953    7.6231 O   0  0  0  0  0  0  0  0  0  0  0  0
   38.0657    3.5852    9.1680 O   0  0  0  0  0  0  0  0  0  0  0  0
   41.4419    2.0149    9.5636 O   0  0  0  0  0  0  0  0  0  0  0  0
   38.3889    0.9079   10.4449 O   0  0  0  0  0  0  0  0  0  0  0  0
   42.2872   -0.1537    9.4631 O   0  0  0  0  0  0  0  0  0  0  0  0
   43.1775   -0.2357   10.6007 C   0  0  2  0  0  0  0  0  0  0  0  0
   44.5924   -0.7120   10.2338 C   0  0  1  0  0  0  0  0  0  0  0  0
   44.5881   -2.2047    9.8094 C   0  0  2  0  0  0  0  0  0  0  0  0
   44.0146   -3.0538   10.9207 C   0  0  1  0  0  0  0  0  0  0  0  0
   42.5818   -2.5696   11.2461 C   0  0  1  0  0  0  0  0  0  0  0  0
   41.9416   -3.3443   12.3958 C   0  0  0  0  0  0  0  0  0  0  0  0
   44.0194   -4.4661   10.4860 N   0  0  0  0  0  0  0  0  0  0  0  0
   42.6166   -1.1460   11.6262 O   0  0  0  0  0  0  0  0  0  0  0  0
   45.1041    0.1440    9.2020 O   0  0  0  0  0  0  0  0  0  0  0  0
   45.9307   -2.6357    9.5472 O   0  0  0  0  0  0  0  0  0  0  0  0
   40.7783   -2.6814   12.8145 O   0  0  0  0  0  0  0  0  0  0  0  0
   38.5159    6.8331    7.1266 C   0  0  1  0  0  0  0  0  0  0  0  0
   38.8182    6.7968    5.6123 C   0  0  1  0  0  0  0  0  0  0  0  0
   38.7504    8.2143    4.9940 C   0  0  2  0  0  0  0  0  0  0  0  0
   37.3617    8.8212    5.2266 C   0  0  1  0  0  0  0  0  0  0  0  0
   37.0598    8.8979    6.7451 C   0  0  0  0  0  0  0  0  0  0  0  0
   37.1160    7.4840    7.3328 C   0  0  2  0  0  0  0  0  0  0  0  0
   37.3074   10.1802    4.6429 N   0  0  0  0  0  0  0  0  0  0  0  0
   36.8096    7.5962    8.7563 N   0  0  0  0  0  0  0  0  0  0  0  0
   40.1468    6.2678    5.4094 O   0  0  0  0  0  0  0  0  0  0  0  0
   39.0157    8.1181    3.5780 O   0  0  0  0  0  0  0  0  0  0  0  0
  1  2  1  0  0  0  0
  1 12  1  6  0  0  0
  1 13  1  0  0  0  0
  2  3  1  0  0  0  0
  2 10  1  6  0  0  0
  4  3  1  6  0  0  0
  4  5  1  0  0  0  0
  4 14  1  0  0  0  0
  5  6  1  0  0  0  0
  5 13  1  1  0  0  0
  6  7  1  0  0  0  0
  6 15  1  1  0  0  0
  7  8  1  0  0  0  0
  7 11  1  1  0  0  0
  8 14  1  0  0  0  0
  8 16  1  6  0  0  0
  9 11  1  0  0  0  0
 17 16  1  6  0  0  0
 17 18  1  0  0  0  0
 17 24  1  0  0  0  0
 18 19  1  0  0  0  0
 18 25  1  6  0  0  0
 19 20  1  0  0  0  0
 19 26  1  1  0  0  0
 20 21  1  0  0  0  0
 20 23  1  6  0  0  0
 21 22  1  1  0  0  0
 21 24  1  0  0  0  0
 22 27  1  0  0  0  0
 28 12  1  6  0  0  0
 28 29  1  0  0  0  0
 28 33  1  0  0  0  0
 29 30  1  0  0  0  0
 29 36  1  1  0  0  0
 30 31  1  0  0  0  0
 30 37  1  6  0  0  0
 31 32  1  0  0  0  0
 31 34  1  1  0  0  0
 32 33  1  0  0  0  0
 33 35  1  1  0  0  0
M  END
>  <CHROM.1>
-71.31621005,74.59200298,-155.67973226,-164.45048785,167.82782521,176.45979326
40.43803948,2.49790193,8.81534406,2.02783250,0.34866825,-0.57550158

>  <Name>
1yrj_lig

>  <RI>
0

>  <Rbt.Current_Directory>
/home/itssahil/PROJECTS/Mol_Feturizer/New_Systems/rnas/1yrj

>  <Rbt.Executable>
rbdock ($Id: //depot/dev/client3/rdock/2013.1/src/exe/rbdock.cxx#4 $)

>  <Rbt.Library>
libRbt.so (2013.1, Build901 2013/11/27)

>  <Rbt.Parameter_File>
/export/apps/rDock/src/rDock_2013.1_src/data/scripts/dock_solv.prm

>  <Rbt.Receptor>
prm/pocket_docking_3.prm

>  <SCORE>
-27.5882

>  <SCORE.INTER>
-23.2055

>  <SCORE.INTER.CONST>
1

>  <SCORE.INTER.POLAR>
-2.33236

>  <SCORE.INTER.ROT>
6

>  <SCORE.INTER.SOLV>
20.4956

>  <SCORE.INTER.VDW>
-22.1277

>  <SCORE.INTER.norm>
-0.627176

>  <SCORE.INTRA>
-4.38274

>  <SCORE.INTRA.DIHEDRAL>
-10.523

>  <SCORE.INTRA.DIHEDRAL.0>
15.6389

>  <SCORE.INTRA.POLAR>
0

>  <SCORE.INTRA.POLAR.0>
0

>  <SCORE.INTRA.REPUL>
0

>  <SCORE.INTRA.REPUL.0>
0

>  <SCORE.INTRA.SOLV>
1.06033

>  <SCORE.INTRA.SOLV.lig_0>
-90.9181

>  <SCORE.INTRA.VDW>
0.348598

>  <SCORE.INTRA.VDW.0>
-3.14158

>  <SCORE.INTRA.norm>
-0.118452

>  <SCORE.RESTR>
0

>  <SCORE.RESTR.CAVITY>
0

>  <SCORE.RESTR.norm>
0

>  <SCORE.SYSTEM>
0

>  <SCORE.SYSTEM.CONST>
0

>  <SCORE.SYSTEM.DIHEDRAL>
0

>  <SCORE.SYSTEM.SOLV>
0

>  <SCORE.SYSTEM.norm>
0

>  <SCORE.heavy>
37

>  <SCORE.norm>
-0.745628

>  <RMSD>
1.702

$$$$
1yrj_lig
 OpenBabel11021811423D
libRbt.so/2013.1/901 2013/11/27
 37 40  0  0  0  0  0  0  0  0999 V2000
   39.9340    6.7081   10.5063 C   0  0  1  0  0  0  0  0  0  0  0  0
   41.1700    6.3817   11.3672 C   0  0  1  0  0  0  0  0  0  0  0  0
   41.9936    5.2292   10.7708 C   0  0  0  0  0  0  0  0  0  0  0  0
   41.0921    3.9848   10.5600 C   0  0  1  0  0  0  0  0  0  0  0  0
   39.8992    4.3447    9.6541 C   0  0  1  0  0  0  0  0  0  0  0  0
   39.0017    3.0530    9.4444 C   0  0  1  0  0  0  0  0  0  0  0  0
   39.8414    1.9380    8.8002 C   0  0  1  0  0  0  0  0  0  0  0  0
   41.0502    1.6494    9.7232 C   0  0  2  0  0  0  0  0  0  0  0  0
   38.5772   -0.0635    9.7501 C   0  0  0  0  0  0  0  0  0  0  0  0
   42.0234    7.5633   11.5740 N   0  0  0  0  0  0  0  0  0  0  0  0
   38.9897    0.7336    8.5527 N   0  0  0  0  0  0  0  0  0  0  0  0
   40.2482    7.4021    9.2845 O   0  0  0  0  0  0  0  0  0  0  0  0
   39.1679    5.4679   10.2744 O   0  0  0  0  0  0  0  0  0  0  0  0
   41.8317    2.8565    9.9497 O   0  0  0  0  0  0  0  0  0  0  0  0
   38.5634    2.5772   10.6998 O   0  0  0  0  0  0  0  0  0  0  0  0
   41.9216    0.6639    9.1674 O   0  0  0  0  0  0  0  0  0  0  0  0
   43.1258    0.4628    9.9440 C   0  0  2  0  0  0  0  0  0  0  0  0
   44.3375    0.0491    9.0929 C   0  0  1  0  0  0  0  0  0  0  0  0
   44.1606   -1.3850    8.5270 C   0  0  2  0  0  0  0  0  0  0  0  0
   43.9501   -2.3630    9.6601 C   0  0  1  0  0  0  0  0  0  0  0  0
   42.7084   -1.9368   10.4787 C   0  0  1  0  0  0  0  0  0  0  0  0
   42.4489   -2.8460   11.6778 C   0  0  0  0  0  0  0  0  0  0  0  0
   43.7805   -3.7158    9.0906 N   0  0  0  0  0  0  0  0  0  0  0  0
   42.8984   -0.5659   10.9856 O   0  0  0  0  0  0  0  0  0  0  0  0
   44.5149    1.0240    8.0551 O   0  0  0  0  0  0  0  0  0  0  0  0
   45.3382   -1.7666    7.8027 O   0  0  0  0  0  0  0  0  0  0  0  0
   41.3673   -2.3454   12.4176 O   0  0  0  0  0  0  0  0  0  0  0  0
   39.2016    7.9734    8.3396 C   0  0  1  0  0  0  0  0  0  0  0  0
   39.5721    7.5070    6.9144 C   0  0  1  0  0  0  0  0  0  0  0  0
   38.5239    7.9832    5.8797 C   0  0  2  0  0  0  0  0  0  0  0  0
   37.1376    7.4447    6.2528 C   0  0  1  0  0  0  0  0  0  0  0  0
   36.7367    7.9359    7.6673 C   0  0  0  0  0  0  0  0  0  0  0  0
   37.7776    7.4402    8.6766 C   0  0  2  0  0  0  0  0  0  0  0  0
   36.1388    7.9127    5.2660 N   0  0  0  0  0  0  0  0  0  0  0  0
   37.3562    7.9067    9.9948 N   0  0  0  0  0  0  0  0  0  0  0  0
   40.8577    8.0595    6.5569 O   0  0  0  0  0  0  0  0  0  0  0  0
   38.9055    7.4999    4.5737 O   0  0  0  0  0  0  0  0  0  0  0  0
  1  2  1  0  0  0  0
  1 12  1  6  0  0  0
  1 13  1  0  0  0  0
  2  3  1  0  0  0  0
  2 10  1  6  0  0  0
  4  3  1  6  0  0  0
  4  5  1  0  0  0  0
  4 14  1  0  0  0  0
  5  6  1  0  0  0  0
  5 13  1  1  0  0  0
  6  7  1  0  0  0  0
  6 15  1  1  0  0  0
  7  8  1  0  0  0  0
  7 11  1  1  0  0  0
  8 14  1  0  0  0  0
  8 16  1  6  0  0  0
  9 11  1  0  0  0  0
 17 16  1  6  0  0  0
 17 18  1  0  0  0  0
 17 24  1  0  0  0  0
 18 19  1  0  0  0  0
 18 25  1  6  0  0  0
 19 20  1  0  0  0  0
 19 26  1  1  0  0  0
 20 21  1  0  0  0  0
 20 23  1  6  0  0  0
 21 22  1  1  0  0  0
 21 24  1  0  0  0  0
 22 27  1  0  0  0  0
 28 12  1  1  0  0  0
 28 29  1  0  0  0  0
 28 33  1  0  0  0  0
 29 30  1  0  0  0  0
 29 36  1  6  0  0  0
 30 31  1  0  0  0  0
 30 37  1  6  0  0  0
 31 32  1  0  0  0  0
 31 34  1  6  0  0  0
 32 33  1  0  0  0  0
 33 35  1  1  0  0  0
M  END
>  <CHROM.1>
-172.88547620,-72.28626258,174.48786481,-149.33870134,176.05220423,-131.48414400
40.73129235,3.28087147,9.13468717,2.59937830,1.03533511,-1.19230100

>  <Name>
1yrj_lig

>  <RI>
0

>  <Rbt.Current_Directory>
/home/itssahil/PROJECTS/Mol_Feturizer/New_Systems/rnas/1yrj

>  <Rbt.Executable>
rbdock ($Id: //depot/dev/client3/rdock/2013.1/src/exe/rbdock.cxx#4 $)

>  <Rbt.Library>
libRbt.so (2013.1, Build901 2013/11/27)

>  <Rbt.Parameter_File>
/export/apps/rDock/src/rDock_2013.1_src/data/scripts/dock_solv.prm

>  <Rbt.Receptor>
prm/pocket_docking_3.prm

>  <SCORE>
-20.7741

>  <SCORE.INTER>
-21.0312

>  <SCORE.INTER.CONST>
1

>  <SCORE.INTER.POLAR>
-1.8288

>  <SCORE.INTER.ROT>
6

>  <SCORE.INTER.SOLV>
20.8393

>  <SCORE.INTER.VDW>
-22.4713

>  <SCORE.INTER.norm>
-0.568412

>  <SCORE.INTRA>
0.257167

>  <SCORE.INTRA.DIHEDRAL>
-4.69807

>  <SCORE.INTRA.DIHEDRAL.0>
15.6389

>  <SCORE.INTRA.POLAR>
0

>  <SCORE.INTRA.POLAR.0>
0

>  <SCORE.INTRA.REPUL>
0

>  <SCORE.INTRA.REPUL.0>
0

>  <SCORE.INTRA.SOLV>
-0.873364

>  <SCORE.INTRA.SOLV.lig_0>
-90.9181

>  <SCORE.INTRA.VDW>
3.04289

>  <SCORE.INTRA.VDW.0>
-3.14158

>  <SCORE.INTRA.norm>
0.00695045

>  <SCORE.RESTR>
0

>  <SCORE.RESTR.CAVITY>
0

>  <SCORE.RESTR.norm>
0

>  <SCORE.SYSTEM>
0

>  <SCORE.SYSTEM.CONST>
0

>  <SCORE.SYSTEM.DIHEDRAL>
0

>  <SCORE.SYSTEM.SOLV>
0

>  <SCORE.SYSTEM.norm>
0

>  <SCORE.heavy>
37

>  <SCORE.norm>
-0.561461

>  <RMSD>
1.746

$$$$
1yrj_lig
 OpenBabel11021811423D
libRbt.so/2013.1/901 2013/11/27
 37 40  0  0  0  0  0  0  0  0999 V2000
   39.0217    5.2724    9.5623 C   0  0  1  0  0  0  0  0  0  0  0  0
   40.0268    5.3605   10.7275 C   0  0  1  0  0  0  0  0  0  0  0  0
   41.2147    4.4052   10.5308 C   0  0  0  0  0  0  0  0  0  0  0  0
   40.7027    2.9566   10.3184 C   0  0  1  0  0  0  0  0  0  0  0  0
   39.7426    2.9074    9.1148 C   0  0  1  0  0  0  0  0  0  0  0  0
   39.2446    1.4144    8.9119 C   0  0  1  0  0  0  0  0  0  0  0  0
   40.4519    0.4947    8.6672 C   0  0  1  0  0  0  0  0  0  0  0  0
   41.4065    0.6181    9.8796 C   0  0  2  0  0  0  0  0  0  0  0  0
   39.3777   -1.1977    7.0896 C   0  0  0  0  0  0  0  0  0  0  0  0
   40.5087    6.7359   10.9349 N   0  0  0  0  0  0  0  0  0  0  0  0
   39.9874   -0.9064    8.4248 N   0  0  0  0  0  0  0  0  0  0  0  0
   39.4843    5.9003    8.3520 O   0  0  0  0  0  0  0  0  0  0  0  0
   38.6415    3.8605    9.3605 O   0  0  0  0  0  0  0  0  0  0  0  0
   41.8101    2.0016   10.0851 O   0  0  0  0  0  0  0  0  0  0  0  0
   38.6080    0.9677   10.0908 O   0  0  0  0  0  0  0  0  0  0  0  0
   42.5912   -0.1603    9.7062 O   0  0  0  0  0  0  0  0  0  0  0  0
   43.3874   -0.2646   10.9099 C   0  0  2  0  0  0  0  0  0  0  0  0
   44.7827   -0.8628   10.6673 C   0  0  1  0  0  0  0  0  0  0  0  0
   44.6902   -2.3667   10.2956 C   0  0  2  0  0  0  0  0  0  0  0  0
   43.9718   -3.1236   11.3891 C   0  0  1  0  0  0  0  0  0  0  0  0
   42.5624   -2.5178   11.5887 C   0  0  1  0  0  0  0  0  0  0  0  0
   41.7808   -3.1939   12.7130 C   0  0  0  0  0  0  0  0  0  0  0  0
   43.8955   -4.5484   11.0050 N   0  0  0  0  0  0  0  0  0  0  0  0
   42.6830   -1.0869   11.9210 O   0  0  0  0  0  0  0  0  0  0  0  0
   45.4344   -0.0911    9.6480 O   0  0  0  0  0  0  0  0  0  0  0  0
   46.0095   -2.9100   10.1503 O   0  0  0  0  0  0  0  0  0  0  0  0
   41.5118   -4.5245   12.3596 O   0  0  0  0  0  0  0  0  0  0  0  0
   38.6788    5.9544    7.0625 C   0  0  1  0  0  0  0  0  0  0  0  0
   39.0720    7.2589    6.3347 C   0  0  1  0  0  0  0  0  0  0  0  0
   38.3522    7.3767    4.9694 C   0  0  2  0  0  0  0  0  0  0  0  0
   38.7003    6.1711    4.0881 C   0  0  1  0  0  0  0  0  0  0  0  0
   38.2772    4.8558    4.7907 C   0  0  0  0  0  0  0  0  0  0  0  0
   39.0128    4.7519    6.1308 C   0  0  2  0  0  0  0  0  0  0  0  0
   38.0003    6.2845    2.7891 N   0  0  0  0  0  0  0  0  0  0  0  0
   38.6025    3.4953    6.7517 N   0  0  0  0  0  0  0  0  0  0  0  0
   38.6958    8.3875    7.1537 O   0  0  0  0  0  0  0  0  0  0  0  0
   38.7740    8.5974    4.3240 O   0  0  0  0  0  0  0  0  0  0  0  0
  1  2  1  0  0  0  0
  1 12  1  6  0  0  0
  1 13  1  0  0  0  0
  2  3  1  0  0  0  0
  2 10  1  6  0  0  0
  4  3  1  6  0  0  0
  4  5  1  0  0  0  0
  4 14  1  0  0  0  0
  5  6  1  0  0  0  0
  5 13  1  1  0  0  0
  6  7  1  0  0  0  0
  6 15  1  1  0  0  0
  7  8  1  0  0  0  0
  7 11  1  1  0  0  0
  8 14  1  0  0  0  0
  8 16  1  6  0  0  0
  9 11  1  0  0  0  0
 17 16  1  6  0  0  0
 17 18  1  0  0  0  0
 17 24  1  0  0  0  0
 18 19  1  0  0  0  0
 18 25  1  6  0  0  0
 19 20  1  0  0  0  0
 19 26  1  1  0  0  0
 20 21  1  0  0  0  0
 20 23  1  6  0  0  0
 21 22  1  1  0  0  0
 21 24  1  0  0  0  0
 22 27  1  0  0  0  0
 28 12  1  1  0  0  0
 28 29  1  0  0  0  0
 28 33  1  0  0  0  0
 29 30  1  0  0  0  0
 29 36  1  1  0  0  0
 30 31  1  0  0  0  0
 30 37  1  6  0  0  0
 31 32  1  0  0  0  0
 31 34  1  6  0  0  0
 32 33  1  0  0  0  0
 33 35  1  1  0  0  0
M  END
>  <CHROM.1>
-179.80100504,75.00367558,-169.36429381,-168.86924313,-65.65907419,149.27909744
40.82002635,2.08992081,8.90435595,-2.62748852,1.07960290,-2.63754264

>  <Name>
1yrj_lig

>  <RI>
0

>  <Rbt.Current_Directory>
/home/itssahil/PROJECTS/Mol_Feturizer/New_Systems/rnas/1yrj

>  <Rbt.Executable>
rbdock ($Id: //depot/dev/client3/rdock/2013.1/src/exe/rbdock.cxx#4 $)

>  <Rbt.Library>
libRbt.so (2013.1, Build901 2013/11/27)

>  <Rbt.Parameter_File>
/export/apps/rDock/src/rDock_2013.1_src/data/scripts/dock_solv.prm

>  <Rbt.Receptor>
prm/pocket_docking_4.prm

>  <SCORE>
-28.7683

>  <SCORE.INTER>
-25.5264

>  <SCORE.INTER.CONST>
1

>  <SCORE.INTER.POLAR>
-1.83891

>  <SCORE.INTER.ROT>
6

>  <SCORE.INTER.SOLV>
16.6931

>  <SCORE.INTER.VDW>
-24.0523

>  <SCORE.INTER.norm>
-0.689904

>  <SCORE.INTRA>
-3.24185

>  <SCORE.INTRA.DIHEDRAL>
-10.3742

>  <SCORE.INTRA.DIHEDRAL.0>
15.6389

>  <SCORE.INTRA.POLAR>
0

>  <SCORE.INTRA.POLAR.0>
0

>  <SCORE.INTRA.REPUL>
0

>  <SCORE.INTRA.REPUL.0>
0

>  <SCORE.INTRA.SOLV>
2.08904

>  <SCORE.INTRA.SOLV.lig_0>
-90.9181

>  <SCORE.INTRA.VDW>
0.900711

>  <SCORE.INTRA.VDW.0>
-3.14158

>  <SCORE.INTRA.norm>
-0.0876176

>  <SCORE.RESTR>
0

>  <SCORE.RESTR.CAVITY>
0

>  <SCORE.RESTR.norm>
0

>  <SCORE.SYSTEM>
0

>  <SCORE.SYSTEM.CONST>
0

>  <SCORE.SYSTEM.DIHEDRAL>
0

>  <SCORE.SYSTEM.SOLV>
0

>  <SCORE.SYSTEM.norm>
0

>  <SCORE.heavy>
37

>  <SCORE.norm>
-0.777521

>  <RMSD>
1.746

$$$$
1yrj_lig
 OpenBabel11021811423D
libRbt.so/2013.1/901 2013/11/27
 37 40  0  0  0  0  0  0  0  0999 V2000
   38.8444    5.0240    9.2158 C   0  0  1  0  0  0  0  0  0  0  0  0
   39.9164    4.9739   10.3221 C   0  0  1  0  0  0  0  0  0  0  0  0
   40.9669    3.8853   10.0508 C   0  0  0  0  0  0  0  0  0  0  0  0
   40.2722    2.5121    9.8577 C   0  0  1  0  0  0  0  0  0  0  0  0
   39.2473    2.5959    8.7106 C   0  0  1  0  0  0  0  0  0  0  0  0
   38.5616    1.1769    8.5258 C   0  0  1  0  0  0  0  0  0  0  0  0
   39.6330    0.1219    8.2057 C   0  0  1  0  0  0  0  0  0  0  0  0
   40.6619    0.1123    9.3623 C   0  0  2  0  0  0  0  0  0  0  0  0
   39.7112   -2.1695    7.0877 C   0  0  0  0  0  0  0  0  0  0  0  0
   40.5722    6.2781   10.5116 N   0  0  0  0  0  0  0  0  0  0  0  0
   38.9895   -1.2094    7.9801 N   0  0  0  0  0  0  0  0  0  0  0  0
   39.3112    5.6086    7.9855 O   0  0  0  0  0  0  0  0  0  0  0  0
   38.2853    3.6713    9.0258 O   0  0  0  0  0  0  0  0  0  0  0  0
   41.2409    1.4340    9.5544 O   0  0  0  0  0  0  0  0  0  0  0  0
   37.9425    0.7936    9.7359 O   0  0  0  0  0  0  0  0  0  0  0  0
   41.7321   -0.8007    9.1158 O   0  0  0  0  0  0  0  0  0  0  0  0
   42.4072   -1.2286   10.3219 C   0  0  2  0  0  0  0  0  0  0  0  0
   43.5074   -2.2716   10.0667 C   0  0  1  0  0  0  0  0  0  0  0  0
   42.8999   -3.6291    9.6233 C   0  0  2  0  0  0  0  0  0  0  0  0
   41.9312   -4.1262   10.6718 C   0  0  1  0  0  0  0  0  0  0  0  0
   40.8216   -3.0692   10.8842 C   0  0  1  0  0  0  0  0  0  0  0  0
   39.8216   -3.4697   11.9665 C   0  0  0  0  0  0  0  0  0  0  0  0
   41.3671   -5.4149   10.2199 N   0  0  0  0  0  0  0  0  0  0  0  0
   41.4307   -1.7883   11.2851 O   0  0  0  0  0  0  0  0  0  0  0  0
   44.4170   -1.7401    9.0924 O   0  0  0  0  0  0  0  0  0  0  0  0
   43.9459   -4.5979    9.4671 O   0  0  0  0  0  0  0  0  0  0  0  0
   39.1236   -4.6152   11.5561 O   0  0  0  0  0  0  0  0  0  0  0  0
   38.3925    6.0957    6.8750 C   0  0  1  0  0  0  0  0  0  0  0  0
   37.6704    7.3556    7.4014 C   0  0  1  0  0  0  0  0  0  0  0  0
   36.7557    7.9713    6.3150 C   0  0  2  0  0  0  0  0  0  0  0  0
   37.5840    8.3331    5.0764 C   0  0  1  0  0  0  0  0  0  0  0  0
   38.2855    7.0698    4.5152 C   0  0  0  0  0  0  0  0  0  0  0  0
   39.1970    6.4869    5.6001 C   0  0  2  0  0  0  0  0  0  0  0  0
   36.7018    8.9107    4.0379 N   0  0  0  0  0  0  0  0  0  0  0  0
   39.8511    5.3128    5.0286 N   0  0  0  0  0  0  0  0  0  0  0  0
   36.8569    6.9924    8.5382 O   0  0  0  0  0  0  0  0  0  0  0  0
   36.1274    9.1555    6.8512 O   0  0  0  0  0  0  0  0  0  0  0  0
  1  2  1  0  0  0  0
  1 12  1  6  0  0  0
  1 13  1  0  0  0  0
  2  3  1  0  0  0  0
  2 10  1  6  0  0  0
  4  3  1  6  0  0  0
  4  5  1  0  0  0  0
  4 14  1  0  0  0  0
  5  6  1  0  0  0  0
  5 13  1  1  0  0  0
  6  7  1  0  0  0  0
  6 15  1  1  0  0  0
  7  8  1  0  0  0  0
  7 11  1  1  0  0  0
  8 14  1  0  0  0  0
  8 16  1  6  0  0  0
  9 11  1  0  0  0  0
 17 16  1  6  0  0  0
 17 18  1  0  0  0  0
 17 24  1  0  0  0  0
 18 19  1  0  0  0  0
 18 25  1  6  0  0  0
 19 20  1  0  0  0  0
 19 26  1  1  0  0  0
 20 21  1  0  0  0  0
 20 23  1  6  0  0  0
 21 22  1  1  0  0  0
 21 24  1  0  0  0  0
 22 27  1  0  0  0  0
 28 12  1  1  0  0  0
 28 29  1  0  0  0  0
 28 33  1  0  0  0  0
 29 30  1  0  0  0  0
 29 36  1  1  0  0  0
 30 31  1  0  0  0  0
 30 37  1  1  0  0  0
 31 32  1  0  0  0  0
 31 34  1  6  0  0  0
 32 33  1  0  0  0  0
 33 35  1  6  0  0  0
M  END
>  <CHROM.1>
-163.95665269,152.88792173,-157.48607071,176.75146935,-64.79037837,69.63915921
39.87020284,1.89324188,8.68960821,2.14508888,0.91871677,-0.80290550

>  <Name>
1yrj_lig

>  <RI>
0

>  <Rbt.Current_Directory>
/home/itssahil/PROJECTS/Mol_Feturizer/New_Systems/rnas/1yrj

>  <Rbt.Executable>
rbdock ($Id: //depot/dev/client3/rdock/2013.1/src/exe/rbdock.cxx#4 $)

>  <Rbt.Library>
libRbt.so (2013.1, Build901 2013/11/27)

>  <Rbt.Parameter_File>
/export/apps/rDock/src/rDock_2013.1_src/data/scripts/dock_solv.prm

>  <Rbt.Receptor>
prm/pocket_docking_7.prm

>  <SCORE>
-27.184

>  <SCORE.INTER>
-21.0771

>  <SCORE.INTER.CONST>
1

>  <SCORE.INTER.POLAR>
-2.32305

>  <SCORE.INTER.ROT>
6

>  <SCORE.INTER.SOLV>
21.9457

>  <SCORE.INTER.VDW>
-21.2231

>  <SCORE.INTER.norm>
-0.56965

>  <SCORE.INTRA>
-6.10694

>  <SCORE.INTRA.DIHEDRAL>
-11.0452

>  <SCORE.INTRA.DIHEDRAL.0>
15.6389

>  <SCORE.INTRA.POLAR>
0

>  <SCORE.INTRA.POLAR.0>
0

>  <SCORE.INTRA.REPUL>
0

>  <SCORE.INTRA.REPUL.0>
0

>  <SCORE.INTRA.SOLV>
-1.39668

>  <SCORE.INTRA.SOLV.lig_0>
-90.9181

>  <SCORE.INTRA.VDW>
0.114019

>  <SCORE.INTRA.VDW.0>
-3.14158

>  <SCORE.INTRA.norm>
-0.165052

>  <SCORE.RESTR>
0

>  <SCORE.RESTR.CAVITY>
0

>  <SCORE.RESTR.norm>
0

>  <SCORE.SYSTEM>
0

>  <SCORE.SYSTEM.CONST>
0

>  <SCORE.SYSTEM.DIHEDRAL>
0

>  <SCORE.SYSTEM.SOLV>
0

>  <SCORE.SYSTEM.norm>
0

>  <SCORE.heavy>
37

>  <SCORE.norm>
-0.734703

>  <RMSD>
1.756

$$$$
1yrj_lig
 OpenBabel11021811423D
libRbt.so/2013.1/901 2013/11/27
 37 40  0  0  0  0  0  0  0  0999 V2000
   38.9950    5.2724    9.5368 C   0  0  1  0  0  0  0  0  0  0  0  0
   39.9961    5.3566   10.7056 C   0  0  1  0  0  0  0  0  0  0  0  0
   41.1837    4.4006   10.5108 C   0  0  0  0  0  0  0  0  0  0  0  0
   40.6710    2.9531   10.2931 C   0  0  1  0  0  0  0  0  0  0  0  0
   39.7150    2.9078    9.0860 C   0  0  1  0  0  0  0  0  0  0  0  0
   39.2161    1.4158    8.8778 C   0  0  1  0  0  0  0  0  0  0  0  0
   40.4234    0.4954    8.6350 C   0  0  1  0  0  0  0  0  0  0  0  0
   41.3739    0.6150    9.8510 C   0  0  2  0  0  0  0  0  0  0  0  0
   39.4369   -1.2145    7.0196 C   0  0  0  0  0  0  0  0  0  0  0  0
   40.4787    6.7311   10.9181 N   0  0  0  0  0  0  0  0  0  0  0  0
   39.9583   -0.9045    8.3875 N   0  0  0  0  0  0  0  0  0  0  0  0
   39.4624    5.9028    8.3296 O   0  0  0  0  0  0  0  0  0  0  0  0
   38.6140    3.8615    9.3302 O   0  0  0  0  0  0  0  0  0  0  0  0
   41.7782    1.9975   10.0613 O   0  0  0  0  0  0  0  0  0  0  0  0
   38.5750    0.9669   10.0533 O   0  0  0  0  0  0  0  0  0  0  0  0
   42.5584   -0.1643    9.6799 O   0  0  0  0  0  0  0  0  0  0  0  0
   43.3578   -0.2602   10.8822 C   0  0  2  0  0  0  0  0  0  0  0  0
   44.7552   -0.8532   10.6388 C   0  0  1  0  0  0  0  0  0  0  0  0
   44.6685   -2.3589   10.2734 C   0  0  2  0  0  0  0  0  0  0  0  0
   43.9559   -3.1146   11.3716 C   0  0  1  0  0  0  0  0  0  0  0  0
   42.5442   -2.5142   11.5719 C   0  0  1  0  0  0  0  0  0  0  0  0
   41.7682   -3.1892   12.7006 C   0  0  0  0  0  0  0  0  0  0  0  0
   43.8850   -4.5413   10.9934 N   0  0  0  0  0  0  0  0  0  0  0  0
   42.6592   -1.0815   11.8982 O   0  0  0  0  0  0  0  0  0  0  0  0
   45.4011   -0.0827    9.6151 O   0  0  0  0  0  0  0  0  0  0  0  0
   45.9899   -2.8970   10.1274 O   0  0  0  0  0  0  0  0  0  0  0  0
   41.4654   -4.5092   12.3345 O   0  0  0  0  0  0  0  0  0  0  0  0
   38.6716    5.9401    7.0305 C   0  0  1  0  0  0  0  0  0  0  0  0
   39.0695    7.2374    6.2925 C   0  0  1  0  0  0  0  0  0  0  0  0
   38.3650    7.3377    4.9178 C   0  0  2  0  0  0  0  0  0  0  0  0
   38.7265    6.1234    4.0543 C   0  0  1  0  0  0  0  0  0  0  0  0
   38.2990    4.8148    4.7668 C   0  0  0  0  0  0  0  0  0  0  0  0
   39.0196    4.7281    6.1163 C   0  0  2  0  0  0  0  0  0  0  0  0
   38.0411    6.2200    2.7461 N   0  0  0  0  0  0  0  0  0  0  0  0
   38.6057    3.4774    6.7466 N   0  0  0  0  0  0  0  0  0  0  0  0
   38.6808    8.3740    7.0944 O   0  0  0  0  0  0  0  0  0  0  0  0
   38.7908    8.5523    4.2636 O   0  0  0  0  0  0  0  0  0  0  0  0
  1  2  1  0  0  0  0
  1 12  1  6  0  0  0
  1 13  1  0  0  0  0
  2  3  1  0  0  0  0
  2 10  1  6  0  0  0
  4  3  1  6  0  0  0
  4  5  1  0  0  0  0
  4 14  1  0  0  0  0
  5  6  1  0  0  0  0
  5 13  1  1  0  0  0
  6  7  1  0  0  0  0
  6 15  1  1  0  0  0
  7  8  1  0  0  0  0
  7 11  1  1  0  0  0
  8 14  1  0  0  0  0
  8 16  1  6  0  0  0
  9 11  1  0  0  0  0
 17 16  1  6  0  0  0
 17 18  1  0  0  0  0
 17 24  1  0  0  0  0
 18 19  1  0  0  0  0
 18 25  1  6  0  0  0
 19 20  1  0  0  0  0
 19 26  1  1  0  0  0
 20 21  1  0  0  0  0
 20 23  1  6  0  0  0
 21 22  1  1  0  0  0
 21 24  1  0  0  0  0
 22 27  1  0  0  0  0
 28 12  1  1  0  0  0
 28 29  1  0  0  0  0
 28 33  1  0  0  0  0
 29 30  1  0  0  0  0
 29 36  1  1  0  0  0
 30 31  1  0  0  0  0
 30 37  1  6  0  0  0
 31 32  1  0  0  0  0
 31 34  1  6  0  0  0
 32 33  1  0  0  0  0
 33 35  1  1  0  0  0
M  END
>  <CHROM.1>
179.10157434,78.95045298,-169.99999938,-168.58548269,-67.61266403,150.10147457
40.80522699,2.08261839,8.87471423,-2.67817933,1.09539013,-2.58222198

>  <Name>
1yrj_lig

>  <RI>
0

>  <Rbt.Current_Directory>
/home/itssahil/PROJECTS/Mol_Feturizer/New_Systems/rnas/1yrj

>  <Rbt.Executable>
rbdock ($Id: //depot/dev/client3/rdock/2013.1/src/exe/rbdock.cxx#4 $)

>  <Rbt.Library>
libRbt.so (2013.1, Build901 2013/11/27)

>  <Rbt.Parameter_File>
/export/apps/rDock/src/rDock_2013.1_src/data/scripts/dock_solv.prm

>  <Rbt.Receptor>
prm/pocket_docking_5.prm

>  <SCORE>
-28.6811

>  <SCORE.INTER>
-25.6342

>  <SCORE.INTER.CONST>
1

>  <SCORE.INTER.POLAR>
-1.84584

>  <SCORE.INTER.ROT>
6

>  <SCORE.INTER.SOLV>
16.674

>  <SCORE.INTER.VDW>
-24.0947

>  <SCORE.INTER.norm>
-0.692817

>  <SCORE.INTRA>
-3.0469

>  <SCORE.INTRA.DIHEDRAL>
-10.3697

>  <SCORE.INTRA.DIHEDRAL.0>
15.6389

>  <SCORE.INTRA.POLAR>
0

>  <SCORE.INTRA.POLAR.0>
0

>  <SCORE.INTRA.REPUL>
0

>  <SCORE.INTRA.REPUL.0>
0

>  <SCORE.INTRA.SOLV>
2.18311

>  <SCORE.INTRA.SOLV.lig_0>
-90.9181

>  <SCORE.INTRA.VDW>
1.04639

>  <SCORE.INTRA.VDW.0>
-3.14158

>  <SCORE.INTRA.norm>
-0.0823486

>  <SCORE.RESTR>
0

>  <SCORE.RESTR.CAVITY>
0

>  <SCORE.RESTR.norm>
0

>  <SCORE.SYSTEM>
0

>  <SCORE.SYSTEM.CONST>
0

>  <SCORE.SYSTEM.DIHEDRAL>
0

>  <SCORE.SYSTEM.SOLV>
0

>  <SCORE.SYSTEM.norm>
0

>  <SCORE.heavy>
37

>  <SCORE.norm>
-0.775166

>  <RMSD>
1.762

$$$$
1yrj_lig
 OpenBabel11021811423D
libRbt.so/2013.1/901 2013/11/27
 37 40  0  0  0  0  0  0  0  0999 V2000
   39.1162    6.0167   10.2450 C   0  0  1  0  0  0  0  0  0  0  0  0
   40.3438    5.9076   11.1704 C   0  0  1  0  0  0  0  0  0  0  0  0
   41.3447    4.8539   10.6700 C   0  0  0  0  0  0  0  0  0  0  0  0
   40.6333    3.4873   10.4913 C   0  0  1  0  0  0  0  0  0  0  0  0
   39.4459    3.6334    9.5209 C   0  0  1  0  0  0  0  0  0  0  0  0
   38.7448    2.2206    9.3460 C   0  0  1  0  0  0  0  0  0  0  0  0
   39.7588    1.2040    8.7966 C   0  0  1  0  0  0  0  0  0  0  0  0
   40.9514    1.1314    9.7808 C   0  0  2  0  0  0  0  0  0  0  0  0
   38.1188   -0.2105    7.4489 C   0  0  0  0  0  0  0  0  0  0  0  0
   41.0164    7.2051   11.3467 N   0  0  0  0  0  0  0  0  0  0  0  0
   39.0929   -0.1180    8.5810 N   0  0  0  0  0  0  0  0  0  0  0  0
   39.3887    6.6883    9.0009 O   0  0  0  0  0  0  0  0  0  0  0  0
   38.5392    4.6721   10.0503 O   0  0  0  0  0  0  0  0  0  0  0  0
   41.5484    2.4451    9.9725 O   0  0  0  0  0  0  0  0  0  0  0  0
   38.3180    1.7491   10.6069 O   0  0  0  0  0  0  0  0  0  0  0  0
   41.9748    0.2515    9.3138 O   0  0  0  0  0  0  0  0  0  0  0  0
   42.9577   -0.0697   10.3260 C   0  0  2  0  0  0  0  0  0  0  0  0
   44.2531   -0.6646    9.7500 C   0  0  1  0  0  0  0  0  0  0  0  0
   44.0096   -2.0855    9.1755 C   0  0  2  0  0  0  0  0  0  0  0  0
   43.4455   -2.9855   10.2510 C   0  0  1  0  0  0  0  0  0  0  0  0
   42.1293   -2.3758   10.7889 C   0  0  1  0  0  0  0  0  0  0  0  0
   41.5131   -3.1990   11.9178 C   0  0  0  0  0  0  0  0  0  0  0  0
   43.2205   -4.3269    9.6737 N   0  0  0  0  0  0  0  0  0  0  0  0
   42.3893   -1.0214   11.3089 O   0  0  0  0  0  0  0  0  0  0  0  0
   44.7651    0.2402    8.7609 O   0  0  0  0  0  0  0  0  0  0  0  0
   45.2502   -2.6394    8.7161 O   0  0  0  0  0  0  0  0  0  0  0  0
   42.3770   -3.1954   13.0231 O   0  0  0  0  0  0  0  0  0  0  0  0
   39.5747    8.1926    8.8714 C   0  0  1  0  0  0  0  0  0  0  0  0
   40.0035    8.4744    7.4144 C   0  0  1  0  0  0  0  0  0  0  0  0
   40.1547    9.9938    7.1596 C   0  0  2  0  0  0  0  0  0  0  0  0
   38.8303   10.7084    7.4531 C   0  0  1  0  0  0  0  0  0  0  0  0
   38.4062   10.4644    8.9240 C   0  0  0  0  0  0  0  0  0  0  0  0
   38.2467    8.9573    9.1494 C   0  0  2  0  0  0  0  0  0  0  0  0
   38.9851   12.1614    7.2182 N   0  0  0  0  0  0  0  0  0  0  0  0
   37.8306    8.7705   10.5368 N   0  0  0  0  0  0  0  0  0  0  0  0
   41.2748    7.8359    7.1653 O   0  0  0  0  0  0  0  0  0  0  0  0
   40.5312   10.1998    5.7810 O   0  0  0  0  0  0  0  0  0  0  0  0
  1  2  1  0  0  0  0
  1 12  1  6  0  0  0
  1 13  1  0  0  0  0
  2  3  1  0  0  0  0
  2 10  1  6  0  0  0
  4  3  1  6  0  0  0
  4  5  1  0  0  0  0
  4 14  1  0  0  0  0
  5  6  1  0  0  0  0
  5 13  1  1  0  0  0
  6  7  1  0  0  0  0
  6 15  1  1  0  0  0
  7  8  1  0  0  0  0
  7 11  1  1  0  0  0
  8 14  1  0  0  0  0
  8 16  1  6  0  0  0
  9 11  1  0  0  0  0
 17 16  1  6  0  0  0
 17 18  1  0  0  0  0
 17 24  1  0  0  0  0
 18 19  1  0  0  0  0
 18 25  1  6  0  0  0
 19 20  1  0  0  0  0
 19 26  1  1  0  0  0
 20 21  1  0  0  0  0
 20 23  1  6  0  0  0
 21 22  1  1  0  0  0
 21 24  1  0  0  0  0
 22 27  1  0  0  0  0
 28 12  1  6  0  0  0
 28 29  1  0  0  0  0
 28 33  1  0  0  0  0
 29 30  1  0  0  0  0
 29 36  1  1  0  0  0
 30 31  1  0  0  0  0
 30 37  1  6  0  0  0
 31 32  1  0  0  0  0
 31 34  1  1  0  0  0
 32 33  1  0  0  0  0
 33 35  1  1  0  0  0
M  END
>  <CHROM.1>
-74.74426286,70.95209078,-167.18367926,-163.35717022,64.22278193,173.69467832
40.79550516,3.31412955,9.44858843,1.88734119,0.43867023,-0.30650083

>  <Name>
1yrj_lig

>  <RI>
0

>  <Rbt.Current_Directory>
/home/itssahil/PROJECTS/Mol_Feturizer/New_Systems/rnas/1yrj

>  <Rbt.Executable>
rbdock ($Id: //depot/dev/client3/rdock/2013.1/src/exe/rbdock.cxx#4 $)

>  <Rbt.Library>
libRbt.so (2013.1, Build901 2013/11/27)

>  <Rbt.Parameter_File>
/export/apps/rDock/src/rDock_2013.1_src/data/scripts/dock_solv.prm

>  <Rbt.Receptor>
prm/pocket_docking_5.prm

>  <SCORE>
-28.8073

>  <SCORE.INTER>
-23.8617

>  <SCORE.INTER.CONST>
1

>  <SCORE.INTER.POLAR>
-1.8047

>  <SCORE.INTER.ROT>
6

>  <SCORE.INTER.SOLV>
13.344

>  <SCORE.INTER.VDW>
-21.9401

>  <SCORE.INTER.norm>
-0.644911

>  <SCORE.INTRA>
-4.94559

>  <SCORE.INTRA.DIHEDRAL>
-12.1136

>  <SCORE.INTRA.DIHEDRAL.0>
15.6389

>  <SCORE.INTRA.POLAR>
0

>  <SCORE.INTRA.POLAR.0>
0

>  <SCORE.INTRA.REPUL>
0

>  <SCORE.INTRA.REPUL.0>
0

>  <SCORE.INTRA.SOLV>
1.10525

>  <SCORE.INTRA.SOLV.lig_0>
-90.9181

>  <SCORE.INTRA.VDW>
0.55858

>  <SCORE.INTRA.VDW.0>
-3.14158

>  <SCORE.INTRA.norm>
-0.133665

>  <SCORE.RESTR>
0

>  <SCORE.RESTR.CAVITY>
0

>  <SCORE.RESTR.norm>
0

>  <SCORE.SYSTEM>
0

>  <SCORE.SYSTEM.CONST>
0

>  <SCORE.SYSTEM.DIHEDRAL>
0

>  <SCORE.SYSTEM.SOLV>
0

>  <SCORE.SYSTEM.norm>
0

>  <SCORE.heavy>
37

>  <SCORE.norm>
-0.778576

>  <RMSD>
1.770

$$$$
1yrj_lig
 OpenBabel11021811423D
libRbt.so/2013.1/901 2013/11/27
 37 40  0  0  0  0  0  0  0  0999 V2000
   39.0917    6.0043   10.2656 C   0  0  1  0  0  0  0  0  0  0  0  0
   40.3280    5.9008   11.1800 C   0  0  1  0  0  0  0  0  0  0  0  0
   41.3305    4.8536   10.6692 C   0  0  0  0  0  0  0  0  0  0  0  0
   40.6254    3.4832   10.4946 C   0  0  1  0  0  0  0  0  0  0  0  0
   39.4286    3.6240    9.5349 C   0  0  1  0  0  0  0  0  0  0  0  0
   38.7342    2.2075    9.3638 C   0  0  1  0  0  0  0  0  0  0  0  0
   39.7490    1.1976    8.8040 C   0  0  1  0  0  0  0  0  0  0  0  0
   40.9507    1.1303    9.7776 C   0  0  2  0  0  0  0  0  0  0  0  0
   38.2785   -0.2907    7.3447 C   0  0  0  0  0  0  0  0  0  0  0  0
   40.9947    7.2019   11.3524 N   0  0  0  0  0  0  0  0  0  0  0  0
   39.0888   -0.1278    8.5921 N   0  0  0  0  0  0  0  0  0  0  0  0
   39.3494    6.6793    9.0202 O   0  0  0  0  0  0  0  0  0  0  0  0
   38.5207    4.6567   10.0739 O   0  0  0  0  0  0  0  0  0  0  0  0
   41.5418    2.4471    9.9661 O   0  0  0  0  0  0  0  0  0  0  0  0
   38.3211    1.7316   10.6278 O   0  0  0  0  0  0  0  0  0  0  0  0
   41.9749    0.2570    9.3002 O   0  0  0  0  0  0  0  0  0  0  0  0
   42.9681   -0.0607   10.3034 C   0  0  2  0  0  0  0  0  0  0  0  0
   44.2555   -0.6625    9.7167 C   0  0  1  0  0  0  0  0  0  0  0  0
   44.0019   -2.0862    9.1538 C   0  0  2  0  0  0  0  0  0  0  0  0
   43.4475   -2.9781   10.2409 C   0  0  1  0  0  0  0  0  0  0  0  0
   42.1389   -2.3617   10.7896 C   0  0  1  0  0  0  0  0  0  0  0  0
   41.5331   -3.1763   11.9303 C   0  0  0  0  0  0  0  0  0  0  0  0
   43.2126   -4.3225    9.6744 N   0  0  0  0  0  0  0  0  0  0  0  0
   42.4082   -1.0048   11.2983 O   0  0  0  0  0  0  0  0  0  0  0  0
   44.7589    0.2348    8.7165 O   0  0  0  0  0  0  0  0  0  0  0  0
   45.2359   -2.6462    8.6840 O   0  0  0  0  0  0  0  0  0  0  0  0
   42.4108   -3.1713   13.0246 O   0  0  0  0  0  0  0  0  0  0  0  0
   39.5539    8.1817    8.8955 C   0  0  1  0  0  0  0  0  0  0  0  0
   39.9704    8.4647    7.4352 C   0  0  1  0  0  0  0  0  0  0  0  0
   40.1389    9.9831    7.1857 C   0  0  2  0  0  0  0  0  0  0  0  0
   38.8274   10.7137    7.4971 C   0  0  1  0  0  0  0  0  0  0  0  0
   38.4162   10.4684    8.9714 C   0  0  0  0  0  0  0  0  0  0  0  0
   38.2392    8.9624    9.1917 C   0  0  2  0  0  0  0  0  0  0  0  0
   38.9988   12.1657    7.2671 N   0  0  0  0  0  0  0  0  0  0  0  0
   37.8359    8.7746   10.5827 N   0  0  0  0  0  0  0  0  0  0  0  0
   41.2303    7.8106    7.1692 O   0  0  0  0  0  0  0  0  0  0  0  0
   40.5030   10.1906    5.8040 O   0  0  0  0  0  0  0  0  0  0  0  0
  1  2  1  0  0  0  0
  1 12  1  6  0  0  0
  1 13  1  0  0  0  0
  2  3  1  0  0  0  0
  2 10  1  6  0  0  0
  4  3  1  6  0  0  0
  4  5  1  0  0  0  0
  4 14  1  0  0  0  0
  5  6  1  0  0  0  0
  5 13  1  1  0  0  0
  6  7  1  0  0  0  0
  6 15  1  1  0  0  0
  7  8  1  0  0  0  0
  7 11  1  1  0  0  0
  8 14  1  0  0  0  0
  8 16  1  6  0  0  0
  9 11  1  0  0  0  0
 17 16  1  6  0  0  0
 17 18  1  0  0  0  0
 17 24  1  0  0  0  0
 18 19  1  0  0  0  0
 18 25  1  6  0  0  0
 19 20  1  0  0  0  0
 19 26  1  1  0  0  0
 20 21  1  0  0  0  0
 20 23  1  6  0  0  0
 21 22  1  1  0  0  0
 21 24  1  0  0  0  0
 22 27  1  0  0  0  0
 28 12  1  6  0  0  0
 28 29  1  0  0  0  0
 28 33  1  0  0  0  0
 29 30  1  0  0  0  0
 29 36  1  1  0  0  0
 30 31  1  0  0  0  0
 30 37  1  6  0  0  0
 31 32  1  0  0  0  0
 31 34  1  1  0  0  0
 32 33  1  0  0  0  0
 33 35  1  1  0  0  0
M  END
>  <CHROM.1>
-73.44266855,80.54155716,-167.15544424,-164.03133536,64.06297314,173.20558804
40.79328780,3.31024910,9.45319207,1.89418254,0.46783005,-0.31375535

>  <Name>
1yrj_lig

>  <RI>
0

>  <Rbt.Current_Directory>
/home/itssahil/PROJECTS/Mol_Feturizer/New_Systems/rnas/1yrj

>  <Rbt.Executable>
rbdock ($Id: //depot/dev/client3/rdock/2013.1/src/exe/rbdock.cxx#4 $)

>  <Rbt.Library>
libRbt.so (2013.1, Build901 2013/11/27)

>  <Rbt.Parameter_File>
/export/apps/rDock/src/rDock_2013.1_src/data/scripts/dock_solv.prm

>  <Rbt.Receptor>
prm/pocket_docking_6.prm

>  <SCORE>
-28.7764

>  <SCORE.INTER>
-23.657

>  <SCORE.INTER.CONST>
1

>  <SCORE.INTER.POLAR>
-1.79534

>  <SCORE.INTER.ROT>
6

>  <SCORE.INTER.SOLV>
13.2849

>  <SCORE.INTER.VDW>
-21.8152

>  <SCORE.INTER.norm>
-0.639379

>  <SCORE.INTRA>
-5.11939

>  <SCORE.INTRA.DIHEDRAL>
-12.1227

>  <SCORE.INTRA.DIHEDRAL.0>
15.6389

>  <SCORE.INTRA.POLAR>
0

>  <SCORE.INTRA.POLAR.0>
0

>  <SCORE.INTRA.REPUL>
0

>  <SCORE.INTRA.REPUL.0>
0

>  <SCORE.INTRA.SOLV>
1.16142

>  <SCORE.INTRA.SOLV.lig_0>
-90.9181

>  <SCORE.INTRA.VDW>
0.361232

>  <SCORE.INTRA.VDW.0>
-3.14158

>  <SCORE.INTRA.norm>
-0.138362

>  <SCORE.RESTR>
0

>  <SCORE.RESTR.CAVITY>
0

>  <SCORE.RESTR.norm>
0

>  <SCORE.SYSTEM>
0

>  <SCORE.SYSTEM.CONST>
0

>  <SCORE.SYSTEM.DIHEDRAL>
0

>  <SCORE.SYSTEM.SOLV>
0

>  <SCORE.SYSTEM.norm>
0

>  <SCORE.heavy>
37

>  <SCORE.norm>
-0.777741

>  <RMSD>
1.780

$$$$
1yrj_lig
 OpenBabel11021811423D
libRbt.so/2013.1/901 2013/11/27
 37 40  0  0  0  0  0  0  0  0999 V2000
   39.0768    5.9643   10.2406 C   0  0  1  0  0  0  0  0  0  0  0  0
   40.3265    5.8738   11.1382 C   0  0  1  0  0  0  0  0  0  0  0  0
   41.3238    4.8230   10.6249 C   0  0  0  0  0  0  0  0  0  0  0  0
   40.6193    3.4492   10.4761 C   0  0  1  0  0  0  0  0  0  0  0  0
   39.4086    3.5766    9.5322 C   0  0  1  0  0  0  0  0  0  0  0  0
   38.7150    2.1568    9.3873 C   0  0  1  0  0  0  0  0  0  0  0  0
   39.7239    1.1426    8.8244 C   0  0  1  0  0  0  0  0  0  0  0  0
   40.9396    1.0890    9.7813 C   0  0  2  0  0  0  0  0  0  0  0  0
   39.2765   -0.8708    7.3236 C   0  0  0  0  0  0  0  0  0  0  0  0
   40.9926    7.1782   11.2861 N   0  0  0  0  0  0  0  0  0  0  0  0
   39.0638   -0.1865    8.6372 N   0  0  0  0  0  0  0  0  0  0  0  0
   39.3151    6.6257    8.9840 O   0  0  0  0  0  0  0  0  0  0  0  0
   38.5062    4.6135   10.0724 O   0  0  0  0  0  0  0  0  0  0  0  0
   41.5304    2.4091    9.9463 O   0  0  0  0  0  0  0  0  0  0  0  0
   38.3212    1.6945   10.6624 O   0  0  0  0  0  0  0  0  0  0  0  0
   41.9588    0.2125    9.2992 O   0  0  0  0  0  0  0  0  0  0  0  0
   42.9532   -0.1120   10.2990 C   0  0  2  0  0  0  0  0  0  0  0  0
   44.2315   -0.7295    9.7088 C   0  0  1  0  0  0  0  0  0  0  0  0
   43.9603   -2.1526    9.1524 C   0  0  2  0  0  0  0  0  0  0  0  0
   43.4015   -3.0345   10.2454 C   0  0  1  0  0  0  0  0  0  0  0  0
   42.1020   -2.4022   10.7977 C   0  0  1  0  0  0  0  0  0  0  0  0
   41.4929   -3.2061   11.9442 C   0  0  0  0  0  0  0  0  0  0  0  0
   43.1498   -4.3784    9.6851 N   0  0  0  0  0  0  0  0  0  0  0  0
   42.3879   -1.0464   11.3001 O   0  0  0  0  0  0  0  0  0  0  0  0
   44.7397    0.1586    8.7029 O   0  0  0  0  0  0  0  0  0  0  0  0
   45.1862   -2.7274    8.6792 O   0  0  0  0  0  0  0  0  0  0  0  0
   42.3955   -3.2459   13.0174 O   0  0  0  0  0  0  0  0  0  0  0  0
   39.5525    8.1218    8.8438 C   0  0  1  0  0  0  0  0  0  0  0  0
   39.8619    8.3961    7.3555 C   0  0  1  0  0  0  0  0  0  0  0  0
   40.0542    9.9095    7.0937 C   0  0  2  0  0  0  0  0  0  0  0  0
   38.7926   10.6769    7.5065 C   0  0  1  0  0  0  0  0  0  0  0  0
   38.4907   10.4402    9.0084 C   0  0  0  0  0  0  0  0  0  0  0  0
   38.2881    8.9394    9.2417 C   0  0  2  0  0  0  0  0  0  0  0  0
   38.9874   12.1239    7.2640 N   0  0  0  0  0  0  0  0  0  0  0  0
   37.9892    8.7600   10.6600 N   0  0  0  0  0  0  0  0  0  0  0  0
   41.0778    7.7066    6.9919 O   0  0  0  0  0  0  0  0  0  0  0  0
   40.3152   10.1097    5.6878 O   0  0  0  0  0  0  0  0  0  0  0  0
  1  2  1  0  0  0  0
  1 12  1  6  0  0  0
  1 13  1  0  0  0  0
  2  3  1  0  0  0  0
  2 10  1  6  0  0  0
  4  3  1  6  0  0  0
  4  5  1  0  0  0  0
  4 14  1  0  0  0  0
  5  6  1  0  0  0  0
  5 13  1  1  0  0  0
  6  7  1  0  0  0  0
  6 15  1  1  0  0  0
  7  8  1  0  0  0  0
  7 11  1  1  0  0  0
  8 14  1  0  0  0  0
  8 16  1  6  0  0  0
  9 11  1  0  0  0  0
 17 16  1  6  0  0  0
 17 18  1  0  0  0  0
 17 24  1  0  0  0  0
 18 19  1  0  0  0  0
 18 25  1  6  0  0  0
 19 20  1  0  0  0  0
 19 26  1  1  0  0  0
 20 21  1  0  0  0  0
 20 23  1  6  0  0  0
 21 22  1  1  0  0  0
 21 24  1  0  0  0  0
 22 27  1  0  0  0  0
 28 12  1  6  0  0  0
 28 29  1  0  0  0  0
 28 33  1  0  0  0  0
 29 30  1  0  0  0  0
 29 36  1  1  0  0  0
 30 31  1  0  0  0  0
 30 37  1  6  0  0  0
 31 32  1  0  0  0  0
 31 34  1  1  0  0  0
 32 33  1  0  0  0  0
 33 35  1  1  0  0  0
M  END
>  <CHROM.1>
-71.68303200,132.07983949,-166.04737500,-164.54910864,62.00610714,176.08109443
40.79716848,3.24463276,9.43894734,1.92034305,0.59897946,-0.36656194

>  <Name>
1yrj_lig

>  <RI>
0

>  <Rbt.Current_Directory>
/home/itssahil/PROJECTS/Mol_Feturizer/New_Systems/rnas/1yrj

>  <Rbt.Executable>
rbdock ($Id: //depot/dev/client3/rdock/2013.1/src/exe/rbdock.cxx#4 $)

>  <Rbt.Library>
libRbt.so (2013.1, Build901 2013/11/27)

>  <Rbt.Parameter_File>
/export/apps/rDock/src/rDock_2013.1_src/data/scripts/dock_solv.prm

>  <Rbt.Receptor>
prm/pocket_docking_3.prm

>  <SCORE>
-27.9098

>  <SCORE.INTER>
-22.724

>  <SCORE.INTER.CONST>
1

>  <SCORE.INTER.POLAR>
-1.81503

>  <SCORE.INTER.ROT>
6

>  <SCORE.INTER.SOLV>
13.1368

>  <SCORE.INTER.VDW>
-21.0782

>  <SCORE.INTER.norm>
-0.614162

>  <SCORE.INTRA>
-5.18584

>  <SCORE.INTRA.DIHEDRAL>
-11.6854

>  <SCORE.INTRA.DIHEDRAL.0>
15.6389

>  <SCORE.INTRA.POLAR>
0

>  <SCORE.INTRA.POLAR.0>
0

>  <SCORE.INTRA.REPUL>
0

>  <SCORE.INTRA.REPUL.0>
0

>  <SCORE.INTRA.SOLV>
1.433

>  <SCORE.INTRA.SOLV.lig_0>
-90.9181

>  <SCORE.INTRA.VDW>
-0.0596156

>  <SCORE.INTRA.VDW.0>
-3.14158

>  <SCORE.INTRA.norm>
-0.140158

>  <SCORE.RESTR>
0

>  <SCORE.RESTR.CAVITY>
0

>  <SCORE.RESTR.norm>
0

>  <SCORE.SYSTEM>
0

>  <SCORE.SYSTEM.CONST>
0

>  <SCORE.SYSTEM.DIHEDRAL>
0

>  <SCORE.SYSTEM.SOLV>
0

>  <SCORE.SYSTEM.norm>
0

>  <SCORE.heavy>
37

>  <SCORE.norm>
-0.754319

>  <RMSD>
1.786

$$$$
1yrj_lig
 OpenBabel11021811423D
libRbt.so/2013.1/901 2013/11/27
 37 40  0  0  0  0  0  0  0  0999 V2000
   39.1022    6.0030   10.2503 C   0  0  1  0  0  0  0  0  0  0  0  0
   40.3308    5.9015   11.1752 C   0  0  1  0  0  0  0  0  0  0  0  0
   41.3363    4.8514   10.6765 C   0  0  0  0  0  0  0  0  0  0  0  0
   40.6311    3.4812   10.5011 C   0  0  1  0  0  0  0  0  0  0  0  0
   39.4425    3.6197    9.5310 C   0  0  1  0  0  0  0  0  0  0  0  0
   38.7479    2.2034    9.3594 C   0  0  1  0  0  0  0  0  0  0  0  0
   39.7662    1.1903    8.8116 C   0  0  1  0  0  0  0  0  0  0  0  0
   40.9597    1.1253    9.7953 C   0  0  2  0  0  0  0  0  0  0  0  0
   39.6768   -1.0136    7.5305 C   0  0  0  0  0  0  0  0  0  0  0  0
   40.9975    7.2026   11.3484 N   0  0  0  0  0  0  0  0  0  0  0  0
   39.1064   -0.1351    8.5992 N   0  0  0  0  0  0  0  0  0  0  0  0
   39.3709    6.6733    9.0046 O   0  0  0  0  0  0  0  0  0  0  0  0
   38.5313    4.6554   10.0587 O   0  0  0  0  0  0  0  0  0  0  0  0
   41.5507    2.4422    9.9839 O   0  0  0  0  0  0  0  0  0  0  0  0
   38.3239    1.7325   10.6216 O   0  0  0  0  0  0  0  0  0  0  0  0
   41.9869    0.2492    9.3296 O   0  0  0  0  0  0  0  0  0  0  0  0
   42.9880   -0.0416   10.3330 C   0  0  2  0  0  0  0  0  0  0  0  0
   44.3131   -0.5501    9.7419 C   0  0  1  0  0  0  0  0  0  0  0  0
   44.1471   -1.9681    9.1336 C   0  0  2  0  0  0  0  0  0  0  0  0
   43.6356   -2.9234   10.1875 C   0  0  1  0  0  0  0  0  0  0  0  0
   42.2889   -2.4003   10.7408 C   0  0  1  0  0  0  0  0  0  0  0  0
   41.7214   -3.2830   11.8501 C   0  0  0  0  0  0  0  0  0  0  0  0
   43.4837   -4.2610    9.5783 N   0  0  0  0  0  0  0  0  0  0  0  0
   42.4750   -1.0465   11.2931 O   0  0  0  0  0  0  0  0  0  0  0  0
   44.7725    0.4049    8.7745 O   0  0  0  0  0  0  0  0  0  0  0  0
   45.4153   -2.4416    8.6600 O   0  0  0  0  0  0  0  0  0  0  0  0
   40.7008   -2.5921   12.5202 O   0  0  0  0  0  0  0  0  0  0  0  0
   39.5602    8.1771    8.8734 C   0  0  1  0  0  0  0  0  0  0  0  0
   40.0251    8.4527    7.4264 C   0  0  1  0  0  0  0  0  0  0  0  0
   40.1828    9.9710    7.1690 C   0  0  2  0  0  0  0  0  0  0  0  0
   38.8515   10.6868    7.4266 C   0  0  1  0  0  0  0  0  0  0  0  0
   38.3909   10.4490    8.8874 C   0  0  0  0  0  0  0  0  0  0  0  0
   38.2257    8.9428    9.1152 C   0  0  2  0  0  0  0  0  0  0  0  0
   39.0122   12.1388    7.1895 N   0  0  0  0  0  0  0  0  0  0  0  0
   37.7752    8.7619   10.4925 N   0  0  0  0  0  0  0  0  0  0  0  0
   41.3021    7.8132    7.2116 O   0  0  0  0  0  0  0  0  0  0  0  0
   40.5934   10.1712    5.7994 O   0  0  0  0  0  0  0  0  0  0  0  0
  1  2  1  0  0  0  0
  1 12  1  6  0  0  0
  1 13  1  0  0  0  0
  2  3  1  0  0  0  0
  2 10  1  6  0  0  0
  4  3  1  6  0  0  0
  4  5  1  0  0  0  0
  4 14  1  0  0  0  0
  5  6  1  0  0  0  0
  5 13  1  1  0  0  0
  6  7  1  0  0  0  0
  6 15  1  1  0  0  0
  7  8  1  0  0  0  0
  7 11  1  1  0  0  0
  8 14  1  0  0  0  0
  8 16  1  6  0  0  0
  9 11  1  0  0  0  0
 17 16  1  6  0  0  0
 17 18  1  0  0  0  0
 17 24  1  0  0  0  0
 18 19  1  0  0  0  0
 18 25  1  6  0  0  0
 19 20  1  0  0  0  0
 19 26  1  1  0  0  0
 20 21  1  0  0  0  0
 20 23  1  6  0  0  0
 21 22  1  1  0  0  0
 21 24  1  0  0  0  0
 22 27  1  0  0  0  0
 28 12  1  6  0  0  0
 28 29  1  0  0  0  0
 28 33  1  0  0  0  0
 29 30  1  0  0  0  0
 29 36  1  1  0  0  0
 30 31  1  0  0  0  0
 30 37  1  6  0  0  0
 31 32  1  0  0  0  0
 31 34  1  1  0  0  0
 32 33  1  0  0  0  0
 33 35  1  1  0  0  0
M  END
>  <CHROM.1>
-74.26811001,151.88888851,-168.48369880,-159.81088980,165.52832653,171.99695544
40.82541130,3.31738853,9.42788455,1.89870208,0.51211345,-0.32156956

>  <Name>
1yrj_lig

>  <RI>
0

>  <Rbt.Current_Directory>
/home/itssahil/PROJECTS/Mol_Feturizer/New_Systems/rnas/1yrj

>  <Rbt.Executable>
rbdock ($Id: //depot/dev/client3/rdock/2013.1/src/exe/rbdock.cxx#4 $)

>  <Rbt.Library>
libRbt.so (2013.1, Build901 2013/11/27)

>  <Rbt.Parameter_File>
/export/apps/rDock/src/rDock_2013.1_src/data/scripts/dock_solv.prm

>  <Rbt.Receptor>
prm/pocket_docking_6.prm

>  <SCORE>
-30.1406

>  <SCORE.INTER>
-25.2051

>  <SCORE.INTER.CONST>
1

>  <SCORE.INTER.POLAR>
-2.35697

>  <SCORE.INTER.ROT>
6

>  <SCORE.INTER.SOLV>
14.1268

>  <SCORE.INTER.VDW>
-21.2557

>  <SCORE.INTER.norm>
-0.681218

>  <SCORE.INTRA>
-4.9355

>  <SCORE.INTRA.DIHEDRAL>
-10.5614

>  <SCORE.INTRA.DIHEDRAL.0>
15.6389

>  <SCORE.INTRA.POLAR>
0

>  <SCORE.INTRA.POLAR.0>
0

>  <SCORE.INTRA.REPUL>
0

>  <SCORE.INTRA.REPUL.0>
0

>  <SCORE.INTRA.SOLV>
0.443466

>  <SCORE.INTRA.SOLV.lig_0>
-90.9181

>  <SCORE.INTRA.VDW>
0.123458

>  <SCORE.INTRA.VDW.0>
-3.14158

>  <SCORE.INTRA.norm>
-0.133392

>  <SCORE.RESTR>
0

>  <SCORE.RESTR.CAVITY>
0

>  <SCORE.RESTR.norm>
0

>  <SCORE.SYSTEM>
0

>  <SCORE.SYSTEM.CONST>
0

>  <SCORE.SYSTEM.DIHEDRAL>
0

>  <SCORE.SYSTEM.SOLV>
0

>  <SCORE.SYSTEM.norm>
0

>  <SCORE.heavy>
37

>  <SCORE.norm>
-0.81461

>  <RMSD>
1.789

$$$$
1yrj_lig
 OpenBabel11021811423D
libRbt.so/2013.1/901 2013/11/27
 37 40  0  0  0  0  0  0  0  0999 V2000
   39.0524    5.9974   10.2360 C   0  0  1  0  0  0  0  0  0  0  0  0
   40.3010    5.9068   11.1350 C   0  0  1  0  0  0  0  0  0  0  0  0
   41.2978    4.8542   10.6240 C   0  0  0  0  0  0  0  0  0  0  0  0
   40.5920    3.4810   10.4762 C   0  0  1  0  0  0  0  0  0  0  0  0
   39.3824    3.6084    9.5309 C   0  0  1  0  0  0  0  0  0  0  0  0
   38.6874    2.1892    9.3871 C   0  0  1  0  0  0  0  0  0  0  0  0
   39.6959    1.1733    8.8265 C   0  0  1  0  0  0  0  0  0  0  0  0
   40.9106    1.1196    9.7847 C   0  0  2  0  0  0  0  0  0  0  0  0
   38.8405   -0.6255    7.2330 C   0  0  0  0  0  0  0  0  0  0  0  0
   40.9683    7.2106   11.2820 N   0  0  0  0  0  0  0  0  0  0  0  0
   39.0346   -0.1554    8.6403 N   0  0  0  0  0  0  0  0  0  0  0  0
   39.2926    6.6569    8.9788 O   0  0  0  0  0  0  0  0  0  0  0  0
   38.4805    4.6469   10.0689 O   0  0  0  0  0  0  0  0  0  0  0  0
   41.5026    2.4393    9.9486 O   0  0  0  0  0  0  0  0  0  0  0  0
   38.2919    1.7289   10.6624 O   0  0  0  0  0  0  0  0  0  0  0  0
   41.9294    0.2414    9.3047 O   0  0  0  0  0  0  0  0  0  0  0  0
   42.9569   -0.0320   10.2861 C   0  0  2  0  0  0  0  0  0  0  0  0
   44.2670   -0.5478    9.6688 C   0  0  1  0  0  0  0  0  0  0  0  0
   44.0880   -1.9755    9.0874 C   0  0  2  0  0  0  0  0  0  0  0  0
   43.6060   -2.9147   10.1692 C   0  0  1  0  0  0  0  0  0  0  0  0
   42.2731   -2.3850   10.7491 C   0  0  1  0  0  0  0  0  0  0  0  0
   41.7363   -3.2510   11.8865 C   0  0  0  0  0  0  0  0  0  0  0  0
   43.4408   -4.2620    9.5852 N   0  0  0  0  0  0  0  0  0  0  0  0
   42.4709   -1.0224   11.2750 O   0  0  0  0  0  0  0  0  0  0  0  0
   44.6992    0.3926    8.6748 O   0  0  0  0  0  0  0  0  0  0  0  0
   45.3444   -2.4544    8.5885 O   0  0  0  0  0  0  0  0  0  0  0  0
   40.7303   -2.5522   12.5702 O   0  0  0  0  0  0  0  0  0  0  0  0
   39.5394    8.1515    8.8379 C   0  0  1  0  0  0  0  0  0  0  0  0
   39.8600    8.4216    7.3512 C   0  0  1  0  0  0  0  0  0  0  0  0
   40.0626    9.9336    7.0883 C   0  0  2  0  0  0  0  0  0  0  0  0
   38.8027   10.7087    7.4917 C   0  0  1  0  0  0  0  0  0  0  0  0
   38.4898   10.4761    8.9920 C   0  0  0  0  0  0  0  0  0  0  0  0
   38.2771    8.9768    9.2263 C   0  0  2  0  0  0  0  0  0  0  0  0
   39.0073   12.1542    7.2483 N   0  0  0  0  0  0  0  0  0  0  0  0
   37.9681    8.8014   10.6429 N   0  0  0  0  0  0  0  0  0  0  0  0
   41.0742    7.7247    6.9966 O   0  0  0  0  0  0  0  0  0  0  0  0
   40.3338   10.1300    5.6838 O   0  0  0  0  0  0  0  0  0  0  0  0
  1  2  1  0  0  0  0
  1 12  1  6  0  0  0
  1 13  1  0  0  0  0
  2  3  1  0  0  0  0
  2 10  1  6  0  0  0
  4  3  1  6  0  0  0
  4  5  1  0  0  0  0
  4 14  1  0  0  0  0
  5  6  1  0  0  0  0
  5 13  1  1  0  0  0
  6  7  1  0  0  0  0
  6 15  1  1  0  0  0
  7  8  1  0  0  0  0
  7 11  1  1  0  0  0
  8 14  1  0  0  0  0
  8 16  1  6  0  0  0
  9 11  1  0  0  0  0
 17 16  1  6  0  0  0
 17 18  1  0  0  0  0
 17 24  1  0  0  0  0
 18 19  1  0  0  0  0
 18 25  1  6  0  0  0
 19 20  1  0  0  0  0
 19 26  1  1  0  0  0
 20 21  1  0  0  0  0
 20 23  1  6  0  0  0
 21 22  1  1  0  0  0
 21 24  1  0  0  0  0
 22 27  1  0  0  0  0
 28 12  1  6  0  0  0
 28 29  1  0  0  0  0
 28 33  1  0  0  0  0
 29 30  1  0  0  0  0
 29 36  1  1  0  0  0
 30 31  1  0  0  0  0
 30 37  1  6  0  0  0
 31 32  1  0  0  0  0
 31 34  1  1  0  0  0
 32 33  1  0  0  0  0
 33 35  1  1  0  0  0
M  END
>  <CHROM.1>
-71.32631132,111.74947951,-168.82874303,-160.01268198,165.64977269,175.59577593
40.75705400,3.32587053,9.40547777,1.90163077,0.52268545,-0.32666704

>  <Name>
1yrj_lig

>  <RI>
0

>  <Rbt.Current_Directory>
/home/itssahil/PROJECTS/Mol_Feturizer/New_Systems/rnas/1yrj

>  <Rbt.Executable>
rbdock ($Id: //depot/dev/client3/rdock/2013.1/src/exe/rbdock.cxx#4 $)

>  <Rbt.Library>
libRbt.so (2013.1, Build901 2013/11/27)

>  <Rbt.Parameter_File>
/export/apps/rDock/src/rDock_2013.1_src/data/scripts/dock_solv.prm

>  <Rbt.Receptor>
prm/pocket_docking_3.prm

>  <SCORE>
-30.246

>  <SCORE.INTER>
-25.5746

>  <SCORE.INTER.CONST>
1

>  <SCORE.INTER.POLAR>
-2.34082

>  <SCORE.INTER.ROT>
6

>  <SCORE.INTER.SOLV>
13.947

>  <SCORE.INTER.VDW>
-21.496

>  <SCORE.INTER.norm>
-0.691205

>  <SCORE.INTRA>
-4.67145

>  <SCORE.INTRA.DIHEDRAL>
-10.5915

>  <SCORE.INTRA.DIHEDRAL.0>
15.6389

>  <SCORE.INTRA.POLAR>
0

>  <SCORE.INTRA.POLAR.0>
0

>  <SCORE.INTRA.REPUL>
0

>  <SCORE.INTRA.REPUL.0>
0

>  <SCORE.INTRA.SOLV>
0.755938

>  <SCORE.INTRA.SOLV.lig_0>
-90.9181

>  <SCORE.INTRA.VDW>
0.246339

>  <SCORE.INTRA.VDW.0>
-3.14158

>  <SCORE.INTRA.norm>
-0.126255

>  <SCORE.RESTR>
0

>  <SCORE.RESTR.CAVITY>
0

>  <SCORE.RESTR.norm>
0

>  <SCORE.SYSTEM>
0

>  <SCORE.SYSTEM.CONST>
0

>  <SCORE.SYSTEM.DIHEDRAL>
0

>  <SCORE.SYSTEM.SOLV>
0

>  <SCORE.SYSTEM.norm>
0

>  <SCORE.heavy>
37

>  <SCORE.norm>
-0.81746

>  <RMSD>
1.795

$$$$
1yrj_lig
 OpenBabel11021811423D
libRbt.so/2013.1/901 2013/11/27
 37 40  0  0  0  0  0  0  0  0999 V2000
   39.1090    5.9822   10.2787 C   0  0  1  0  0  0  0  0  0  0  0  0
   40.3658    5.8736   11.1643 C   0  0  1  0  0  0  0  0  0  0  0  0
   41.3454    4.8124   10.6384 C   0  0  0  0  0  0  0  0  0  0  0  0
   40.6229    3.4478   10.4918 C   0  0  1  0  0  0  0  0  0  0  0  0
   39.4051    3.5929    9.5598 C   0  0  1  0  0  0  0  0  0  0  0  0
   38.6928    2.1821    9.4169 C   0  0  1  0  0  0  0  0  0  0  0  0
   39.6841    1.1577    8.8413 C   0  0  1  0  0  0  0  0  0  0  0  0
   40.9079    1.0861    9.7866 C   0  0  2  0  0  0  0  0  0  0  0  0
   38.0068   -0.2627    7.5469 C   0  0  0  0  0  0  0  0  0  0  0  0
   41.0491    7.1694   11.3101 N   0  0  0  0  0  0  0  0  0  0  0  0
   39.0061   -0.1627    8.6562 N   0  0  0  0  0  0  0  0  0  0  0  0
   39.3435    6.6447    9.0221 O   0  0  0  0  0  0  0  0  0  0  0  0
   38.5204    4.6389   10.1117 O   0  0  0  0  0  0  0  0  0  0  0  0
   41.5163    2.3984    9.9502 O   0  0  0  0  0  0  0  0  0  0  0  0
   38.3055    1.7205   10.6942 O   0  0  0  0  0  0  0  0  0  0  0  0
   41.9119    0.1989    9.2922 O   0  0  0  0  0  0  0  0  0  0  0  0
   42.9441   -0.0937   10.2631 C   0  0  2  0  0  0  0  0  0  0  0  0
   44.2192   -0.6823    9.6377 C   0  0  1  0  0  0  0  0  0  0  0  0
   43.9679   -2.1154    9.0979 C   0  0  2  0  0  0  0  0  0  0  0  0
   43.4652   -3.0042   10.2125 C   0  0  1  0  0  0  0  0  0  0  0  0
   42.1673   -2.4016   10.8004 C   0  0  1  0  0  0  0  0  0  0  0  0
   41.6141   -3.2133   11.9696 C   0  0  0  0  0  0  0  0  0  0  0  0
   43.2312   -4.3576    9.6677 N   0  0  0  0  0  0  0  0  0  0  0  0
   42.4335   -1.0357   11.2862 O   0  0  0  0  0  0  0  0  0  0  0  0
   44.6739    0.2120    8.6118 O   0  0  0  0  0  0  0  0  0  0  0  0
   45.1932   -2.6619    8.5908 O   0  0  0  0  0  0  0  0  0  0  0  0
   41.2231   -4.4811   11.5138 O   0  0  0  0  0  0  0  0  0  0  0  0
   39.5893    8.1396    8.8835 C   0  0  1  0  0  0  0  0  0  0  0  0
   39.9118    8.4121    7.3976 C   0  0  1  0  0  0  0  0  0  0  0  0
   40.1135    9.9245    7.1371 C   0  0  2  0  0  0  0  0  0  0  0  0
   38.8523   10.6981    7.5397 C   0  0  1  0  0  0  0  0  0  0  0  0
   38.5374   10.4631    9.0392 C   0  0  0  0  0  0  0  0  0  0  0  0
   38.3256    8.9634    9.2712 C   0  0  2  0  0  0  0  0  0  0  0  0
   39.0560   12.1440    7.2984 N   0  0  0  0  0  0  0  0  0  0  0  0
   38.0147    8.7858   10.6870 N   0  0  0  0  0  0  0  0  0  0  0  0
   41.1272    7.7167    7.0439 O   0  0  0  0  0  0  0  0  0  0  0  0
   40.3866   10.1231    5.7333 O   0  0  0  0  0  0  0  0  0  0  0  0
  1  2  1  0  0  0  0
  1 12  1  6  0  0  0
  1 13  1  0  0  0  0
  2  3  1  0  0  0  0
  2 10  1  6  0  0  0
  4  3  1  6  0  0  0
  4  5  1  0  0  0  0
  4 14  1  0  0  0  0
  5  6  1  0  0  0  0
  5 13  1  1  0  0  0
  6  7  1  0  0  0  0
  6 15  1  1  0  0  0
  7  8  1  0  0  0  0
  7 11  1  1  0  0  0
  8 14  1  0  0  0  0
  8 16  1  6  0  0  0
  9 11  1  0  0  0  0
 17 16  1  6  0  0  0
 17 18  1  0  0  0  0
 17 24  1  0  0  0  0
 18 19  1  0  0  0  0
 18 25  1  6  0  0  0
 19 20  1  0  0  0  0
 19 26  1  1  0  0  0
 20 21  1  0  0  0  0
 20 23  1  6  0  0  0
 21 22  1  1  0  0  0
 21 24  1  0  0  0  0
 22 27  1  0  0  0  0
 28 12  1  6  0  0  0
 28 29  1  0  0  0  0
 28 33  1  0  0  0  0
 29 30  1  0  0  0  0
 29 36  1  1  0  0  0
 30 31  1  0  0  0  0
 30 37  1  6  0  0  0
 31 32  1  0  0  0  0
 31 34  1  1  0  0  0
 32 33  1  0  0  0  0
 33 35  1  1  0  0  0
M  END
>  <CHROM.1>
-72.07775321,71.64089808,-168.64379859,-162.68207089,-64.75672989,175.25549078
40.74531027,3.24017690,9.40784160,1.86539086,0.41136026,-0.26826680

>  <Name>
1yrj_lig

>  <RI>
0

>  <Rbt.Current_Directory>
/home/itssahil/PROJECTS/Mol_Feturizer/New_Systems/rnas/1yrj

>  <Rbt.Executable>
rbdock ($Id: //depot/dev/client3/rdock/2013.1/src/exe/rbdock.cxx#4 $)

>  <Rbt.Library>
libRbt.so (2013.1, Build901 2013/11/27)

>  <Rbt.Parameter_File>
/export/apps/rDock/src/rDock_2013.1_src/data/scripts/dock_solv.prm

>  <Rbt.Receptor>
prm/pocket_docking_5.prm

>  <SCORE>
-28.1502

>  <SCORE.INTER>
-23.4563

>  <SCORE.INTER.CONST>
1

>  <SCORE.INTER.POLAR>
-1.80785

>  <SCORE.INTER.ROT>
6

>  <SCORE.INTER.SOLV>
12.5983

>  <SCORE.INTER.VDW>
-21.4108

>  <SCORE.INTER.norm>
-0.633954

>  <SCORE.INTRA>
-4.69395

>  <SCORE.INTRA.DIHEDRAL>
-12.553

>  <SCORE.INTRA.DIHEDRAL.0>
15.6389

>  <SCORE.INTRA.POLAR>
0

>  <SCORE.INTRA.POLAR.0>
0

>  <SCORE.INTRA.REPUL>
0

>  <SCORE.INTRA.REPUL.0>
0

>  <SCORE.INTRA.SOLV>
1.74923

>  <SCORE.INTRA.SOLV.lig_0>
-90.9181

>  <SCORE.INTRA.VDW>
0.70795

>  <SCORE.INTRA.VDW.0>
-3.14158

>  <SCORE.INTRA.norm>
-0.126863

>  <SCORE.RESTR>
0

>  <SCORE.RESTR.CAVITY>
0

>  <SCORE.RESTR.norm>
0

>  <SCORE.SYSTEM>
0

>  <SCORE.SYSTEM.CONST>
0

>  <SCORE.SYSTEM.DIHEDRAL>
0

>  <SCORE.SYSTEM.SOLV>
0

>  <SCORE.SYSTEM.norm>
0

>  <SCORE.heavy>
37

>  <SCORE.norm>
-0.760817

>  <RMSD>
1.819

$$$$
1yrj_lig
 OpenBabel11021811423D
libRbt.so/2013.1/901 2013/11/27
 37 40  0  0  0  0  0  0  0  0999 V2000
   39.0663    5.9216   10.1944 C   0  0  1  0  0  0  0  0  0  0  0  0
   40.2815    5.8216   11.1371 C   0  0  1  0  0  0  0  0  0  0  0  0
   41.2917    4.7673   10.6572 C   0  0  0  0  0  0  0  0  0  0  0  0
   40.5862    3.3977   10.4777 C   0  0  1  0  0  0  0  0  0  0  0  0
   39.4117    3.5345    9.4903 C   0  0  1  0  0  0  0  0  0  0  0  0
   38.7166    2.1189    9.3149 C   0  0  1  0  0  0  0  0  0  0  0  0
   39.7404    1.1013    8.7860 C   0  0  1  0  0  0  0  0  0  0  0  0
   40.9197    1.0381    9.7868 C   0  0  2  0  0  0  0  0  0  0  0  0
   38.8478   -1.0712    9.7810 C   0  0  0  0  0  0  0  0  0  0  0  0
   40.9484    7.1220   11.3140 N   0  0  0  0  0  0  0  0  0  0  0  0
   39.0808   -0.2237    8.5699 N   0  0  0  0  0  0  0  0  0  0  0  0
   39.3541    6.5859    8.9497 O   0  0  0  0  0  0  0  0  0  0  0  0
   38.4953    4.5743   10.0006 O   0  0  0  0  0  0  0  0  0  0  0  0
   41.5108    2.3546    9.9781 O   0  0  0  0  0  0  0  0  0  0  0  0
   38.2738    1.6544   10.5730 O   0  0  0  0  0  0  0  0  0  0  0  0
   41.9515    0.1579    9.3395 O   0  0  0  0  0  0  0  0  0  0  0  0
   42.9428   -0.1232   10.3553 C   0  0  2  0  0  0  0  0  0  0  0  0
   44.2504   -0.6990    9.7876 C   0  0  1  0  0  0  0  0  0  0  0  0
   44.0381   -2.1350    9.2389 C   0  0  2  0  0  0  0  0  0  0  0  0
   43.4959   -3.0281   10.3313 C   0  0  1  0  0  0  0  0  0  0  0  0
   42.1671   -2.4386   10.8607 C   0  0  1  0  0  0  0  0  0  0  0  0
   41.5713   -3.2552   12.0053 C   0  0  0  0  0  0  0  0  0  0  0  0
   43.3002   -4.3844    9.7784 N   0  0  0  0  0  0  0  0  0  0  0  0
   42.3974   -1.0697   11.3561 O   0  0  0  0  0  0  0  0  0  0  0  0
   44.7406    0.1992    8.7816 O   0  0  0  0  0  0  0  0  0  0  0  0
   45.2901   -2.6691    8.7871 O   0  0  0  0  0  0  0  0  0  0  0  0
   41.2113   -4.5263   11.5336 O   0  0  0  0  0  0  0  0  0  0  0  0
   39.5680    8.0863    8.8180 C   0  0  1  0  0  0  0  0  0  0  0  0
   39.9883    8.3596    7.3570 C   0  0  1  0  0  0  0  0  0  0  0  0
   40.1666    9.8757    7.1003 C   0  0  2  0  0  0  0  0  0  0  0  0
   38.8591   10.6159    7.4063 C   0  0  1  0  0  0  0  0  0  0  0  0
   38.4443   10.3804    8.8811 C   0  0  0  0  0  0  0  0  0  0  0  0
   38.2577    8.8766    9.1085 C   0  0  2  0  0  0  0  0  0  0  0  0
   39.0398   12.0657    7.1695 N   0  0  0  0  0  0  0  0  0  0  0  0
   37.8513    8.6981   10.4998 N   0  0  0  0  0  0  0  0  0  0  0  0
   41.2445    7.6965    7.0960 O   0  0  0  0  0  0  0  0  0  0  0  0
   40.5339   10.0742    5.7182 O   0  0  0  0  0  0  0  0  0  0  0  0
  1  2  1  0  0  0  0
  1 12  1  6  0  0  0
  1 13  1  0  0  0  0
  2  3  1  0  0  0  0
  2 10  1  6  0  0  0
  4  3  1  6  0  0  0
  4  5  1  0  0  0  0
  4 14  1  0  0  0  0
  5  6  1  0  0  0  0
  5 13  1  1  0  0  0
  6  7  1  0  0  0  0
  6 15  1  1  0  0  0
  7  8  1  0  0  0  0
  7 11  1  1  0  0  0
  8 14  1  0  0  0  0
  8 16  1  6  0  0  0
  9 11  1  0  0  0  0
 17 16  1  6  0  0  0
 17 18  1  0  0  0  0
 17 24  1  0  0  0  0
 18 19  1  0  0  0  0
 18 25  1  6  0  0  0
 19 20  1  0  0  0  0
 19 26  1  1  0  0  0
 20 21  1  0  0  0  0
 20 23  1  6  0  0  0
 21 22  1  1  0  0  0
 21 24  1  0  0  0  0
 22 27  1  0  0  0  0
 28 12  1  6  0  0  0
 28 29  1  0  0  0  0
 28 33  1  0  0  0  0
 29 30  1  0  0  0  0
 29 36  1  1  0  0  0
 30 31  1  0  0  0  0
 30 37  1  6  0  0  0
 31 32  1  0  0  0  0
 31 34  1  1  0  0  0
 32 33  1  0  0  0  0
 33 35  1  1  0  0  0
M  END
>  <CHROM.1>
-73.36084737,-78.81074597,-168.89186728,-162.50806959,-64.88077844,174.38498344
40.77473617,3.17008978,9.46377264,1.86737341,0.43005209,-0.29483789

>  <Name>
1yrj_lig

>  <RI>
0

>  <Rbt.Current_Directory>
/home/itssahil/PROJECTS/Mol_Feturizer/New_Systems/rnas/1yrj

>  <Rbt.Executable>
rbdock ($Id: //depot/dev/client3/rdock/2013.1/src/exe/rbdock.cxx#4 $)

>  <Rbt.Library>
libRbt.so (2013.1, Build901 2013/11/27)

>  <Rbt.Parameter_File>
/export/apps/rDock/src/rDock_2013.1_src/data/scripts/dock_solv.prm

>  <Rbt.Receptor>
prm/pocket_docking_5.prm

>  <SCORE>
-26.5326

>  <SCORE.INTER>
-23.2301

>  <SCORE.INTER.CONST>
1

>  <SCORE.INTER.POLAR>
-1.83468

>  <SCORE.INTER.ROT>
6

>  <SCORE.INTER.SOLV>
12.8149

>  <SCORE.INTER.VDW>
-21.2427

>  <SCORE.INTER.norm>
-0.62784

>  <SCORE.INTRA>
-3.30249

>  <SCORE.INTRA.DIHEDRAL>
-12.1985

>  <SCORE.INTRA.DIHEDRAL.0>
15.6389

>  <SCORE.INTRA.POLAR>
0

>  <SCORE.INTRA.POLAR.0>
0

>  <SCORE.INTRA.REPUL>
0

>  <SCORE.INTRA.REPUL.0>
0

>  <SCORE.INTRA.SOLV>
1.90818

>  <SCORE.INTRA.SOLV.lig_0>
-90.9181

>  <SCORE.INTRA.VDW>
1.84265

>  <SCORE.INTRA.VDW.0>
-3.14158

>  <SCORE.INTRA.norm>
-0.0892565

>  <SCORE.RESTR>
0

>  <SCORE.RESTR.CAVITY>
0

>  <SCORE.RESTR.norm>
0

>  <SCORE.SYSTEM>
0

>  <SCORE.SYSTEM.CONST>
0

>  <SCORE.SYSTEM.DIHEDRAL>
0

>  <SCORE.SYSTEM.SOLV>
0

>  <SCORE.SYSTEM.norm>
0

>  <SCORE.heavy>
37

>  <SCORE.norm>
-0.717096

>  <RMSD>
1.830

$$$$
1yrj_lig
 OpenBabel11021811423D
libRbt.so/2013.1/901 2013/11/27
 37 40  0  0  0  0  0  0  0  0999 V2000
   39.0341    6.0283   10.2900 C   0  0  1  0  0  0  0  0  0  0  0  0
   40.2835    5.9338   11.1874 C   0  0  1  0  0  0  0  0  0  0  0  0
   41.2893    4.8984   10.6594 C   0  0  0  0  0  0  0  0  0  0  0  0
   40.5955    3.5217   10.4890 C   0  0  1  0  0  0  0  0  0  0  0  0
   39.3847    3.6542    9.5459 C   0  0  1  0  0  0  0  0  0  0  0  0
   38.7019    2.2315    9.3789 C   0  0  1  0  0  0  0  0  0  0  0  0
   39.7191    1.2337    8.8017 C   0  0  1  0  0  0  0  0  0  0  0  0
   40.9343    1.1748    9.7589 C   0  0  2  0  0  0  0  0  0  0  0  0
   38.8947   -0.9634    9.8016 C   0  0  0  0  0  0  0  0  0  0  0  0
   40.9396    7.2408   11.3558 N   0  0  0  0  0  0  0  0  0  0  0  0
   39.0693   -0.0974    8.5938 N   0  0  0  0  0  0  0  0  0  0  0  0
   39.2684    6.7104    9.0438 O   0  0  0  0  0  0  0  0  0  0  0  0
   38.4739    4.6759   10.1009 O   0  0  0  0  0  0  0  0  0  0  0  0
   41.5149    2.4967    9.9445 O   0  0  0  0  0  0  0  0  0  0  0  0
   38.3106    1.7469   10.6464 O   0  0  0  0  0  0  0  0  0  0  0  0
   41.9606    0.3134    9.2647 O   0  0  0  0  0  0  0  0  0  0  0  0
   42.9435   -0.0377   10.2668 C   0  0  2  0  0  0  0  0  0  0  0  0
   44.2316   -0.6324    9.6746 C   0  0  1  0  0  0  0  0  0  0  0  0
   43.9732   -2.0389    9.0718 C   0  0  2  0  0  0  0  0  0  0  0  0
   43.4040   -2.9556   10.1304 C   0  0  1  0  0  0  0  0  0  0  0  0
   42.0952   -2.3450   10.6849 C   0  0  1  0  0  0  0  0  0  0  0  0
   41.4748   -3.1855   11.7987 C   0  0  0  0  0  0  0  0  0  0  0  0
   43.1648   -4.2828    9.5264 N   0  0  0  0  0  0  0  0  0  0  0  0
   42.3693   -1.0041   11.2318 O   0  0  0  0  0  0  0  0  0  0  0  0
   44.7490    0.2877    8.7026 O   0  0  0  0  0  0  0  0  0  0  0  0
   45.2072   -2.5947    8.5971 O   0  0  0  0  0  0  0  0  0  0  0  0
   42.3397   -3.2085   12.9029 O   0  0  0  0  0  0  0  0  0  0  0  0
   39.4996    8.2095    8.9271 C   0  0  1  0  0  0  0  0  0  0  0  0
   39.8581    8.5013    7.4532 C   0  0  1  0  0  0  0  0  0  0  0  0
   40.0482   10.0187    7.2135 C   0  0  2  0  0  0  0  0  0  0  0  0
   38.7675   10.7729    7.5902 C   0  0  1  0  0  0  0  0  0  0  0  0
   38.4157   10.5186    9.0782 C   0  0  0  0  0  0  0  0  0  0  0  0
   38.2161    9.0141    9.2892 C   0  0  2  0  0  0  0  0  0  0  0  0
   38.9599   12.2237    7.3692 N   0  0  0  0  0  0  0  0  0  0  0  0
   37.8698    8.8180   10.6944 N   0  0  0  0  0  0  0  0  0  0  0  0
   41.0909    7.8242    7.1250 O   0  0  0  0  0  0  0  0  0  0  0  0
   40.3562   10.2353    5.8196 O   0  0  0  0  0  0  0  0  0  0  0  0
  1  2  1  0  0  0  0
  1 12  1  6  0  0  0
  1 13  1  0  0  0  0
  2  3  1  0  0  0  0
  2 10  1  6  0  0  0
  4  3  1  6  0  0  0
  4  5  1  0  0  0  0
  4 14  1  0  0  0  0
  5  6  1  0  0  0  0
  5 13  1  1  0  0  0
  6  7  1  0  0  0  0
  6 15  1  1  0  0  0
  7  8  1  0  0  0  0
  7 11  1  1  0  0  0
  8 14  1  0  0  0  0
  8 16  1  6  0  0  0
  9 11  1  0  0  0  0
 17 16  1  6  0  0  0
 17 18  1  0  0  0  0
 17 24  1  0  0  0  0
 18 19  1  0  0  0  0
 18 25  1  6  0  0  0
 19 20  1  0  0  0  0
 19 26  1  1  0  0  0
 20 21  1  0  0  0  0
 20 23  1  6  0  0  0
 21 22  1  1  0  0  0
 21 24  1  0  0  0  0
 22 27  1  0  0  0  0
 28 12  1  6  0  0  0
 28 29  1  0  0  0  0
 28 33  1  0  0  0  0
 29 30  1  0  0  0  0
 29 36  1  1  0  0  0
 30 31  1  0  0  0  0
 30 37  1  6  0  0  0
 31 32  1  0  0  0  0
 31 34  1  1  0  0  0
 32 33  1  0  0  0  0
 33 35  1  1  0  0  0
M  END
>  <CHROM.1>
-71.45364557,-78.99579744,-165.01442023,-164.35574915,64.44137713,174.01573285
40.76728519,3.32237538,9.51337135,1.90177629,0.52185413,-0.32778309

>  <Name>
1yrj_lig

>  <RI>
0

>  <Rbt.Current_Directory>
/home/itssahil/PROJECTS/Mol_Feturizer/New_Systems/rnas/1yrj

>  <Rbt.Executable>
rbdock ($Id: //depot/dev/client3/rdock/2013.1/src/exe/rbdock.cxx#4 $)

>  <Rbt.Library>
libRbt.so (2013.1, Build901 2013/11/27)

>  <Rbt.Parameter_File>
/export/apps/rDock/src/rDock_2013.1_src/data/scripts/dock_solv.prm

>  <Rbt.Receptor>
prm/pocket_docking_3.prm

>  <SCORE>
-26.8687

>  <SCORE.INTER>
-23.2409

>  <SCORE.INTER.CONST>
1

>  <SCORE.INTER.POLAR>
-1.78406

>  <SCORE.INTER.ROT>
6

>  <SCORE.INTER.SOLV>
13.1867

>  <SCORE.INTER.VDW>
-21.5427

>  <SCORE.INTER.norm>
-0.628134

>  <SCORE.INTRA>
-3.62779

>  <SCORE.INTRA.DIHEDRAL>
-12.2031

>  <SCORE.INTRA.DIHEDRAL.0>
15.6389

>  <SCORE.INTRA.POLAR>
0

>  <SCORE.INTRA.POLAR.0>
0

>  <SCORE.INTRA.REPUL>
0

>  <SCORE.INTRA.REPUL.0>
0

>  <SCORE.INTRA.SOLV>
1.63306

>  <SCORE.INTRA.SOLV.lig_0>
-90.9181

>  <SCORE.INTRA.VDW>
1.65722

>  <SCORE.INTRA.VDW.0>
-3.14158

>  <SCORE.INTRA.norm>
-0.0980484

>  <SCORE.RESTR>
0

>  <SCORE.RESTR.CAVITY>
0

>  <SCORE.RESTR.norm>
0

>  <SCORE.SYSTEM>
0

>  <SCORE.SYSTEM.CONST>
0

>  <SCORE.SYSTEM.DIHEDRAL>
0

>  <SCORE.SYSTEM.SOLV>
0

>  <SCORE.SYSTEM.norm>
0

>  <SCORE.heavy>
37

>  <SCORE.norm>
-0.726182

>  <RMSD>
1.859

$$$$
1yrj_lig
 OpenBabel11021811423D
libRbt.so/2013.1/901 2013/11/27
 37 40  0  0  0  0  0  0  0  0999 V2000
   39.3677    5.7458   10.4520 C   0  0  1  0  0  0  0  0  0  0  0  0
   40.6977    5.4946   11.1892 C   0  0  1  0  0  0  0  0  0  0  0  0
   41.5353    4.4048   10.5013 C   0  0  0  0  0  0  0  0  0  0  0  0
   40.7013    3.1052   10.3565 C   0  0  1  0  0  0  0  0  0  0  0  0
   39.4078    3.3931    9.5710 C   0  0  1  0  0  0  0  0  0  0  0  0
   38.5808    2.0465    9.4261 C   0  0  1  0  0  0  0  0  0  0  0  0
   39.4276    0.9957    8.6897 C   0  0  1  0  0  0  0  0  0  0  0  0
   40.7339    0.7798    9.4919 C   0  0  2  0  0  0  0  0  0  0  0  0
   38.8930   -1.0454    7.2562 C   0  0  0  0  0  0  0  0  0  0  0  0
   41.4876    6.7284   11.3337 N   0  0  0  0  0  0  0  0  0  0  0  0
   38.6370   -0.2605    8.5043 N   0  0  0  0  0  0  0  0  0  0  0  0
   39.5198    6.4701    9.2170 O   0  0  0  0  0  0  0  0  0  0  0  0
   38.6660    4.4596   10.2736 O   0  0  0  0  0  0  0  0  0  0  0  0
   41.4525    2.0341    9.6630 O   0  0  0  0  0  0  0  0  0  0  0  0
   38.2943    1.5313   10.7094 O   0  0  0  0  0  0  0  0  0  0  0  0
   41.6119   -0.1406    8.8425 O   0  0  0  0  0  0  0  0  0  0  0  0
   42.9152   -0.2233    9.4656 C   0  0  2  0  0  0  0  0  0  0  0  0
   44.0280    0.4438    8.6409 C   0  0  1  0  0  0  0  0  0  0  0  0
   44.3184   -0.3554    7.3427 C   0  0  2  0  0  0  0  0  0  0  0  0
   44.6948   -1.7781    7.6877 C   0  0  1  0  0  0  0  0  0  0  0  0
   43.5444   -2.4305    8.4905 C   0  0  1  0  0  0  0  0  0  0  0  0
   43.8613   -3.8599    8.9243 C   0  0  0  0  0  0  0  0  0  0  0  0
   44.9603   -2.5134    6.4339 N   0  0  0  0  0  0  0  0  0  0  0  0
   43.2799   -1.6390    9.7054 O   0  0  0  0  0  0  0  0  0  0  0  0
   43.6391    1.7980    8.3688 O   0  0  0  0  0  0  0  0  0  0  0  0
   45.4098    0.2509    6.6367 O   0  0  0  0  0  0  0  0  0  0  0  0
   42.7387   -4.4155    9.5560 O   0  0  0  0  0  0  0  0  0  0  0  0
   38.4660    6.5091    8.1204 C   0  0  1  0  0  0  0  0  0  0  0  0
   37.7622    7.8809    8.2141 C   0  0  1  0  0  0  0  0  0  0  0  0
   36.7103    8.0480    7.0908 C   0  0  2  0  0  0  0  0  0  0  0  0
   37.3817    7.9071    5.7195 C   0  0  1  0  0  0  0  0  0  0  0  0
   38.0614    6.5193    5.5975 C   0  0  0  0  0  0  0  0  0  0  0  0
   39.1087    6.3819    6.7075 C   0  0  2  0  0  0  0  0  0  0  0  0
   36.3689    8.0568    4.6508 N   0  0  0  0  0  0  0  0  0  0  0  0
   39.7369    5.0732    6.5479 N   0  0  0  0  0  0  0  0  0  0  0  0
   37.0942    7.9818    9.4907 O   0  0  0  0  0  0  0  0  0  0  0  0
   36.1035    9.3525    7.2111 O   0  0  0  0  0  0  0  0  0  0  0  0
  1  2  1  0  0  0  0
  1 12  1  6  0  0  0
  1 13  1  0  0  0  0
  2  3  1  0  0  0  0
  2 10  1  6  0  0  0
  4  3  1  6  0  0  0
  4  5  1  0  0  0  0
  4 14  1  0  0  0  0
  5  6  1  0  0  0  0
  5 13  1  1  0  0  0
  6  7  1  0  0  0  0
  6 15  1  1  0  0  0
  7  8  1  0  0  0  0
  7 11  1  1  0  0  0
  8 14  1  0  0  0  0
  8 16  1  6  0  0  0
  9 11  1  0  0  0  0
 17 16  1  6  0  0  0
 17 18  1  0  0  0  0
 17 24  1  0  0  0  0
 18 19  1  0  0  0  0
 18 25  1  6  0  0  0
 19 20  1  0  0  0  0
 19 26  1  1  0  0  0
 20 21  1  0  0  0  0
 20 23  1  6  0  0  0
 21 22  1  1  0  0  0
 21 24  1  0  0  0  0
 22 27  1  0  0  0  0
 28 12  1  1  0  0  0
 28 29  1  0  0  0  0
 28 33  1  0  0  0  0
 29 30  1  0  0  0  0
 29 36  1  1  0  0  0
 30 31  1  0  0  0  0
 30 37  1  6  0  0  0
 31 32  1  0  0  0  0
 31 34  1  6  0  0  0
 32 33  1  0  0  0  0
 33 35  1  1  0  0  0
M  END
>  <CHROM.1>
161.97486158,146.33720610,171.87415404,-107.44396284,-175.62584206,103.28062941
40.52556307,2.79881905,8.55914431,3.13196859,1.01885637,-1.63433491

>  <Name>
1yrj_lig

>  <RI>
0

>  <Rbt.Current_Directory>
/home/itssahil/PROJECTS/Mol_Feturizer/New_Systems/rnas/1yrj

>  <Rbt.Executable>
rbdock ($Id: //depot/dev/client3/rdock/2013.1/src/exe/rbdock.cxx#4 $)

>  <Rbt.Library>
libRbt.so (2013.1, Build901 2013/11/27)

>  <Rbt.Parameter_File>
/export/apps/rDock/src/rDock_2013.1_src/data/scripts/dock_solv.prm

>  <Rbt.Receptor>
prm/pocket_docking_3.prm

>  <SCORE>
-21.5507

>  <SCORE.INTER>
-20.9779

>  <SCORE.INTER.CONST>
1

>  <SCORE.INTER.POLAR>
-1.64234

>  <SCORE.INTER.ROT>
6

>  <SCORE.INTER.SOLV>
25.1461

>  <SCORE.INTER.VDW>
-24.4929

>  <SCORE.INTER.norm>
-0.566971

>  <SCORE.INTRA>
-0.572767

>  <SCORE.INTRA.DIHEDRAL>
-0.649488

>  <SCORE.INTRA.DIHEDRAL.0>
15.6389

>  <SCORE.INTRA.POLAR>
0

>  <SCORE.INTRA.POLAR.0>
0

>  <SCORE.INTRA.REPUL>
0

>  <SCORE.INTRA.REPUL.0>
0

>  <SCORE.INTRA.SOLV>
-1.03543

>  <SCORE.INTRA.SOLV.lig_0>
-90.9181

>  <SCORE.INTRA.VDW>
0.269691

>  <SCORE.INTRA.VDW.0>
-3.14158

>  <SCORE.INTRA.norm>
-0.0154802

>  <SCORE.RESTR>
0

>  <SCORE.RESTR.CAVITY>
0

>  <SCORE.RESTR.norm>
0

>  <SCORE.SYSTEM>
0

>  <SCORE.SYSTEM.CONST>
0

>  <SCORE.SYSTEM.DIHEDRAL>
0

>  <SCORE.SYSTEM.SOLV>
0

>  <SCORE.SYSTEM.norm>
0

>  <SCORE.heavy>
37

>  <SCORE.norm>
-0.582451

>  <RMSD>
1.883

$$$$
1yrj_lig
 OpenBabel11021811423D
libRbt.so/2013.1/901 2013/11/27
 37 40  0  0  0  0  0  0  0  0999 V2000
   39.0240    6.0801   10.3195 C   0  0  1  0  0  0  0  0  0  0  0  0
   40.3040    6.0016   11.1745 C   0  0  1  0  0  0  0  0  0  0  0  0
   41.3049    4.9795   10.6122 C   0  0  0  0  0  0  0  0  0  0  0  0
   40.6237    3.5940   10.4644 C   0  0  1  0  0  0  0  0  0  0  0  0
   39.3803    3.7108    9.5625 C   0  0  1  0  0  0  0  0  0  0  0  0
   38.7109    2.2794    9.4175 C   0  0  1  0  0  0  0  0  0  0  0  0
   39.7210    1.2951    8.8059 C   0  0  1  0  0  0  0  0  0  0  0  0
   40.9683    1.2518    9.7217 C   0  0  2  0  0  0  0  0  0  0  0  0
   38.1485   -0.1949    7.4591 C   0  0  0  0  0  0  0  0  0  0  0  0
   40.9483    7.3170   11.3216 N   0  0  0  0  0  0  0  0  0  0  0  0
   39.0819   -0.0443    8.6190 N   0  0  0  0  0  0  0  0  0  0  0  0
   39.2076    6.7654    9.0666 O   0  0  0  0  0  0  0  0  0  0  0  0
   38.4755    4.7205   10.1484 O   0  0  0  0  0  0  0  0  0  0  0  0
   41.5375    2.5811    9.8886 O   0  0  0  0  0  0  0  0  0  0  0  0
   38.3686    1.7896   10.6971 O   0  0  0  0  0  0  0  0  0  0  0  0
   41.9885    0.4039    9.1927 O   0  0  0  0  0  0  0  0  0  0  0  0
   43.2261    0.4649    9.9398 C   0  0  2  0  0  0  0  0  0  0  0  0
   44.4248   -0.1290    9.1822 C   0  0  1  0  0  0  0  0  0  0  0  0
   44.2912   -1.6687    9.0416 C   0  0  2  0  0  0  0  0  0  0  0  0
   44.1623   -2.3008   10.4086 C   0  0  1  0  0  0  0  0  0  0  0  0
   42.9320   -1.7050   11.1330 C   0  0  1  0  0  0  0  0  0  0  0  0
   42.7534   -2.2544   12.5465 C   0  0  0  0  0  0  0  0  0  0  0  0
   44.0323   -3.7632   10.2420 N   0  0  0  0  0  0  0  0  0  0  0  0
   43.0794   -0.2419   11.2336 O   0  0  0  0  0  0  0  0  0  0  0  0
   44.5241    0.5255    7.9090 O   0  0  0  0  0  0  0  0  0  0  0  0
   45.4588   -2.1977    8.3984 O   0  0  0  0  0  0  0  0  0  0  0  0
   42.4712   -3.6270   12.4815 O   0  0  0  0  0  0  0  0  0  0  0  0
   39.4649    8.2600    8.9464 C   0  0  1  0  0  0  0  0  0  0  0  0
   39.8118    8.5447    7.4684 C   0  0  1  0  0  0  0  0  0  0  0  0
   40.0270   10.0583    7.2257 C   0  0  2  0  0  0  0  0  0  0  0  0
   38.7648   10.8360    7.6166 C   0  0  1  0  0  0  0  0  0  0  0  0
   38.4255   10.5887    9.1087 C   0  0  0  0  0  0  0  0  0  0  0  0
   38.2007    9.0881    9.3228 C   0  0  2  0  0  0  0  0  0  0  0  0
   38.9813   12.2829    7.3926 N   0  0  0  0  0  0  0  0  0  0  0  0
   37.8670    8.8989   10.7320 N   0  0  0  0  0  0  0  0  0  0  0  0
   41.0280    7.8449    7.1264 O   0  0  0  0  0  0  0  0  0  0  0  0
   40.3229   10.2686    5.8282 O   0  0  0  0  0  0  0  0  0  0  0  0
  1  2  1  0  0  0  0
  1 12  1  6  0  0  0
  1 13  1  0  0  0  0
  2  3  1  0  0  0  0
  2 10  1  6  0  0  0
  4  3  1  6  0  0  0
  4  5  1  0  0  0  0
  4 14  1  0  0  0  0
  5  6  1  0  0  0  0
  5 13  1  1  0  0  0
  6  7  1  0  0  0  0
  6 15  1  1  0  0  0
  7  8  1  0  0  0  0
  7 11  1  1  0  0  0
  8 14  1  0  0  0  0
  8 16  1  6  0  0  0
  9 11  1  0  0  0  0
 17 16  1  6  0  0  0
 17 18  1  0  0  0  0
 17 24  1  0  0  0  0
 18 19  1  0  0  0  0
 18 25  1  6  0  0  0
 19 20  1  0  0  0  0
 19 26  1  1  0  0  0
 20 21  1  0  0  0  0
 20 23  1  6  0  0  0
 21 22  1  1  0  0  0
 21 24  1  0  0  0  0
 22 27  1  0  0  0  0
 28 12  1  6  0  0  0
 28 29  1  0  0  0  0
 28 33  1  0  0  0  0
 29 30  1  0  0  0  0
 29 36  1  1  0  0  0
 30 31  1  0  0  0  0
 30 37  1  6  0  0  0
 31 32  1  0  0  0  0
 31 34  1  1  0  0  0
 32 33  1  0  0  0  0
 33 35  1  1  0  0  0
M  END
>  <CHROM.1>
-69.16816627,76.72820607,173.05888122,-164.38786655,-64.97822072,171.62626154
40.88834573,3.51940792,9.44322908,1.94732292,0.47277576,-0.33682087

>  <Name>
1yrj_lig

>  <RI>
0

>  <Rbt.Current_Directory>
/home/itssahil/PROJECTS/Mol_Feturizer/New_Systems/rnas/1yrj

>  <Rbt.Executable>
rbdock ($Id: //depot/dev/client3/rdock/2013.1/src/exe/rbdock.cxx#4 $)

>  <Rbt.Library>
libRbt.so (2013.1, Build901 2013/11/27)

>  <Rbt.Parameter_File>
/export/apps/rDock/src/rDock_2013.1_src/data/scripts/dock_solv.prm

>  <Rbt.Receptor>
prm/pocket_docking_8.prm

>  <SCORE>
-24.576

>  <SCORE.INTER>
-19.9157

>  <SCORE.INTER.CONST>
1

>  <SCORE.INTER.POLAR>
-0.959166

>  <SCORE.INTER.ROT>
6

>  <SCORE.INTER.SOLV>
12.8517

>  <SCORE.INTER.VDW>
-21.9638

>  <SCORE.INTER.norm>
-0.538263

>  <SCORE.INTRA>
-4.6603

>  <SCORE.INTRA.DIHEDRAL>
-13.1158

>  <SCORE.INTRA.DIHEDRAL.0>
15.6389

>  <SCORE.INTRA.POLAR>
0

>  <SCORE.INTRA.POLAR.0>
0

>  <SCORE.INTRA.REPUL>
0

>  <SCORE.INTRA.REPUL.0>
0

>  <SCORE.INTRA.SOLV>
1.7228

>  <SCORE.INTRA.SOLV.lig_0>
-90.9181

>  <SCORE.INTRA.VDW>
1.03618

>  <SCORE.INTRA.VDW.0>
-3.14158

>  <SCORE.INTRA.norm>
-0.125954

>  <SCORE.RESTR>
0

>  <SCORE.RESTR.CAVITY>
0

>  <SCORE.RESTR.norm>
0

>  <SCORE.SYSTEM>
0

>  <SCORE.SYSTEM.CONST>
0

>  <SCORE.SYSTEM.DIHEDRAL>
0

>  <SCORE.SYSTEM.SOLV>
0

>  <SCORE.SYSTEM.norm>
0

>  <SCORE.heavy>
37

>  <SCORE.norm>
-0.664217

>  <RMSD>
1.929

$$$$
1yrj_lig
 OpenBabel11021811423D
libRbt.so/2013.1/901 2013/11/27
 37 40  0  0  0  0  0  0  0  0999 V2000
   39.0579    6.0525   10.4442 C   0  0  1  0  0  0  0  0  0  0  0  0
   40.3984    5.9475   11.1975 C   0  0  1  0  0  0  0  0  0  0  0  0
   41.3513    4.9427   10.5308 C   0  0  0  0  0  0  0  0  0  0  0  0
   40.6572    3.5625   10.3927 C   0  0  1  0  0  0  0  0  0  0  0  0
   39.3497    3.7073    9.5911 C   0  0  1  0  0  0  0  0  0  0  0  0
   38.6675    2.2812    9.4536 C   0  0  1  0  0  0  0  0  0  0  0  0
   39.6260    1.3155    8.7380 C   0  0  1  0  0  0  0  0  0  0  0  0
   40.9386    1.2439    9.5556 C   0  0  2  0  0  0  0  0  0  0  0  0
   37.9899   -0.1462    7.4368 C   0  0  0  0  0  0  0  0  0  0  0  0
   41.0555    7.2576   11.3355 N   0  0  0  0  0  0  0  0  0  0  0  0
   38.9711   -0.0173    8.5593 N   0  0  0  0  0  0  0  0  0  0  0  0
   39.1484    6.7756    9.2024 O   0  0  0  0  0  0  0  0  0  0  0  0
   38.4943    4.6990   10.2737 O   0  0  0  0  0  0  0  0  0  0  0  0
   41.5224    2.5673    9.7193 O   0  0  0  0  0  0  0  0  0  0  0  0
   38.4212    1.7528   10.7399 O   0  0  0  0  0  0  0  0  0  0  0  0
   41.9138    0.4121    8.9258 O   0  0  0  0  0  0  0  0  0  0  0  0
   43.1671    0.3548    9.6468 C   0  0  2  0  0  0  0  0  0  0  0  0
   44.3422   -0.1390    8.7872 C   0  0  1  0  0  0  0  0  0  0  0  0
   44.1854   -1.6422    8.4350 C   0  0  2  0  0  0  0  0  0  0  0  0
   44.0759   -2.4588    9.7023 C   0  0  1  0  0  0  0  0  0  0  0  0
   42.8685   -1.9581   10.5299 C   0  0  1  0  0  0  0  0  0  0  0  0
   42.7113   -2.6988   11.8560 C   0  0  0  0  0  0  0  0  0  0  0  0
   43.9233   -3.8818    9.3350 N   0  0  0  0  0  0  0  0  0  0  0  0
   43.0373   -0.5252   10.8315 O   0  0  0  0  0  0  0  0  0  0  0  0
   44.4243    0.6869    7.6166 O   0  0  0  0  0  0  0  0  0  0  0  0
   45.3327   -2.0875    7.6985 O   0  0  0  0  0  0  0  0  0  0  0  0
   41.5795   -2.2155   12.5292 O   0  0  0  0  0  0  0  0  0  0  0  0
   39.4368    8.2663    9.1073 C   0  0  1  0  0  0  0  0  0  0  0  0
   39.7455    8.5765    7.6259 C   0  0  1  0  0  0  0  0  0  0  0  0
   39.9886   10.0900    7.4100 C   0  0  2  0  0  0  0  0  0  0  0  0
   38.7573   10.8871    7.8565 C   0  0  1  0  0  0  0  0  0  0  0  0
   38.4575   10.6137    9.3526 C   0  0  0  0  0  0  0  0  0  0  0  0
   38.2043    9.1142    9.5404 C   0  0  2  0  0  0  0  0  0  0  0  0
   39.0007   12.3334    7.6579 N   0  0  0  0  0  0  0  0  0  0  0  0
   37.9090    8.9006   10.9547 N   0  0  0  0  0  0  0  0  0  0  0  0
   40.9342    7.8572    7.2314 O   0  0  0  0  0  0  0  0  0  0  0  0
   40.2470   10.3252    6.0091 O   0  0  0  0  0  0  0  0  0  0  0  0
  1  2  1  0  0  0  0
  1 12  1  6  0  0  0
  1 13  1  0  0  0  0
  2  3  1  0  0  0  0
  2 10  1  6  0  0  0
  4  3  1  6  0  0  0
  4  5  1  0  0  0  0
  4 14  1  0  0  0  0
  5  6  1  0  0  0  0
  5 13  1  1  0  0  0
  6  7  1  0  0  0  0
  6 15  1  1  0  0  0
  7  8  1  0  0  0  0
  7 11  1  1  0  0  0
  8 14  1  0  0  0  0
  8 16  1  6  0  0  0
  9 11  1  0  0  0  0
 17 16  1  6  0  0  0
 17 18  1  0  0  0  0
 17 24  1  0  0  0  0
 18 19  1  0  0  0  0
 18 25  1  6  0  0  0
 19 20  1  0  0  0  0
 19 26  1  1  0  0  0
 20 21  1  0  0  0  0
 20 23  1  6  0  0  0
 21 22  1  1  0  0  0
 21 24  1  0  0  0  0
 22 27  1  0  0  0  0
 28 12  1  6  0  0  0
 28 29  1  0  0  0  0
 28 33  1  0  0  0  0
 29 30  1  0  0  0  0
 29 36  1  1  0  0  0
 30 31  1  0  0  0  0
 30 37  1  6  0  0  0
 31 32  1  0  0  0  0
 31 34  1  1  0  0  0
 32 33  1  0  0  0  0
 33 35  1  1  0  0  0
M  END
>  <CHROM.1>
-67.46566757,78.92932095,178.33992980,-161.32435755,-178.42343617,168.15601786
40.82630623,3.53772822,9.33654154,1.96026575,0.56924977,-0.31323802

>  <Name>
1yrj_lig

>  <RI>
0

>  <Rbt.Current_Directory>
/home/itssahil/PROJECTS/Mol_Feturizer/New_Systems/rnas/1yrj

>  <Rbt.Executable>
rbdock ($Id: //depot/dev/client3/rdock/2013.1/src/exe/rbdock.cxx#4 $)

>  <Rbt.Library>
libRbt.so (2013.1, Build901 2013/11/27)

>  <Rbt.Parameter_File>
/export/apps/rDock/src/rDock_2013.1_src/data/scripts/dock_solv.prm

>  <Rbt.Receptor>
prm/pocket_docking_8.prm

>  <SCORE>
-29.3557

>  <SCORE.INTER>
-23.9826

>  <SCORE.INTER.CONST>
1

>  <SCORE.INTER.POLAR>
-1.85359

>  <SCORE.INTER.ROT>
6

>  <SCORE.INTER.SOLV>
13.2605

>  <SCORE.INTER.VDW>
-21.8299

>  <SCORE.INTER.norm>
-0.648177

>  <SCORE.INTRA>
-5.37314

>  <SCORE.INTRA.DIHEDRAL>
-12.7134

>  <SCORE.INTRA.DIHEDRAL.0>
15.6389

>  <SCORE.INTRA.POLAR>
0

>  <SCORE.INTRA.POLAR.0>
0

>  <SCORE.INTRA.REPUL>
0

>  <SCORE.INTRA.REPUL.0>
0

>  <SCORE.INTRA.SOLV>
0.637348

>  <SCORE.INTRA.SOLV.lig_0>
-90.9181

>  <SCORE.INTRA.VDW>
0.664863

>  <SCORE.INTRA.VDW.0>
-3.14158

>  <SCORE.INTRA.norm>
-0.14522

>  <SCORE.RESTR>
0

>  <SCORE.RESTR.CAVITY>
0

>  <SCORE.RESTR.norm>
0

>  <SCORE.SYSTEM>
0

>  <SCORE.SYSTEM.CONST>
0

>  <SCORE.SYSTEM.DIHEDRAL>
0

>  <SCORE.SYSTEM.SOLV>
0

>  <SCORE.SYSTEM.norm>
0

>  <SCORE.heavy>
37

>  <SCORE.norm>
-0.793397

>  <RMSD>
1.978

$$$$
1yrj_lig
 OpenBabel11021811423D
libRbt.so/2013.1/901 2013/11/27
 37 40  0  0  0  0  0  0  0  0999 V2000
   38.1614    4.8776    8.5452 C   0  0  1  0  0  0  0  0  0  0  0  0
   39.4104    5.3294    9.3269 C   0  0  1  0  0  0  0  0  0  0  0  0
   40.5946    4.3728    9.1143 C   0  0  0  0  0  0  0  0  0  0  0  0
   40.1792    2.9233    9.4778 C   0  0  1  0  0  0  0  0  0  0  0  0
   38.9605    2.4972    8.6374 C   0  0  1  0  0  0  0  0  0  0  0  0
   38.5649    1.0086    9.0189 C   0  0  1  0  0  0  0  0  0  0  0  0
   39.7527    0.0713    8.7466 C   0  0  1  0  0  0  0  0  0  0  0  0
   40.9616    0.5708    9.5746 C   0  0  2  0  0  0  0  0  0  0  0  0
   38.5911   -2.0778    8.0128 C   0  0  0  0  0  0  0  0  0  0  0  0
   39.8022    6.7074    8.9883 N   0  0  0  0  0  0  0  0  0  0  0  0
   39.3714   -1.3416    9.0560 N   0  0  0  0  0  0  0  0  0  0  0  0
   38.2525    5.1095    7.1270 O   0  0  0  0  0  0  0  0  0  0  0  0
   37.8723    3.4677    8.8729 O   0  0  0  0  0  0  0  0  0  0  0  0
   41.2765    1.9550    9.2525 O   0  0  0  0  0  0  0  0  0  0  0  0
   38.2817    0.9377   10.4007 O   0  0  0  0  0  0  0  0  0  0  0  0
   42.1324   -0.2104    9.3325 O   0  0  0  0  0  0  0  0  0  0  0  0
   43.0719   -0.1876   10.4327 C   0  0  2  0  0  0  0  0  0  0  0  0
   44.4898   -0.6263   10.0319 C   0  0  1  0  0  0  0  0  0  0  0  0
   44.5332   -2.1406    9.6952 C   0  0  2  0  0  0  0  0  0  0  0  0
   44.0440   -2.9448   10.8779 C   0  0  1  0  0  0  0  0  0  0  0  0
   42.6061   -2.5014   11.2375 C   0  0  1  0  0  0  0  0  0  0  0  0
   42.0486   -3.2318   12.4572 C   0  0  0  0  0  0  0  0  0  0  0  0
   44.0924   -4.3790   10.5258 N   0  0  0  0  0  0  0  0  0  0  0  0
   42.5944   -1.0574   11.5328 O   0  0  0  0  0  0  0  0  0  0  0  0
   44.9203    0.1869    8.9308 O   0  0  0  0  0  0  0  0  0  0  0  0
   45.8812   -2.5308    9.3994 O   0  0  0  0  0  0  0  0  0  0  0  0
   40.8993   -2.5691   12.9130 O   0  0  0  0  0  0  0  0  0  0  0  0
   38.3308    6.4916    6.4963 C   0  0  1  0  0  0  0  0  0  0  0  0
   38.5365    6.2884    4.9789 C   0  0  1  0  0  0  0  0  0  0  0  0
   38.5621    7.6437    4.2313 C   0  0  2  0  0  0  0  0  0  0  0  0
   37.2517    8.4014    4.4756 C   0  0  1  0  0  0  0  0  0  0  0  0
   37.0504    8.6450    5.9931 C   0  0  0  0  0  0  0  0  0  0  0  0
   37.0117    7.2916    6.7106 C   0  0  2  0  0  0  0  0  0  0  0  0
   37.2875    9.7004    3.7673 N   0  0  0  0  0  0  0  0  0  0  0  0
   36.8034    7.5621    8.1305 N   0  0  0  0  0  0  0  0  0  0  0  0
   39.7960    5.6165    4.7597 O   0  0  0  0  0  0  0  0  0  0  0  0
   38.7314    7.3937    2.8193 O   0  0  0  0  0  0  0  0  0  0  0  0
  1  2  1  0  0  0  0
  1 12  1  6  0  0  0
  1 13  1  0  0  0  0
  2  3  1  0  0  0  0
  2 10  1  6  0  0  0
  4  3  1  6  0  0  0
  4  5  1  0  0  0  0
  4 14  1  0  0  0  0
  5  6  1  0  0  0  0
  5 13  1  1  0  0  0
  6  7  1  0  0  0  0
  6 15  1  1  0  0  0
  7  8  1  0  0  0  0
  7 11  1  1  0  0  0
  8 14  1  0  0  0  0
  8 16  1  6  0  0  0
  9 11  1  0  0  0  0
 17 16  1  6  0  0  0
 17 18  1  0  0  0  0
 17 24  1  0  0  0  0
 18 19  1  0  0  0  0
 18 25  1  6  0  0  0
 19 20  1  0  0  0  0
 19 26  1  1  0  0  0
 20 21  1  0  0  0  0
 20 23  1  6  0  0  0
 21 22  1  1  0  0  0
 21 24  1  0  0  0  0
 22 27  1  0  0  0  0
 28 12  1  1  0  0  0
 28 29  1  0  0  0  0
 28 33  1  0  0  0  0
 29 30  1  0  0  0  0
 29 36  1  1  0  0  0
 30 31  1  0  0  0  0
 30 37  1  6  0  0  0
 31 32  1  0  0  0  0
 31 34  1  6  0  0  0
 32 33  1  0  0  0  0
 33 35  1  1  0  0  0
M  END
>  <CHROM.1>
-64.98337663,80.74476465,-154.83859150,-161.49445256,165.99097491,175.28786525
40.31528469,2.36468785,8.49337871,2.04828075,0.38560654,-0.67301166

>  <Name>
1yrj_lig

>  <RI>
0

>  <Rbt.Current_Directory>
/home/itssahil/PROJECTS/Mol_Feturizer/New_Systems/rnas/1yrj

>  <Rbt.Executable>
rbdock ($Id: //depot/dev/client3/rdock/2013.1/src/exe/rbdock.cxx#4 $)

>  <Rbt.Library>
libRbt.so (2013.1, Build901 2013/11/27)

>  <Rbt.Parameter_File>
/export/apps/rDock/src/rDock_2013.1_src/data/scripts/dock_solv.prm

>  <Rbt.Receptor>
prm/pocket_docking_7.prm

>  <SCORE>
-28.8717

>  <SCORE.INTER>
-24.8772

>  <SCORE.INTER.CONST>
1

>  <SCORE.INTER.POLAR>
-2.5635

>  <SCORE.INTER.ROT>
6

>  <SCORE.INTER.SOLV>
19.8475

>  <SCORE.INTER.VDW>
-22.2556

>  <SCORE.INTER.norm>
-0.672356

>  <SCORE.INTRA>
-3.9945

>  <SCORE.INTRA.DIHEDRAL>
-10.0616

>  <SCORE.INTRA.DIHEDRAL.0>
15.6389

>  <SCORE.INTRA.POLAR>
0

>  <SCORE.INTRA.POLAR.0>
0

>  <SCORE.INTRA.REPUL>
0

>  <SCORE.INTRA.REPUL.0>
0

>  <SCORE.INTRA.SOLV>
1.55997

>  <SCORE.INTRA.SOLV.lig_0>
-90.9181

>  <SCORE.INTRA.VDW>
0.256335

>  <SCORE.INTRA.VDW.0>
-3.14158

>  <SCORE.INTRA.norm>
-0.107959

>  <SCORE.RESTR>
0

>  <SCORE.RESTR.CAVITY>
0

>  <SCORE.RESTR.norm>
0

>  <SCORE.SYSTEM>
0

>  <SCORE.SYSTEM.CONST>
0

>  <SCORE.SYSTEM.DIHEDRAL>
0

>  <SCORE.SYSTEM.SOLV>
0

>  <SCORE.SYSTEM.norm>
0

>  <SCORE.heavy>
37

>  <SCORE.norm>
-0.780315

>  <RMSD>
1.987

$$$$
1yrj_lig
 OpenBabel11021811423D
libRbt.so/2013.1/901 2013/11/27
 37 40  0  0  0  0  0  0  0  0999 V2000
   39.6554    6.2270   10.4125 C   0  0  1  0  0  0  0  0  0  0  0  0
   40.7691    5.8722   11.4171 C   0  0  1  0  0  0  0  0  0  0  0  0
   41.6405    4.7091   10.9169 C   0  0  0  0  0  0  0  0  0  0  0  0
   40.7510    3.4828   10.5845 C   0  0  1  0  0  0  0  0  0  0  0  0
   39.6863    3.8706    9.5409 C   0  0  1  0  0  0  0  0  0  0  0  0
   38.7997    2.5969    9.2095 C   0  0  1  0  0  0  0  0  0  0  0  0
   39.6938    1.4714    8.6643 C   0  0  1  0  0  0  0  0  0  0  0  0
   40.7734    1.1544    9.7275 C   0  0  2  0  0  0  0  0  0  0  0  0
   38.6189    0.0429    6.8448 C   0  0  0  0  0  0  0  0  0  0  0  0
   41.6102    7.0366   11.7391 N   0  0  0  0  0  0  0  0  0  0  0  0
   38.8590    0.2843    8.3019 N   0  0  0  0  0  0  0  0  0  0  0  0
   40.1308    6.9237    9.2455 O   0  0  0  0  0  0  0  0  0  0  0  0
   38.9029    5.0025   10.0759 O   0  0  0  0  0  0  0  0  0  0  0  0
   41.5412    2.3455   10.0603 O   0  0  0  0  0  0  0  0  0  0  0  0
   38.2008    2.1203   10.3963 O   0  0  0  0  0  0  0  0  0  0  0  0
   41.6901    0.1572    9.2751 O   0  0  0  0  0  0  0  0  0  0  0  0
   42.6960   -0.1823   10.2583 C   0  0  2  0  0  0  0  0  0  0  0  0
   43.9576   -0.8128    9.6463 C   0  0  1  0  0  0  0  0  0  0  0  0
   43.6612   -2.2306    9.0895 C   0  0  2  0  0  0  0  0  0  0  0  0
   43.1090   -3.1097   10.1881 C   0  0  1  0  0  0  0  0  0  0  0  0
   41.8257   -2.4642   10.7626 C   0  0  1  0  0  0  0  0  0  0  0  0
   41.2251   -3.2649   11.9158 C   0  0  0  0  0  0  0  0  0  0  0  0
   42.8329   -4.4486    9.6273 N   0  0  0  0  0  0  0  0  0  0  0  0
   42.1353   -1.1136   11.2649 O   0  0  0  0  0  0  0  0  0  0  0  0
   44.4606    0.0729    8.6355 O   0  0  0  0  0  0  0  0  0  0  0  0
   44.8727   -2.8181    8.5954 O   0  0  0  0  0  0  0  0  0  0  0  0
   40.7646   -4.5002   11.4362 O   0  0  0  0  0  0  0  0  0  0  0  0
   39.2371    7.3589    8.0939 C   0  0  1  0  0  0  0  0  0  0  0  0
   38.8003    6.0788    7.3479 C   0  0  1  0  0  0  0  0  0  0  0  0
   37.8271    6.4102    6.1906 C   0  0  2  0  0  0  0  0  0  0  0  0
   36.5908    7.1339    6.7371 C   0  0  1  0  0  0  0  0  0  0  0  0
   37.0114    8.4406    7.4571 C   0  0  0  0  0  0  0  0  0  0  0  0
   37.9603    8.0882    8.6074 C   0  0  2  0  0  0  0  0  0  0  0  0
   35.6700    7.4575    5.6244 N   0  0  0  0  0  0  0  0  0  0  0  0
   38.3184    9.3397    9.2697 N   0  0  0  0  0  0  0  0  0  0  0  0
   39.9686    5.4321    6.7976 O   0  0  0  0  0  0  0  0  0  0  0  0
   37.4334    5.1796    5.5461 O   0  0  0  0  0  0  0  0  0  0  0  0
  1  2  1  0  0  0  0
  1 12  1  6  0  0  0
  1 13  1  0  0  0  0
  2  3  1  0  0  0  0
  2 10  1  6  0  0  0
  4  3  1  6  0  0  0
  4  5  1  0  0  0  0
  4 14  1  0  0  0  0
  5  6  1  0  0  0  0
  5 13  1  1  0  0  0
  6  7  1  0  0  0  0
  6 15  1  1  0  0  0
  7  8  1  0  0  0  0
  7 11  1  1  0  0  0
  8 14  1  0  0  0  0
  8 16  1  6  0  0  0
  9 11  1  0  0  0  0
 17 16  1  6  0  0  0
 17 18  1  0  0  0  0
 17 24  1  0  0  0  0
 18 19  1  0  0  0  0
 18 25  1  6  0  0  0
 19 20  1  0  0  0  0
 19 26  1  1  0  0  0
 20 21  1  0  0  0  0
 20 23  1  6  0  0  0
 21 22  1  1  0  0  0
 21 24  1  0  0  0  0
 22 27  1  0  0  0  0
 28 12  1  1  0  0  0
 28 29  1  0  0  0  0
 28 33  1  0  0  0  0
 29 30  1  0  0  0  0
 29 36  1  6  0  0  0
 30 31  1  0  0  0  0
 30 37  1  1  0  0  0
 31 32  1  0  0  0  0
 31 34  1  6  0  0  0
 32 33  1  0  0  0  0
 33 35  1  6  0  0  0
M  END
>  <CHROM.1>
178.68837760,104.87306203,-178.76444398,-158.11264005,-66.17156470,-70.30252854
40.33672495,2.62911213,9.17189304,-2.17523132,0.76716866,-2.90755311

>  <Name>
1yrj_lig

>  <RI>
224

>  <Rbt.Current_Directory>
/home/itssahil/PROJECTS/Mol_Feturizer/New_Systems/rnas/1yrj

>  <Rbt.Executable>
rbdock ($Id: //depot/dev/client3/rdock/2013.1/src/exe/rbdock.cxx#4 $)

>  <Rbt.Library>
libRbt.so (2013.1, Build901 2013/11/27)

>  <Rbt.Parameter_File>
/export/apps/rDock/src/rDock_2013.1_src/data/scripts/dock_solv.prm

>  <Rbt.Receptor>
prm/pocket_docking_2.prm

>  <SCORE>
-25.5906

>  <SCORE.INTER>
-20.1572

>  <SCORE.INTER.CONST>
1

>  <SCORE.INTER.POLAR>
-2.66252

>  <SCORE.INTER.ROT>
6

>  <SCORE.INTER.SOLV>
22.3917

>  <SCORE.INTER.VDW>
-19.627

>  <SCORE.INTER.norm>
-0.54479

>  <SCORE.INTRA>
-6.44154

>  <SCORE.INTRA.DIHEDRAL>
-11.7367

>  <SCORE.INTRA.DIHEDRAL.0>
15.6389

>  <SCORE.INTRA.POLAR>
0

>  <SCORE.INTRA.POLAR.0>
0

>  <SCORE.INTRA.REPUL>
0

>  <SCORE.INTRA.REPUL.0>
0

>  <SCORE.INTRA.SOLV>
-1.08526

>  <SCORE.INTRA.SOLV.lig_0>
-90.9181

>  <SCORE.INTRA.VDW>
-0.0305743

>  <SCORE.INTRA.VDW.0>
-3.14158

>  <SCORE.INTRA.norm>
-0.174096

>  <SCORE.RESTR>
1.00816

>  <SCORE.RESTR.CAVITY>
1.00816

>  <SCORE.RESTR.norm>
0.0272475

>  <SCORE.SYSTEM>
0

>  <SCORE.SYSTEM.CONST>
0

>  <SCORE.SYSTEM.DIHEDRAL>
0

>  <SCORE.SYSTEM.SOLV>
0

>  <SCORE.SYSTEM.norm>
0

>  <SCORE.heavy>
37

>  <SCORE.norm>
-0.691638

>  <RMSD>
1.993

$$$$
1yrj_lig
 OpenBabel11021811423D
libRbt.so/2013.1/901 2013/11/27
 37 40  0  0  0  0  0  0  0  0999 V2000
   39.7927    6.4220   10.3597 C   0  0  1  0  0  0  0  0  0  0  0  0
   40.9297    6.1261   11.3573 C   0  0  1  0  0  0  0  0  0  0  0  0
   41.8162    4.9628   10.8847 C   0  0  0  0  0  0  0  0  0  0  0  0
   40.9464    3.7080   10.6122 C   0  0  1  0  0  0  0  0  0  0  0  0
   39.8571    4.0363    9.5736 C   0  0  1  0  0  0  0  0  0  0  0  0
   38.9912    2.7342    9.3038 C   0  0  1  0  0  0  0  0  0  0  0  0
   39.8988    1.6073    8.7845 C   0  0  1  0  0  0  0  0  0  0  0  0
   41.0019    1.3507    9.8399 C   0  0  2  0  0  0  0  0  0  0  0  0
   38.1915    0.4561    7.2792 C   0  0  0  0  0  0  0  0  0  0  0  0
   41.7522    7.3178   11.6225 N   0  0  0  0  0  0  0  0  0  0  0  0
   39.0824    0.3917    8.4797 N   0  0  0  0  0  0  0  0  0  0  0  0
   40.2347    7.0848    9.1603 O   0  0  0  0  0  0  0  0  0  0  0  0
   39.0598    5.1715   10.0806 O   0  0  0  0  0  0  0  0  0  0  0  0
   41.7508    2.5680   10.1161 O   0  0  0  0  0  0  0  0  0  0  0  0
   38.4215    2.2897   10.5172 O   0  0  0  0  0  0  0  0  0  0  0  0
   41.9311    0.3558    9.4082 O   0  0  0  0  0  0  0  0  0  0  0  0
   42.7031   -0.2133   10.4917 C   0  0  2  0  0  0  0  0  0  0  0  0
   43.9838   -0.9214   10.0206 C   0  0  1  0  0  0  0  0  0  0  0  0
   43.6504   -2.2203    9.2397 C   0  0  2  0  0  0  0  0  0  0  0  0
   42.8225   -3.1427   10.1050 C   0  0  1  0  0  0  0  0  0  0  0  0
   41.5289   -2.4128   10.5377 C   0  0  1  0  0  0  0  0  0  0  0  0
   40.6517   -3.2579   11.4586 C   0  0  0  0  0  0  0  0  0  0  0  0
   42.5178   -4.3658    9.3340 N   0  0  0  0  0  0  0  0  0  0  0  0
   41.8782   -1.1756   11.2587 O   0  0  0  0  0  0  0  0  0  0  0  0
   44.7484    0.0036    9.2339 O   0  0  0  0  0  0  0  0  0  0  0  0
   44.8653   -2.8931    8.8812 O   0  0  0  0  0  0  0  0  0  0  0  0
   41.3617   -3.5620   12.6296 O   0  0  0  0  0  0  0  0  0  0  0  0
   39.3172    7.4417    8.0005 C   0  0  1  0  0  0  0  0  0  0  0  0
   38.7848    6.1146    7.4162 C   0  0  1  0  0  0  0  0  0  0  0  0
   37.7825    6.3723    6.2651 C   0  0  2  0  0  0  0  0  0  0  0  0
   36.6087    7.2184    6.7723 C   0  0  1  0  0  0  0  0  0  0  0  0
   37.1253    8.5699    7.3283 C   0  0  0  0  0  0  0  0  0  0  0  0
   38.1020    8.2920    8.4758 C   0  0  2  0  0  0  0  0  0  0  0  0
   35.6602    7.4702    5.6644 N   0  0  0  0  0  0  0  0  0  0  0  0
   38.5510    9.5860    8.9827 N   0  0  0  0  0  0  0  0  0  0  0  0
   39.8945    5.3484    6.8991 O   0  0  0  0  0  0  0  0  0  0  0  0
   37.2998    5.1029    5.7748 O   0  0  0  0  0  0  0  0  0  0  0  0
  1  2  1  0  0  0  0
  1 12  1  6  0  0  0
  1 13  1  0  0  0  0
  2  3  1  0  0  0  0
  2 10  1  6  0  0  0
  4  3  1  6  0  0  0
  4  5  1  0  0  0  0
  4 14  1  0  0  0  0
  5  6  1  0  0  0  0
  5 13  1  1  0  0  0
  6  7  1  0  0  0  0
  6 15  1  1  0  0  0
  7  8  1  0  0  0  0
  7 11  1  1  0  0  0
  8 14  1  0  0  0  0
  8 16  1  6  0  0  0
  9 11  1  0  0  0  0
 17 16  1  6  0  0  0
 17 18  1  0  0  0  0
 17 24  1  0  0  0  0
 18 19  1  0  0  0  0
 18 25  1  6  0  0  0
 19 20  1  0  0  0  0
 19 26  1  1  0  0  0
 20 21  1  0  0  0  0
 20 23  1  6  0  0  0
 21 22  1  1  0  0  0
 21 24  1  0  0  0  0
 22 27  1  0  0  0  0
 28 12  1  1  0  0  0
 28 29  1  0  0  0  0
 28 33  1  0  0  0  0
 29 30  1  0  0  0  0
 29 36  1  6  0  0  0
 30 31  1  0  0  0  0
 30 37  1  1  0  0  0
 31 32  1  0  0  0  0
 31 34  1  6  0  0  0
 32 33  1  0  0  0  0
 33 35  1  6  0  0  0
M  END
>  <CHROM.1>
177.75630080,71.38647146,-161.53572282,-161.30507769,61.03346868,-63.76016521
40.38774143,2.75532192,9.25210447,-2.13214991,0.71390141,-2.98341176

>  <Name>
1yrj_lig

>  <RI>
224

>  <Rbt.Current_Directory>
/home/itssahil/PROJECTS/Mol_Feturizer/New_Systems/rnas/1yrj

>  <Rbt.Executable>
rbdock ($Id: //depot/dev/client3/rdock/2013.1/src/exe/rbdock.cxx#4 $)

>  <Rbt.Library>
libRbt.so (2013.1, Build901 2013/11/27)

>  <Rbt.Parameter_File>
/export/apps/rDock/src/rDock_2013.1_src/data/scripts/dock_solv.prm

>  <Rbt.Receptor>
prm/pocket_docking_2.prm

>  <SCORE>
-26.9592

>  <SCORE.INTER>
-21.5417

>  <SCORE.INTER.CONST>
1

>  <SCORE.INTER.POLAR>
-2.42034

>  <SCORE.INTER.ROT>
6

>  <SCORE.INTER.SOLV>
22.623

>  <SCORE.INTER.VDW>
-21.4343

>  <SCORE.INTER.norm>
-0.582207

>  <SCORE.INTRA>
-6.58427

>  <SCORE.INTRA.DIHEDRAL>
-12.1899

>  <SCORE.INTRA.DIHEDRAL.0>
15.6389

>  <SCORE.INTRA.POLAR>
0

>  <SCORE.INTRA.POLAR.0>
0

>  <SCORE.INTRA.REPUL>
0

>  <SCORE.INTRA.REPUL.0>
0

>  <SCORE.INTRA.SOLV>
-1.18819

>  <SCORE.INTRA.SOLV.lig_0>
-90.9181

>  <SCORE.INTRA.VDW>
0.104785

>  <SCORE.INTRA.VDW.0>
-3.14158

>  <SCORE.INTRA.norm>
-0.177953

>  <SCORE.RESTR>
1.16674

>  <SCORE.RESTR.CAVITY>
1.16674

>  <SCORE.RESTR.norm>
0.0315335

>  <SCORE.SYSTEM>
0

>  <SCORE.SYSTEM.CONST>
0

>  <SCORE.SYSTEM.DIHEDRAL>
0

>  <SCORE.SYSTEM.SOLV>
0

>  <SCORE.SYSTEM.norm>
0

>  <SCORE.heavy>
37

>  <SCORE.norm>
-0.728627

>  <RMSD>
1.999

$$$$
1yrj_lig
 OpenBabel11021811423D
libRbt.so/2013.1/901 2013/11/27
 37 40  0  0  0  0  0  0  0  0999 V2000
   39.9283    6.6266   10.4279 C   0  0  1  0  0  0  0  0  0  0  0  0
   41.1152    6.2952   11.3536 C   0  0  1  0  0  0  0  0  0  0  0  0
   41.9371    5.1083   10.8262 C   0  0  0  0  0  0  0  0  0  0  0  0
   41.0162    3.8798   10.6060 C   0  0  1  0  0  0  0  0  0  0  0  0
   39.8754    4.2425    9.6366 C   0  0  1  0  0  0  0  0  0  0  0  0
   38.9573    2.9666    9.4188 C   0  0  1  0  0  0  0  0  0  0  0  0
   39.7984    1.8156    8.8435 C   0  0  1  0  0  0  0  0  0  0  0  0
   40.9562    1.5242    9.8289 C   0  0  2  0  0  0  0  0  0  0  0  0
   38.3986    0.4581    7.1990 C   0  0  0  0  0  0  0  0  0  0  0  0
   41.9866    7.4619   11.5693 N   0  0  0  0  0  0  0  0  0  0  0  0
   38.9300    0.6248    8.5879 N   0  0  0  0  0  0  0  0  0  0  0  0
   40.3150    7.2799    9.2045 O   0  0  0  0  0  0  0  0  0  0  0  0
   39.1438    5.3986   10.1928 O   0  0  0  0  0  0  0  0  0  0  0  0
   41.7555    2.7186   10.0602 O   0  0  0  0  0  0  0  0  0  0  0  0
   38.4504    2.5351   10.6643 O   0  0  0  0  0  0  0  0  0  0  0  0
   41.8281    0.5042    9.3400 O   0  0  0  0  0  0  0  0  0  0  0  0
   42.7280   -0.0103   10.3494 C   0  0  2  0  0  0  0  0  0  0  0  0
   44.0022   -0.6414    9.7648 C   0  0  1  0  0  0  0  0  0  0  0  0
   43.6803   -1.9628    9.0174 C   0  0  2  0  0  0  0  0  0  0  0  0
   42.9920   -2.9291    9.9540 C   0  0  1  0  0  0  0  0  0  0  0  0
   41.7002   -2.2773   10.5016 C   0  0  1  0  0  0  0  0  0  0  0  0
   40.9631   -3.1692   11.4980 C   0  0  0  0  0  0  0  0  0  0  0  0
   42.6948   -4.1730    9.2139 N   0  0  0  0  0  0  0  0  0  0  0  0
   42.0363   -1.0169   11.1879 O   0  0  0  0  0  0  0  0  0  0  0  0
   44.6345    0.3241    8.9122 O   0  0  0  0  0  0  0  0  0  0  0  0
   44.8970   -2.5620    8.5509 O   0  0  0  0  0  0  0  0  0  0  0  0
   41.7682   -3.3697   12.6292 O   0  0  0  0  0  0  0  0  0  0  0  0
   39.3464    7.6231    8.0827 C   0  0  1  0  0  0  0  0  0  0  0  0
   38.9127    6.2908    7.4324 C   0  0  1  0  0  0  0  0  0  0  0  0
   37.8680    6.5275    6.3150 C   0  0  2  0  0  0  0  0  0  0  0  0
   36.6396    7.2431    6.8896 C   0  0  1  0  0  0  0  0  0  0  0  0
   37.0550    8.6000    7.5132 C   0  0  0  0  0  0  0  0  0  0  0  0
   38.0758    8.3412    8.6263 C   0  0  2  0  0  0  0  0  0  0  0  0
   35.6500    7.4761    5.8141 N   0  0  0  0  0  0  0  0  0  0  0  0
   38.4275    9.6378    9.1989 N   0  0  0  0  0  0  0  0  0  0  0  0
   40.0704    5.6498    6.8537 O   0  0  0  0  0  0  0  0  0  0  0  0
   37.4811    5.2516    5.7610 O   0  0  0  0  0  0  0  0  0  0  0  0
  1  2  1  0  0  0  0
  1 12  1  6  0  0  0
  1 13  1  0  0  0  0
  2  3  1  0  0  0  0
  2 10  1  6  0  0  0
  4  3  1  6  0  0  0
  4  5  1  0  0  0  0
  4 14  1  0  0  0  0
  5  6  1  0  0  0  0
  5 13  1  1  0  0  0
  6  7  1  0  0  0  0
  6 15  1  1  0  0  0
  7  8  1  0  0  0  0
  7 11  1  1  0  0  0
  8 14  1  0  0  0  0
  8 16  1  6  0  0  0
  9 11  1  0  0  0  0
 17 16  1  6  0  0  0
 17 18  1  0  0  0  0
 17 24  1  0  0  0  0
 18 19  1  0  0  0  0
 18 25  1  6  0  0  0
 19 20  1  0  0  0  0
 19 26  1  1  0  0  0
 20 21  1  0  0  0  0
 20 23  1  6  0  0  0
 21 22  1  1  0  0  0
 21 24  1  0  0  0  0
 22 27  1  0  0  0  0
 28 12  1  1  0  0  0
 28 29  1  0  0  0  0
 28 33  1  0  0  0  0
 29 30  1  0  0  0  0
 29 36  1  6  0  0  0
 30 31  1  0  0  0  0
 30 37  1  1  0  0  0
 31 32  1  0  0  0  0
 31 34  1  6  0  0  0
 32 33  1  0  0  0  0
 33 35  1  6  0  0  0
M  END
>  <CHROM.1>
175.53891666,95.56643866,-166.50825247,-156.38045908,63.85464912,-69.82589088
40.45731175,2.92853272,9.24121474,-2.14877038,0.72313311,-2.94486926

>  <Name>
1yrj_lig

>  <RI>
0

>  <Rbt.Current_Directory>
/home/itssahil/PROJECTS/Mol_Feturizer/New_Systems/rnas/1yrj

>  <Rbt.Executable>
rbdock ($Id: //depot/dev/client3/rdock/2013.1/src/exe/rbdock.cxx#4 $)

>  <Rbt.Library>
libRbt.so (2013.1, Build901 2013/11/27)

>  <Rbt.Parameter_File>
/export/apps/rDock/src/rDock_2013.1_src/data/scripts/dock_solv.prm

>  <Rbt.Receptor>
prm/pocket_docking_3.prm

>  <SCORE>
-30.0239

>  <SCORE.INTER>
-23.6469

>  <SCORE.INTER.CONST>
1

>  <SCORE.INTER.POLAR>
-2.49393

>  <SCORE.INTER.ROT>
6

>  <SCORE.INTER.SOLV>
22.4478

>  <SCORE.INTER.VDW>
-22.5341

>  <SCORE.INTER.norm>
-0.639107

>  <SCORE.INTRA>
-6.37698

>  <SCORE.INTRA.DIHEDRAL>
-10.8705

>  <SCORE.INTRA.DIHEDRAL.0>
15.6389

>  <SCORE.INTRA.POLAR>
0

>  <SCORE.INTRA.POLAR.0>
0

>  <SCORE.INTRA.REPUL>
0

>  <SCORE.INTRA.REPUL.0>
0

>  <SCORE.INTRA.SOLV>
-1.36734

>  <SCORE.INTRA.SOLV.lig_0>
-90.9181

>  <SCORE.INTRA.VDW>
-0.258059

>  <SCORE.INTRA.VDW.0>
-3.14158

>  <SCORE.INTRA.norm>
-0.172351

>  <SCORE.RESTR>
0

>  <SCORE.RESTR.CAVITY>
0

>  <SCORE.RESTR.norm>
0

>  <SCORE.SYSTEM>
0

>  <SCORE.SYSTEM.CONST>
0

>  <SCORE.SYSTEM.DIHEDRAL>
0

>  <SCORE.SYSTEM.SOLV>
0

>  <SCORE.SYSTEM.norm>
0

>  <SCORE.heavy>
37

>  <SCORE.norm>
-0.811457

>  <RMSD>
2.000

$$$$
1yrj_lig
 OpenBabel11021811423D
libRbt.so/2013.1/901 2013/11/27
 37 40  0  0  0  0  0  0  0  0999 V2000
   39.9474    6.6662   10.4126 C   0  0  1  0  0  0  0  0  0  0  0  0
   41.1393    6.3451   11.3355 C   0  0  1  0  0  0  0  0  0  0  0  0
   41.9632    5.1576   10.8125 C   0  0  0  0  0  0  0  0  0  0  0  0
   41.0458    3.9244   10.6043 C   0  0  1  0  0  0  0  0  0  0  0  0
   39.8996    4.2767    9.6373 C   0  0  1  0  0  0  0  0  0  0  0  0
   38.9851    2.9962    9.4318 C   0  0  1  0  0  0  0  0  0  0  0  0
   39.8279    1.8443    8.8607 C   0  0  1  0  0  0  0  0  0  0  0  0
   40.9908    1.5635    9.8432 C   0  0  2  0  0  0  0  0  0  0  0  0
   38.2818    0.5641    7.2868 C   0  0  0  0  0  0  0  0  0  0  0  0
   42.0075    7.5162   11.5397 N   0  0  0  0  0  0  0  0  0  0  0  0
   38.9627    0.6489    8.6166 N   0  0  0  0  0  0  0  0  0  0  0  0
   40.3267    7.3127    9.1833 O   0  0  0  0  0  0  0  0  0  0  0  0
   39.1663    5.4339   10.1889 O   0  0  0  0  0  0  0  0  0  0  0  0
   41.7868    2.7623   10.0632 O   0  0  0  0  0  0  0  0  0  0  0  0
   38.4849    2.5712   10.6823 O   0  0  0  0  0  0  0  0  0  0  0  0
   41.8642    0.5434    9.3573 O   0  0  0  0  0  0  0  0  0  0  0  0
   42.7355    0.0033   10.3785 C   0  0  2  0  0  0  0  0  0  0  0  0
   44.0067   -0.6496    9.8116 C   0  0  1  0  0  0  0  0  0  0  0  0
   43.6712   -1.9588    9.0488 C   0  0  2  0  0  0  0  0  0  0  0  0
   42.9468   -2.9174    9.9659 C   0  0  1  0  0  0  0  0  0  0  0  0
   41.6591   -2.2431   10.4956 C   0  0  1  0  0  0  0  0  0  0  0  0
   40.8865   -3.1269   11.4723 C   0  0  0  0  0  0  0  0  0  0  0  0
   42.6375   -4.1496    9.2114 N   0  0  0  0  0  0  0  0  0  0  0  0
   42.0086   -0.9949   11.1972 O   0  0  0  0  0  0  0  0  0  0  0  0
   44.6736    0.3088    8.9775 O   0  0  0  0  0  0  0  0  0  0  0  0
   44.8834   -2.5795    8.5991 O   0  0  0  0  0  0  0  0  0  0  0  0
   41.6825   -3.3849   12.5982 O   0  0  0  0  0  0  0  0  0  0  0  0
   39.3519    7.6470    8.0641 C   0  0  1  0  0  0  0  0  0  0  0  0
   38.8956    6.3083    7.4431 C   0  0  1  0  0  0  0  0  0  0  0  0
   37.8434    6.5372    6.3311 C   0  0  2  0  0  0  0  0  0  0  0  0
   36.6295    7.2788    6.9034 C   0  0  1  0  0  0  0  0  0  0  0  0
   37.0675    8.6418    7.4976 C   0  0  0  0  0  0  0  0  0  0  0  0
   38.0955    8.3910    8.6058 C   0  0  2  0  0  0  0  0  0  0  0  0
   35.6326    7.5041    5.8329 N   0  0  0  0  0  0  0  0  0  0  0  0
   38.4686    9.6936    9.1506 N   0  0  0  0  0  0  0  0  0  0  0  0
   40.0397    5.6421    6.8659 O   0  0  0  0  0  0  0  0  0  0  0  0
   37.4354    5.2561    5.8048 O   0  0  0  0  0  0  0  0  0  0  0  0
  1  2  1  0  0  0  0
  1 12  1  6  0  0  0
  1 13  1  0  0  0  0
  2  3  1  0  0  0  0
  2 10  1  6  0  0  0
  4  3  1  6  0  0  0
  4  5  1  0  0  0  0
  4 14  1  0  0  0  0
  5  6  1  0  0  0  0
  5 13  1  1  0  0  0
  6  7  1  0  0  0  0
  6 15  1  1  0  0  0
  7  8  1  0  0  0  0
  7 11  1  1  0  0  0
  8 14  1  0  0  0  0
  8 16  1  6  0  0  0
  9 11  1  0  0  0  0
 17 16  1  6  0  0  0
 17 18  1  0  0  0  0
 17 24  1  0  0  0  0
 18 19  1  0  0  0  0
 18 25  1  6  0  0  0
 19 20  1  0  0  0  0
 19 26  1  1  0  0  0
 20 21  1  0  0  0  0
 20 23  1  6  0  0  0
 21 22  1  1  0  0  0
 21 24  1  0  0  0  0
 22 27  1  0  0  0  0
 28 12  1  1  0  0  0
 28 29  1  0  0  0  0
 28 33  1  0  0  0  0
 29 30  1  0  0  0  0
 29 36  1  6  0  0  0
 30 31  1  0  0  0  0
 30 37  1  1  0  0  0
 31 32  1  0  0  0  0
 31 34  1  6  0  0  0
 32 33  1  0  0  0  0
 33 35  1  6  0  0  0
M  END
>  <CHROM.1>
175.63868041,87.80588370,-164.30841161,-157.26794982,62.10643295,-68.69655947
40.45458484,2.95626662,9.24939781,-2.13101885,0.69903333,-2.97001948

>  <Name>
1yrj_lig

>  <RI>
0

>  <Rbt.Current_Directory>
/home/itssahil/PROJECTS/Mol_Feturizer/New_Systems/rnas/1yrj

>  <Rbt.Executable>
rbdock ($Id: //depot/dev/client3/rdock/2013.1/src/exe/rbdock.cxx#4 $)

>  <Rbt.Library>
libRbt.so (2013.1, Build901 2013/11/27)

>  <Rbt.Parameter_File>
/export/apps/rDock/src/rDock_2013.1_src/data/scripts/dock_solv.prm

>  <Rbt.Receptor>
prm/pocket_docking_3.prm

>  <SCORE>
-30.1932

>  <SCORE.INTER>
-23.7546

>  <SCORE.INTER.CONST>
1

>  <SCORE.INTER.POLAR>
-2.51783

>  <SCORE.INTER.ROT>
6

>  <SCORE.INTER.SOLV>
22.4949

>  <SCORE.INTER.VDW>
-22.5419

>  <SCORE.INTER.norm>
-0.642017

>  <SCORE.INTRA>
-6.4409

>  <SCORE.INTRA.DIHEDRAL>
-11.1233

>  <SCORE.INTRA.DIHEDRAL.0>
15.6389

>  <SCORE.INTRA.POLAR>
0

>  <SCORE.INTRA.POLAR.0>
0

>  <SCORE.INTRA.REPUL>
0

>  <SCORE.INTRA.REPUL.0>
0

>  <SCORE.INTRA.SOLV>
-1.30654

>  <SCORE.INTRA.SOLV.lig_0>
-90.9181

>  <SCORE.INTRA.VDW>
-0.225985

>  <SCORE.INTRA.VDW.0>
-3.14158

>  <SCORE.INTRA.norm>
-0.174078

>  <SCORE.RESTR>
0.00234811

>  <SCORE.RESTR.CAVITY>
0.00234811

>  <SCORE.RESTR.norm>
6.34624e-05

>  <SCORE.SYSTEM>
0

>  <SCORE.SYSTEM.CONST>
0

>  <SCORE.SYSTEM.DIHEDRAL>
0

>  <SCORE.SYSTEM.SOLV>
0

>  <SCORE.SYSTEM.norm>
0

>  <SCORE.heavy>
37

>  <SCORE.norm>
-0.816031

>  <RMSD>
2.008

$$$$
1yrj_lig
 OpenBabel11021811423D
libRbt.so/2013.1/901 2013/11/27
 37 40  0  0  0  0  0  0  0  0999 V2000
   39.7865    6.4292   10.3556 C   0  0  1  0  0  0  0  0  0  0  0  0
   40.9218    6.1447   11.3583 C   0  0  1  0  0  0  0  0  0  0  0  0
   41.8158    4.9834   10.8949 C   0  0  0  0  0  0  0  0  0  0  0  0
   40.9533    3.7226   10.6266 C   0  0  1  0  0  0  0  0  0  0  0  0
   39.8656    4.0397    9.5828 C   0  0  1  0  0  0  0  0  0  0  0  0
   39.0073    2.7316    9.3174 C   0  0  1  0  0  0  0  0  0  0  0  0
   39.9224    1.6066    8.8072 C   0  0  1  0  0  0  0  0  0  0  0  0
   41.0234    1.3615    9.8674 C   0  0  2  0  0  0  0  0  0  0  0  0
   38.1642    0.4669    7.3524 C   0  0  0  0  0  0  0  0  0  0  0  0
   41.7374    7.3420   11.6195 N   0  0  0  0  0  0  0  0  0  0  0  0
   39.1131    0.3851    8.5065 N   0  0  0  0  0  0  0  0  0  0  0  0
   40.2289    7.0877    9.1540 O   0  0  0  0  0  0  0  0  0  0  0  0
   39.0609    5.1734   10.0810 O   0  0  0  0  0  0  0  0  0  0  0  0
   41.7652    2.5841   10.1393 O   0  0  0  0  0  0  0  0  0  0  0  0
   38.4361    2.2908   10.5315 O   0  0  0  0  0  0  0  0  0  0  0  0
   41.9591    0.3690    9.4441 O   0  0  0  0  0  0  0  0  0  0  0  0
   42.7636   -0.1559   10.5261 C   0  0  2  0  0  0  0  0  0  0  0  0
   44.0391   -0.8680   10.0467 C   0  0  1  0  0  0  0  0  0  0  0  0
   43.6990   -2.1958    9.3189 C   0  0  2  0  0  0  0  0  0  0  0  0
   42.9023   -3.0956   10.2356 C   0  0  1  0  0  0  0  0  0  0  0  0
   41.6128   -2.3631   10.6763 C   0  0  1  0  0  0  0  0  0  0  0  0
   40.7675   -3.1843   11.6472 C   0  0  0  0  0  0  0  0  0  0  0  0
   42.5903   -4.3469    9.5144 N   0  0  0  0  0  0  0  0  0  0  0  0
   41.9679   -1.0990   11.3460 O   0  0  0  0  0  0  0  0  0  0  0  0
   44.7745    0.0365    9.2100 O   0  0  0  0  0  0  0  0  0  0  0  0
   44.9110   -2.8694    8.9524 O   0  0  0  0  0  0  0  0  0  0  0  0
   40.1842   -4.2610   10.9627 O   0  0  0  0  0  0  0  0  0  0  0  0
   39.3080    7.4592    8.0014 C   0  0  1  0  0  0  0  0  0  0  0  0
   38.7880    6.1392    7.3906 C   0  0  1  0  0  0  0  0  0  0  0  0
   37.7832    6.4104    6.2448 C   0  0  2  0  0  0  0  0  0  0  0  0
   36.6015    7.2351    6.7688 C   0  0  1  0  0  0  0  0  0  0  0  0
   37.1055    8.5801    7.3518 C   0  0  0  0  0  0  0  0  0  0  0  0
   38.0849    8.2884    8.4936 C   0  0  2  0  0  0  0  0  0  0  0  0
   35.6506    7.5002    5.6661 N   0  0  0  0  0  0  0  0  0  0  0  0
   38.5218    9.5760    9.0264 N   0  0  0  0  0  0  0  0  0  0  0  0
   39.9048    5.3939    6.8584 O   0  0  0  0  0  0  0  0  0  0  0  0
   37.3123    5.1467    5.7291 O   0  0  0  0  0  0  0  0  0  0  0  0
  1  2  1  0  0  0  0
  1 12  1  6  0  0  0
  1 13  1  0  0  0  0
  2  3  1  0  0  0  0
  2 10  1  6  0  0  0
  4  3  1  6  0  0  0
  4  5  1  0  0  0  0
  4 14  1  0  0  0  0
  5  6  1  0  0  0  0
  5 13  1  1  0  0  0
  6  7  1  0  0  0  0
  6 15  1  1  0  0  0
  7  8  1  0  0  0  0
  7 11  1  1  0  0  0
  8 14  1  0  0  0  0
  8 16  1  6  0  0  0
  9 11  1  0  0  0  0
 17 16  1  6  0  0  0
 17 18  1  0  0  0  0
 17 24  1  0  0  0  0
 18 19  1  0  0  0  0
 18 25  1  6  0  0  0
 19 20  1  0  0  0  0
 19 26  1  1  0  0  0
 20 21  1  0  0  0  0
 20 23  1  6  0  0  0
 21 22  1  1  0  0  0
 21 24  1  0  0  0  0
 22 27  1  0  0  0  0
 28 12  1  1  0  0  0
 28 29  1  0  0  0  0
 28 33  1  0  0  0  0
 29 30  1  0  0  0  0
 29 36  1  6  0  0  0
 30 31  1  0  0  0  0
 30 37  1  1  0  0  0
 31 32  1  0  0  0  0
 31 34  1  6  0  0  0
 32 33  1  0  0  0  0
 33 35  1  6  0  0  0
M  END
>  <CHROM.1>
179.06668040,67.77896374,-163.60969191,-161.80584386,-70.86524780,-65.51605390
40.37108447,2.75582730,9.23096527,-2.08799101,0.64527771,-3.03098340

>  <Name>
1yrj_lig

>  <RI>
224

>  <Rbt.Current_Directory>
/home/itssahil/PROJECTS/Mol_Feturizer/New_Systems/rnas/1yrj

>  <Rbt.Executable>
rbdock ($Id: //depot/dev/client3/rdock/2013.1/src/exe/rbdock.cxx#4 $)

>  <Rbt.Library>
libRbt.so (2013.1, Build901 2013/11/27)

>  <Rbt.Parameter_File>
/export/apps/rDock/src/rDock_2013.1_src/data/scripts/dock_solv.prm

>  <Rbt.Receptor>
prm/pocket_docking_2.prm

>  <SCORE>
-26.5296

>  <SCORE.INTER>
-21.276

>  <SCORE.INTER.CONST>
1

>  <SCORE.INTER.POLAR>
-2.42035

>  <SCORE.INTER.ROT>
6

>  <SCORE.INTER.SOLV>
21.8833

>  <SCORE.INTER.VDW>
-21.0106

>  <SCORE.INTER.norm>
-0.575028

>  <SCORE.INTRA>
-6.41807

>  <SCORE.INTRA.DIHEDRAL>
-12.1626

>  <SCORE.INTRA.DIHEDRAL.0>
15.6389

>  <SCORE.INTRA.POLAR>
0

>  <SCORE.INTRA.POLAR.0>
0

>  <SCORE.INTRA.REPUL>
0

>  <SCORE.INTRA.REPUL.0>
0

>  <SCORE.INTRA.SOLV>
-0.948757

>  <SCORE.INTRA.SOLV.lig_0>
-90.9181

>  <SCORE.INTRA.VDW>
0.137595

>  <SCORE.INTRA.VDW.0>
-3.14158

>  <SCORE.INTRA.norm>
-0.173461

>  <SCORE.RESTR>
1.16453

>  <SCORE.RESTR.CAVITY>
1.16453

>  <SCORE.RESTR.norm>
0.0314738

>  <SCORE.SYSTEM>
0

>  <SCORE.SYSTEM.CONST>
0

>  <SCORE.SYSTEM.DIHEDRAL>
0

>  <SCORE.SYSTEM.SOLV>
0

>  <SCORE.SYSTEM.norm>
0

>  <SCORE.heavy>
37

>  <SCORE.norm>
-0.717015

>  <RMSD>
2.030

$$$$
1yrj_lig
 OpenBabel11021811423D
libRbt.so/2013.1/901 2013/11/27
 37 40  0  0  0  0  0  0  0  0999 V2000
   39.8728    6.7084   10.4928 C   0  0  1  0  0  0  0  0  0  0  0  0
   41.0689    6.3656   11.4023 C   0  0  1  0  0  0  0  0  0  0  0  0
   41.9079    5.2110   10.8320 C   0  0  0  0  0  0  0  0  0  0  0  0
   41.0065    3.9755   10.5738 C   0  0  1  0  0  0  0  0  0  0  0  0
   39.8557    4.3518    9.6214 C   0  0  1  0  0  0  0  0  0  0  0  0
   38.9578    3.0690    9.3640 C   0  0  1  0  0  0  0  0  0  0  0  0
   39.8152    1.9522    8.7470 C   0  0  1  0  0  0  0  0  0  0  0  0
   40.9818    1.6469    9.7178 C   0  0  2  0  0  0  0  0  0  0  0  0
   38.5780   -0.1016    9.6176 C   0  0  0  0  0  0  0  0  0  0  0  0
   41.9219    7.5387   11.6541 N   0  0  0  0  0  0  0  0  0  0  0  0
   38.9654    0.7565    8.4545 N   0  0  0  0  0  0  0  0  0  0  0  0
   40.2435    7.4090    9.2907 O   0  0  0  0  0  0  0  0  0  0  0  0
   39.1076    5.4762   10.2192 O   0  0  0  0  0  0  0  0  0  0  0  0
   41.7624    2.8459    9.9864 O   0  0  0  0  0  0  0  0  0  0  0  0
   38.4633    2.5874   10.5961 O   0  0  0  0  0  0  0  0  0  0  0  0
   41.8682    0.6586    9.1914 O   0  0  0  0  0  0  0  0  0  0  0  0
   42.8548    0.2078   10.1490 C   0  0  2  0  0  0  0  0  0  0  0  0
   44.1220   -0.3656    9.4940 C   0  0  1  0  0  0  0  0  0  0  0  0
   43.8248   -1.7138    8.7853 C   0  0  2  0  0  0  0  0  0  0  0  0
   43.2477   -2.6993    9.7756 C   0  0  1  0  0  0  0  0  0  0  0  0
   41.9596   -2.1067   10.3946 C   0  0  1  0  0  0  0  0  0  0  0  0
   41.3338   -3.0195   11.4466 C   0  0  0  0  0  0  0  0  0  0  0  0
   42.9715   -3.9687    9.0717 N   0  0  0  0  0  0  0  0  0  0  0  0
   42.2704   -0.8196   11.0422 O   0  0  0  0  0  0  0  0  0  0  0  0
   44.6484    0.6176    8.5910 O   0  0  0  0  0  0  0  0  0  0  0  0
   45.0402   -2.2565    8.2513 O   0  0  0  0  0  0  0  0  0  0  0  0
   42.2059   -3.1393   12.5388 O   0  0  0  0  0  0  0  0  0  0  0  0
   39.2669    7.7638    8.1796 C   0  0  1  0  0  0  0  0  0  0  0  0
   38.9294    6.4533    7.4347 C   0  0  1  0  0  0  0  0  0  0  0  0
   37.8837    6.6969    6.3197 C   0  0  2  0  0  0  0  0  0  0  0  0
   36.6045    7.2902    6.9219 C   0  0  1  0  0  0  0  0  0  0  0  0
   36.9224    8.6258    7.6416 C   0  0  0  0  0  0  0  0  0  0  0  0
   37.9457    8.3589    8.7504 C   0  0  2  0  0  0  0  0  0  0  0  0
   35.6135    7.5308    5.8492 N   0  0  0  0  0  0  0  0  0  0  0  0
   38.2046    9.6338    9.4141 N   0  0  0  0  0  0  0  0  0  0  0  0
   40.1331    5.9300    6.8323 O   0  0  0  0  0  0  0  0  0  0  0  0
   37.5880    5.4391    5.6753 O   0  0  0  0  0  0  0  0  0  0  0  0
  1  2  1  0  0  0  0
  1 12  1  6  0  0  0
  1 13  1  0  0  0  0
  2  3  1  0  0  0  0
  2 10  1  6  0  0  0
  4  3  1  6  0  0  0
  4  5  1  0  0  0  0
  4 14  1  0  0  0  0
  5  6  1  0  0  0  0
  5 13  1  1  0  0  0
  6  7  1  0  0  0  0
  6 15  1  1  0  0  0
  7  8  1  0  0  0  0
  7 11  1  1  0  0  0
  8 14  1  0  0  0  0
  8 16  1  6  0  0  0
  9 11  1  0  0  0  0
 17 16  1  6  0  0  0
 17 18  1  0  0  0  0
 17 24  1  0  0  0  0
 18 19  1  0  0  0  0
 18 25  1  6  0  0  0
 19 20  1  0  0  0  0
 19 26  1  1  0  0  0
 20 21  1  0  0  0  0
 20 23  1  6  0  0  0
 21 22  1  1  0  0  0
 21 24  1  0  0  0  0
 22 27  1  0  0  0  0
 28 12  1  1  0  0  0
 28 29  1  0  0  0  0
 28 33  1  0  0  0  0
 29 30  1  0  0  0  0
 29 36  1  6  0  0  0
 30 31  1  0  0  0  0
 30 37  1  1  0  0  0
 31 32  1  0  0  0  0
 31 34  1  6  0  0  0
 32 33  1  0  0  0  0
 33 35  1  6  0  0  0
M  END
>  <CHROM.1>
175.02092126,-76.53460796,-171.46953642,-155.94359322,64.96069269,-73.07344165
40.51175900,3.05395836,9.25656012,-2.16716555,0.69324431,-2.92559936

>  <Name>
1yrj_lig

>  <RI>
0

>  <Rbt.Current_Directory>
/home/itssahil/PROJECTS/Mol_Feturizer/New_Systems/rnas/1yrj

>  <Rbt.Executable>
rbdock ($Id: //depot/dev/client3/rdock/2013.1/src/exe/rbdock.cxx#4 $)

>  <Rbt.Library>
libRbt.so (2013.1, Build901 2013/11/27)

>  <Rbt.Parameter_File>
/export/apps/rDock/src/rDock_2013.1_src/data/scripts/dock_solv.prm

>  <Rbt.Receptor>
prm/pocket_docking_3.prm

>  <SCORE>
-29.3044

>  <SCORE.INTER>
-24.4008

>  <SCORE.INTER.CONST>
1

>  <SCORE.INTER.POLAR>
-2.46554

>  <SCORE.INTER.ROT>
6

>  <SCORE.INTER.SOLV>
21.5279

>  <SCORE.INTER.VDW>
-22.8247

>  <SCORE.INTER.norm>
-0.659482

>  <SCORE.INTRA>
-4.90354

>  <SCORE.INTRA.DIHEDRAL>
-11.4565

>  <SCORE.INTRA.DIHEDRAL.0>
15.6389

>  <SCORE.INTRA.POLAR>
0

>  <SCORE.INTRA.POLAR.0>
0

>  <SCORE.INTRA.REPUL>
0

>  <SCORE.INTRA.REPUL.0>
0

>  <SCORE.INTRA.SOLV>
-1.18356

>  <SCORE.INTRA.SOLV.lig_0>
-90.9181

>  <SCORE.INTRA.VDW>
1.4165

>  <SCORE.INTRA.VDW.0>
-3.14158

>  <SCORE.INTRA.norm>
-0.132528

>  <SCORE.RESTR>
0

>  <SCORE.RESTR.CAVITY>
0

>  <SCORE.RESTR.norm>
0

>  <SCORE.SYSTEM>
0

>  <SCORE.SYSTEM.CONST>
0

>  <SCORE.SYSTEM.DIHEDRAL>
0

>  <SCORE.SYSTEM.SOLV>
0

>  <SCORE.SYSTEM.norm>
0

>  <SCORE.heavy>
37

>  <SCORE.norm>
-0.79201

>  <RMSD>
2.034

$$$$
1yrj_lig
 OpenBabel11021811423D
libRbt.so/2013.1/901 2013/11/27
 37 40  0  0  0  0  0  0  0  0999 V2000
   39.9129    6.7369   10.4755 C   0  0  1  0  0  0  0  0  0  0  0  0
   41.1148    6.4011   11.3799 C   0  0  1  0  0  0  0  0  0  0  0  0
   41.9512    5.2433   10.8122 C   0  0  0  0  0  0  0  0  0  0  0  0
   41.0492    4.0055   10.5677 C   0  0  1  0  0  0  0  0  0  0  0  0
   39.8923    4.3745    9.6199 C   0  0  1  0  0  0  0  0  0  0  0  0
   38.9938    3.0894    9.3766 C   0  0  1  0  0  0  0  0  0  0  0  0
   39.8484    1.9691    8.7617 C   0  0  1  0  0  0  0  0  0  0  0  0
   41.0211    1.6711    9.7273 C   0  0  2  0  0  0  0  0  0  0  0  0
   38.5949   -0.0641    9.6570 C   0  0  0  0  0  0  0  0  0  0  0  0
   41.9684    7.5764   11.6186 N   0  0  0  0  0  0  0  0  0  0  0  0
   38.9977    0.7709    8.4824 N   0  0  0  0  0  0  0  0  0  0  0  0
   40.2756    7.4298    9.2665 O   0  0  0  0  0  0  0  0  0  0  0  0
   39.1470    5.5023   10.2147 O   0  0  0  0  0  0  0  0  0  0  0  0
   41.8023    2.8725    9.9831 O   0  0  0  0  0  0  0  0  0  0  0  0
   38.5073    2.6155   10.6148 O   0  0  0  0  0  0  0  0  0  0  0  0
   41.9050    0.6800    9.2020 O   0  0  0  0  0  0  0  0  0  0  0  0
   42.7951    0.1230   10.1976 C   0  0  2  0  0  0  0  0  0  0  0  0
   44.0653   -0.5018    9.5978 C   0  0  1  0  0  0  0  0  0  0  0  0
   43.7330   -1.7944    8.8058 C   0  0  2  0  0  0  0  0  0  0  0  0
   43.0305   -2.7837    9.7072 C   0  0  1  0  0  0  0  0  0  0  0  0
   41.7432   -2.1367   10.2707 C   0  0  1  0  0  0  0  0  0  0  0  0
   40.9924   -3.0533   11.2341 C   0  0  0  0  0  0  0  0  0  0  0  0
   42.7237   -3.9994    8.9253 N   0  0  0  0  0  0  0  0  0  0  0  0
   42.0892   -0.9033   10.9997 O   0  0  0  0  0  0  0  0  0  0  0  0
   44.7114    0.4846    8.7801 O   0  0  0  0  0  0  0  0  0  0  0  0
   44.9454   -2.3907    8.3248 O   0  0  0  0  0  0  0  0  0  0  0  0
   41.7882   -3.2951   12.3638 O   0  0  0  0  0  0  0  0  0  0  0  0
   39.2945    7.7648    8.1532 C   0  0  1  0  0  0  0  0  0  0  0  0
   38.9452    6.4397    7.4404 C   0  0  1  0  0  0  0  0  0  0  0  0
   37.8944    6.6640    6.3261 C   0  0  2  0  0  0  0  0  0  0  0  0
   36.6221    7.2782    6.9219 C   0  0  1  0  0  0  0  0  0  0  0  0
   36.9518    8.6279    7.6092 C   0  0  0  0  0  0  0  0  0  0  0  0
   37.9801    8.3805    8.7179 C   0  0  2  0  0  0  0  0  0  0  0  0
   35.6263    7.5001    5.8498 N   0  0  0  0  0  0  0  0  0  0  0  0
   38.2501    9.6686    9.3509 N   0  0  0  0  0  0  0  0  0  0  0  0
   40.1424    5.8959    6.8431 O   0  0  0  0  0  0  0  0  0  0  0  0
   37.5878    5.3935    5.7123 O   0  0  0  0  0  0  0  0  0  0  0  0
  1  2  1  0  0  0  0
  1 12  1  6  0  0  0
  1 13  1  0  0  0  0
  2  3  1  0  0  0  0
  2 10  1  6  0  0  0
  4  3  1  6  0  0  0
  4  5  1  0  0  0  0
  4 14  1  0  0  0  0
  5  6  1  0  0  0  0
  5 13  1  1  0  0  0
  6  7  1  0  0  0  0
  6 15  1  1  0  0  0
  7  8  1  0  0  0  0
  7 11  1  1  0  0  0
  8 14  1  0  0  0  0
  8 16  1  6  0  0  0
  9 11  1  0  0  0  0
 17 16  1  6  0  0  0
 17 18  1  0  0  0  0
 17 24  1  0  0  0  0
 18 19  1  0  0  0  0
 18 25  1  6  0  0  0
 19 20  1  0  0  0  0
 19 26  1  1  0  0  0
 20 21  1  0  0  0  0
 20 23  1  6  0  0  0
 21 22  1  1  0  0  0
 21 24  1  0  0  0  0
 22 27  1  0  0  0  0
 28 12  1  1  0  0  0
 28 29  1  0  0  0  0
 28 33  1  0  0  0  0
 29 30  1  0  0  0  0
 29 36  1  6  0  0  0
 30 31  1  0  0  0  0
 30 37  1  1  0  0  0
 31 32  1  0  0  0  0
 31 34  1  6  0  0  0
 32 33  1  0  0  0  0
 33 35  1  6  0  0  0
M  END
>  <CHROM.1>
174.42030684,-75.32423654,-164.63748975,-157.70304623,64.08845904,-71.87493767
40.48250185,3.03480242,9.24567352,-2.11860078,0.65414709,-2.97181481

>  <Name>
1yrj_lig

>  <RI>
0

>  <Rbt.Current_Directory>
/home/itssahil/PROJECTS/Mol_Feturizer/New_Systems/rnas/1yrj

>  <Rbt.Executable>
rbdock ($Id: //depot/dev/client3/rdock/2013.1/src/exe/rbdock.cxx#4 $)

>  <Rbt.Library>
libRbt.so (2013.1, Build901 2013/11/27)

>  <Rbt.Parameter_File>
/export/apps/rDock/src/rDock_2013.1_src/data/scripts/dock_solv.prm

>  <Rbt.Receptor>
prm/pocket_docking_5.prm

>  <SCORE>
-29.3705

>  <SCORE.INTER>
-24.5485

>  <SCORE.INTER.CONST>
1

>  <SCORE.INTER.POLAR>
-2.45145

>  <SCORE.INTER.ROT>
6

>  <SCORE.INTER.SOLV>
21.552

>  <SCORE.INTER.VDW>
-22.9782

>  <SCORE.INTER.norm>
-0.663474

>  <SCORE.INTRA>
-4.82192

>  <SCORE.INTRA.DIHEDRAL>
-11.1823

>  <SCORE.INTRA.DIHEDRAL.0>
15.6389

>  <SCORE.INTRA.POLAR>
0

>  <SCORE.INTRA.POLAR.0>
0

>  <SCORE.INTRA.REPUL>
0

>  <SCORE.INTRA.REPUL.0>
0

>  <SCORE.INTRA.SOLV>
-1.07174

>  <SCORE.INTRA.SOLV.lig_0>
-90.9181

>  <SCORE.INTRA.VDW>
1.30511

>  <SCORE.INTRA.VDW.0>
-3.14158

>  <SCORE.INTRA.norm>
-0.130322

>  <SCORE.RESTR>
0

>  <SCORE.RESTR.CAVITY>
0

>  <SCORE.RESTR.norm>
0

>  <SCORE.SYSTEM>
0

>  <SCORE.SYSTEM.CONST>
0

>  <SCORE.SYSTEM.DIHEDRAL>
0

>  <SCORE.SYSTEM.SOLV>
0

>  <SCORE.SYSTEM.norm>
0

>  <SCORE.heavy>
37

>  <SCORE.norm>
-0.793797

>  <RMSD>
2.041

$$$$
1yrj_lig
 OpenBabel11021811423D
libRbt.so/2013.1/901 2013/11/27
 37 40  0  0  0  0  0  0  0  0999 V2000
   39.9829    6.7546   10.4136 C   0  0  1  0  0  0  0  0  0  0  0  0
   41.1898    6.4523   11.3233 C   0  0  1  0  0  0  0  0  0  0  0  0
   42.0276    5.2792   10.7902 C   0  0  0  0  0  0  0  0  0  0  0  0
   41.1286    4.0312   10.5903 C   0  0  1  0  0  0  0  0  0  0  0  0
   39.9665    4.3654    9.6359 C   0  0  1  0  0  0  0  0  0  0  0  0
   39.0713    3.0701    9.4387 C   0  0  1  0  0  0  0  0  0  0  0  0
   39.9269    1.9330    8.8572 C   0  0  1  0  0  0  0  0  0  0  0  0
   41.1047    1.6705    9.8269 C   0  0  2  0  0  0  0  0  0  0  0  0
   38.0965    0.7932    7.4945 C   0  0  0  0  0  0  0  0  0  0  0  0
   42.0405    7.6376   11.5197 N   0  0  0  0  0  0  0  0  0  0  0  0
   39.0790    0.7236    8.6210 N   0  0  0  0  0  0  0  0  0  0  0  0
   40.3383    7.4086    9.1811 O   0  0  0  0  0  0  0  0  0  0  0  0
   39.2200    5.5097   10.1968 O   0  0  0  0  0  0  0  0  0  0  0  0
   41.8830    2.8821   10.0399 O   0  0  0  0  0  0  0  0  0  0  0  0
   38.5916    2.6356   10.6940 O   0  0  0  0  0  0  0  0  0  0  0  0
   41.9897    0.6655    9.3306 O   0  0  0  0  0  0  0  0  0  0  0  0
   42.7410    0.0005   10.3731 C   0  0  2  0  0  0  0  0  0  0  0  0
   43.9894   -0.7304    9.8526 C   0  0  1  0  0  0  0  0  0  0  0  0
   43.5993   -1.9648    8.9969 C   0  0  2  0  0  0  0  0  0  0  0  0
   42.7366   -2.9026    9.8100 C   0  0  1  0  0  0  0  0  0  0  0  0
   41.4761   -2.1471   10.2937 C   0  0  1  0  0  0  0  0  0  0  0  0
   40.5676   -3.0093   11.1672 C   0  0  0  0  0  0  0  0  0  0  0  0
   42.3783   -4.0632    8.9686 N   0  0  0  0  0  0  0  0  0  0  0  0
   41.8793   -0.9714   11.0858 O   0  0  0  0  0  0  0  0  0  0  0  0
   44.7892    0.2079    9.1184 O   0  0  0  0  0  0  0  0  0  0  0  0
   44.7836   -2.6646    8.5912 O   0  0  0  0  0  0  0  0  0  0  0  0
   40.0027   -4.0299   10.3881 O   0  0  0  0  0  0  0  0  0  0  0  0
   39.3452    7.7329    8.0752 C   0  0  1  0  0  0  0  0  0  0  0  0
   38.9317    6.3929    7.4275 C   0  0  1  0  0  0  0  0  0  0  0  0
   37.8648    6.6091    6.3269 C   0  0  2  0  0  0  0  0  0  0  0  0
   36.6297    7.2952    6.9224 C   0  0  1  0  0  0  0  0  0  0  0  0
   37.0239    8.6595    7.5439 C   0  0  0  0  0  0  0  0  0  0  0  0
   38.0672    8.4206    8.6404 C   0  0  2  0  0  0  0  0  0  0  0  0
   35.6186    7.5089    5.8629 N   0  0  0  0  0  0  0  0  0  0  0  0
   38.3983    9.7233    9.2116 N   0  0  0  0  0  0  0  0  0  0  0  0
   40.0944    5.7799    6.8291 O   0  0  0  0  0  0  0  0  0  0  0  0
   37.4983    5.3263    5.7749 O   0  0  0  0  0  0  0  0  0  0  0  0
  1  2  1  0  0  0  0
  1 12  1  6  0  0  0
  1 13  1  0  0  0  0
  2  3  1  0  0  0  0
  2 10  1  6  0  0  0
  4  3  1  6  0  0  0
  4  5  1  0  0  0  0
  4 14  1  0  0  0  0
  5  6  1  0  0  0  0
  5 13  1  1  0  0  0
  6  7  1  0  0  0  0
  6 15  1  1  0  0  0
  7  8  1  0  0  0  0
  7 11  1  1  0  0  0
  8 14  1  0  0  0  0
  8 16  1  6  0  0  0
  9 11  1  0  0  0  0
 17 16  1  6  0  0  0
 17 18  1  0  0  0  0
 17 24  1  0  0  0  0
 18 19  1  0  0  0  0
 18 25  1  6  0  0  0
 19 20  1  0  0  0  0
 19 26  1  1  0  0  0
 20 21  1  0  0  0  0
 20 23  1  6  0  0  0
 21 22  1  1  0  0  0
 21 24  1  0  0  0  0
 22 27  1  0  0  0  0
 28 12  1  1  0  0  0
 28 29  1  0  0  0  0
 28 33  1  0  0  0  0
 29 30  1  0  0  0  0
 29 36  1  6  0  0  0
 30 31  1  0  0  0  0
 30 37  1  1  0  0  0
 31 32  1  0  0  0  0
 31 34  1  6  0  0  0
 32 33  1  0  0  0  0
 33 35  1  6  0  0  0
M  END
>  <CHROM.1>
175.90132545,71.16541160,-155.71932354,-161.28590476,-67.69717264,-70.43526098
40.39900213,2.99856210,9.16441209,-2.04848221,0.59600588,-3.02666459

>  <Name>
1yrj_lig

>  <RI>
0

>  <Rbt.Current_Directory>
/home/itssahil/PROJECTS/Mol_Feturizer/New_Systems/rnas/1yrj

>  <Rbt.Executable>
rbdock ($Id: //depot/dev/client3/rdock/2013.1/src/exe/rbdock.cxx#4 $)

>  <Rbt.Library>
libRbt.so (2013.1, Build901 2013/11/27)

>  <Rbt.Parameter_File>
/export/apps/rDock/src/rDock_2013.1_src/data/scripts/dock_solv.prm

>  <Rbt.Receptor>
prm/pocket_docking_5.prm

>  <SCORE>
-29.7135

>  <SCORE.INTER>
-23.9948

>  <SCORE.INTER.CONST>
1

>  <SCORE.INTER.POLAR>
-2.48977

>  <SCORE.INTER.ROT>
6

>  <SCORE.INTER.SOLV>
21.4196

>  <SCORE.INTER.VDW>
-22.4372

>  <SCORE.INTER.norm>
-0.648509

>  <SCORE.INTRA>
-5.71868

>  <SCORE.INTRA.DIHEDRAL>
-10.4981

>  <SCORE.INTRA.DIHEDRAL.0>
15.6389

>  <SCORE.INTRA.POLAR>
0

>  <SCORE.INTRA.POLAR.0>
0

>  <SCORE.INTRA.REPUL>
0

>  <SCORE.INTRA.REPUL.0>
0

>  <SCORE.INTRA.SOLV>
-0.79007

>  <SCORE.INTRA.SOLV.lig_0>
-90.9181

>  <SCORE.INTRA.VDW>
-0.0745869

>  <SCORE.INTRA.VDW.0>
-3.14158

>  <SCORE.INTRA.norm>
-0.154559

>  <SCORE.RESTR>
0

>  <SCORE.RESTR.CAVITY>
0

>  <SCORE.RESTR.norm>
0

>  <SCORE.SYSTEM>
0

>  <SCORE.SYSTEM.CONST>
0

>  <SCORE.SYSTEM.DIHEDRAL>
0

>  <SCORE.SYSTEM.SOLV>
0

>  <SCORE.SYSTEM.norm>
0

>  <SCORE.heavy>
37

>  <SCORE.norm>
-0.803068

>  <RMSD>
2.077

$$$$
1yrj_lig
 OpenBabel11021811423D
libRbt.so/2013.1/901 2013/11/27
 37 40  0  0  0  0  0  0  0  0999 V2000
   39.9357    6.6472   10.4361 C   0  0  1  0  0  0  0  0  0  0  0  0
   41.1273    6.3116   11.3543 C   0  0  1  0  0  0  0  0  0  0  0  0
   41.9557    5.1374   10.8090 C   0  0  0  0  0  0  0  0  0  0  0  0
   41.0426    3.9057   10.5750 C   0  0  1  0  0  0  0  0  0  0  0  0
   39.8967    4.2735    9.6134 C   0  0  1  0  0  0  0  0  0  0  0  0
   38.9867    2.9944    9.3811 C   0  0  1  0  0  0  0  0  0  0  0  0
   39.8340    1.8568    8.7884 C   0  0  1  0  0  0  0  0  0  0  0  0
   40.9963    1.5603    9.7669 C   0  0  2  0  0  0  0  0  0  0  0  0
   38.5584   -0.1545    9.7016 C   0  0  0  0  0  0  0  0  0  0  0  0
   41.9914    7.4813   11.5831 N   0  0  0  0  0  0  0  0  0  0  0  0
   38.9729    0.6637    8.5193 N   0  0  0  0  0  0  0  0  0  0  0  0
   40.3147    7.3193    9.2205 O   0  0  0  0  0  0  0  0  0  0  0  0
   39.1589    5.4172   10.1868 O   0  0  0  0  0  0  0  0  0  0  0  0
   41.7882    2.7569   10.0119 O   0  0  0  0  0  0  0  0  0  0  0  0
   38.4860    2.5430   10.6221 O   0  0  0  0  0  0  0  0  0  0  0  0
   41.8737    0.5528    9.2622 O   0  0  0  0  0  0  0  0  0  0  0  0
   42.7496   -0.0003   10.2724 C   0  0  2  0  0  0  0  0  0  0  0  0
   44.0043   -0.6710    9.6898 C   0  0  1  0  0  0  0  0  0  0  0  0
   43.6408   -1.9748    8.9306 C   0  0  2  0  0  0  0  0  0  0  0  0
   42.9141   -2.9235    9.8561 C   0  0  1  0  0  0  0  0  0  0  0  0
   41.6427   -2.2312   10.4018 C   0  0  1  0  0  0  0  0  0  0  0  0
   40.8695   -3.1044   11.3874 C   0  0  0  0  0  0  0  0  0  0  0  0
   42.5779   -4.1507    9.1049 N   0  0  0  0  0  0  0  0  0  0  0  0
   42.0186   -0.9885   11.0996 O   0  0  0  0  0  0  0  0  0  0  0  0
   44.6746    0.2783    8.8480 O   0  0  0  0  0  0  0  0  0  0  0  0
   44.8385   -2.6125    8.4659 O   0  0  0  0  0  0  0  0  0  0  0  0
   40.3708   -4.2327   10.7196 O   0  0  0  0  0  0  0  0  0  0  0  0
   39.3420    7.6649    8.1030 C   0  0  1  0  0  0  0  0  0  0  0  0
   38.9308    6.3365    7.4305 C   0  0  1  0  0  0  0  0  0  0  0  0
   37.8837    6.5745    6.3156 C   0  0  2  0  0  0  0  0  0  0  0  0
   36.6432    7.2606    6.9000 C   0  0  1  0  0  0  0  0  0  0  0  0
   37.0357    8.6138    7.5462 C   0  0  0  0  0  0  0  0  0  0  0  0
   38.0593    8.3534    8.6564 C   0  0  2  0  0  0  0  0  0  0  0  0
   35.6511    7.4951    5.8270 N   0  0  0  0  0  0  0  0  0  0  0  0
   38.3892    9.6461    9.2505 N   0  0  0  0  0  0  0  0  0  0  0  0
   40.0994    5.7240    6.8431 O   0  0  0  0  0  0  0  0  0  0  0  0
   37.5182    5.3016    5.7403 O   0  0  0  0  0  0  0  0  0  0  0  0
  1  2  1  0  0  0  0
  1 12  1  6  0  0  0
  1 13  1  0  0  0  0
  2  3  1  0  0  0  0
  2 10  1  6  0  0  0
  4  3  1  6  0  0  0
  4  5  1  0  0  0  0
  4 14  1  0  0  0  0
  5  6  1  0  0  0  0
  5 13  1  1  0  0  0
  6  7  1  0  0  0  0
  6 15  1  1  0  0  0
  7  8  1  0  0  0  0
  7 11  1  1  0  0  0
  8 14  1  0  0  0  0
  8 16  1  6  0  0  0
  9 11  1  0  0  0  0
 17 16  1  6  0  0  0
 17 18  1  0  0  0  0
 17 24  1  0  0  0  0
 18 19  1  0  0  0  0
 18 25  1  6  0  0  0
 19 20  1  0  0  0  0
 19 26  1  1  0  0  0
 20 21  1  0  0  0  0
 20 23  1  6  0  0  0
 21 22  1  1  0  0  0
 21 24  1  0  0  0  0
 22 27  1  0  0  0  0
 28 12  1  1  0  0  0
 28 29  1  0  0  0  0
 28 33  1  0  0  0  0
 29 30  1  0  0  0  0
 29 36  1  6  0  0  0
 30 31  1  0  0  0  0
 30 37  1  1  0  0  0
 31 32  1  0  0  0  0
 31 34  1  6  0  0  0
 32 33  1  0  0  0  0
 33 35  1  6  0  0  0
M  END
>  <CHROM.1>
175.24304912,-75.62291721,-164.58192329,-158.83191172,-65.18807435,-70.22255371
40.41967596,2.90630928,9.22215280,-2.04295824,0.56494392,-3.05034379

>  <Name>
1yrj_lig

>  <RI>
0

>  <Rbt.Current_Directory>
/home/itssahil/PROJECTS/Mol_Feturizer/New_Systems/rnas/1yrj

>  <Rbt.Executable>
rbdock ($Id: //depot/dev/client3/rdock/2013.1/src/exe/rbdock.cxx#4 $)

>  <Rbt.Library>
libRbt.so (2013.1, Build901 2013/11/27)

>  <Rbt.Parameter_File>
/export/apps/rDock/src/rDock_2013.1_src/data/scripts/dock_solv.prm

>  <Rbt.Receptor>
prm/pocket_docking_3.prm

>  <SCORE>
-28.7018

>  <SCORE.INTER>
-23.9906

>  <SCORE.INTER.CONST>
1

>  <SCORE.INTER.POLAR>
-2.45323

>  <SCORE.INTER.ROT>
6

>  <SCORE.INTER.SOLV>
21.3448

>  <SCORE.INTER.VDW>
-22.5312

>  <SCORE.INTER.norm>
-0.648394

>  <SCORE.INTRA>
-4.71125

>  <SCORE.INTRA.DIHEDRAL>
-11.5375

>  <SCORE.INTRA.DIHEDRAL.0>
15.6389

>  <SCORE.INTRA.POLAR>
0

>  <SCORE.INTRA.POLAR.0>
0

>  <SCORE.INTRA.REPUL>
0

>  <SCORE.INTRA.REPUL.0>
0

>  <SCORE.INTRA.SOLV>
-0.629409

>  <SCORE.INTRA.SOLV.lig_0>
-90.9181

>  <SCORE.INTRA.VDW>
1.37223

>  <SCORE.INTRA.VDW.0>
-3.14158

>  <SCORE.INTRA.norm>
-0.127331

>  <SCORE.RESTR>
0

>  <SCORE.RESTR.CAVITY>
0

>  <SCORE.RESTR.norm>
0

>  <SCORE.SYSTEM>
0

>  <SCORE.SYSTEM.CONST>
0

>  <SCORE.SYSTEM.DIHEDRAL>
0

>  <SCORE.SYSTEM.SOLV>
0

>  <SCORE.SYSTEM.norm>
0

>  <SCORE.heavy>
37

>  <SCORE.norm>
-0.775725

>  <RMSD>
2.080

$$$$
1yrj_lig
 OpenBabel11021811423D
libRbt.so/2013.1/901 2013/11/27
 37 40  0  0  0  0  0  0  0  0999 V2000
   39.4266    5.4618   10.2991 C   0  0  1  0  0  0  0  0  0  0  0  0
   40.7582    5.1815   11.0227 C   0  0  1  0  0  0  0  0  0  0  0  0
   41.5481    4.0490   10.3475 C   0  0  0  0  0  0  0  0  0  0  0  0
   40.6685    2.7757   10.2435 C   0  0  1  0  0  0  0  0  0  0  0  0
   39.3739    3.0904    9.4703 C   0  0  1  0  0  0  0  0  0  0  0  0
   38.4998    1.7700    9.3672 C   0  0  1  0  0  0  0  0  0  0  0  0
   39.2994    0.6751    8.6425 C   0  0  1  0  0  0  0  0  0  0  0  0
   40.6095    0.4323    9.4306 C   0  0  2  0  0  0  0  0  0  0  0  0
   37.5215   -0.6041    7.3351 C   0  0  0  0  0  0  0  0  0  0  0  0
   41.5915    6.3904   11.1284 N   0  0  0  0  0  0  0  0  0  0  0  0
   38.4641   -0.5571    8.4963 N   0  0  0  0  0  0  0  0  0  0  0  0
   39.5846    6.1534    9.0462 O   0  0  0  0  0  0  0  0  0  0  0  0
   38.6792    4.1966   10.1594 O   0  0  0  0  0  0  0  0  0  0  0  0
   41.3727    1.6647    9.5635 O   0  0  0  0  0  0  0  0  0  0  0  0
   38.2153    1.2930   10.6657 O   0  0  0  0  0  0  0  0  0  0  0  0
   41.4461   -0.5314    8.7895 O   0  0  0  0  0  0  0  0  0  0  0  0
   42.1218   -1.4102    9.7195 C   0  0  2  0  0  0  0  0  0  0  0  0
   43.4167   -0.8113   10.2922 C   0  0  1  0  0  0  0  0  0  0  0  0
   44.5155   -0.7065    9.2013 C   0  0  2  0  0  0  0  0  0  0  0  0
   44.7804   -2.0702    8.6054 C   0  0  1  0  0  0  0  0  0  0  0  0
   43.4669   -2.6325    8.0122 C   0  0  1  0  0  0  0  0  0  0  0  0
   43.6326   -4.0341    7.4292 C   0  0  0  0  0  0  0  0  0  0  0  0
   45.8253   -1.9375    7.5691 N   0  0  0  0  0  0  0  0  0  0  0  0
   42.4392   -2.7015    9.0664 O   0  0  0  0  0  0  0  0  0  0  0  0
   43.1066    0.4632   10.8740 O   0  0  0  0  0  0  0  0  0  0  0  0
   45.7300   -0.2157    9.7851 O   0  0  0  0  0  0  0  0  0  0  0  0
   42.4242   -4.4425    6.8453 O   0  0  0  0  0  0  0  0  0  0  0  0
   38.4770    6.3040    8.0142 C   0  0  1  0  0  0  0  0  0  0  0  0
   37.9265    7.7414    8.1439 C   0  0  1  0  0  0  0  0  0  0  0  0
   36.8326    8.0193    7.0845 C   0  0  2  0  0  0  0  0  0  0  0  0
   37.4027    7.8121    5.6763 C   0  0  1  0  0  0  0  0  0  0  0  0
   37.9259    6.3614    5.5198 C   0  0  0  0  0  0  0  0  0  0  0  0
   39.0176    6.1135    6.5660 C   0  0  2  0  0  0  0  0  0  0  0  0
   36.3490    8.0685    4.6691 N   0  0  0  0  0  0  0  0  0  0  0  0
   39.4957    4.7469    6.3749 N   0  0  0  0  0  0  0  0  0  0  0  0
   37.3499    7.9086    9.4575 O   0  0  0  0  0  0  0  0  0  0  0  0
   36.3729    9.3797    7.2352 O   0  0  0  0  0  0  0  0  0  0  0  0
  1  2  1  0  0  0  0
  1 12  1  6  0  0  0
  1 13  1  0  0  0  0
  2  3  1  0  0  0  0
  2 10  1  6  0  0  0
  4  3  1  6  0  0  0
  4  5  1  0  0  0  0
  4 14  1  0  0  0  0
  5  6  1  0  0  0  0
  5 13  1  1  0  0  0
  6  7  1  0  0  0  0
  6 15  1  1  0  0  0
  7  8  1  0  0  0  0
  7 11  1  1  0  0  0
  8 14  1  0  0  0  0
  8 16  1  6  0  0  0
  9 11  1  0  0  0  0
 17 16  1  6  0  0  0
 17 18  1  0  0  0  0
 17 24  1  0  0  0  0
 18 19  1  0  0  0  0
 18 25  1  6  0  0  0
 19 20  1  0  0  0  0
 19 26  1  1  0  0  0
 20 21  1  0  0  0  0
 20 23  1  6  0  0  0
 21 22  1  1  0  0  0
 21 24  1  0  0  0  0
 22 27  1  0  0  0  0
 28 12  1  1  0  0  0
 28 29  1  0  0  0  0
 28 33  1  0  0  0  0
 29 30  1  0  0  0  0
 29 36  1  1  0  0  0
 30 31  1  0  0  0  0
 30 37  1  6  0  0  0
 31 32  1  0  0  0  0
 31 34  1  6  0  0  0
 32 33  1  0  0  0  0
 33 35  1  1  0  0  0
M  END
>  <CHROM.1>
167.34184824,83.50687089,-141.85294432,-83.66222953,-176.65788204,102.40882910
40.42682168,2.49150827,8.66886698,-2.28783896,0.68481750,-2.75567367

>  <Name>
1yrj_lig

>  <RI>
0

>  <Rbt.Current_Directory>
/home/itssahil/PROJECTS/Mol_Feturizer/New_Systems/rnas/1yrj

>  <Rbt.Executable>
rbdock ($Id: //depot/dev/client3/rdock/2013.1/src/exe/rbdock.cxx#4 $)

>  <Rbt.Library>
libRbt.so (2013.1, Build901 2013/11/27)

>  <Rbt.Parameter_File>
/export/apps/rDock/src/rDock_2013.1_src/data/scripts/dock_solv.prm

>  <Rbt.Receptor>
prm/pocket_docking_5.prm

>  <SCORE>
-20.5628

>  <SCORE.INTER>
-19.8586

>  <SCORE.INTER.CONST>
1

>  <SCORE.INTER.POLAR>
-1.66647

>  <SCORE.INTER.ROT>
6

>  <SCORE.INTER.SOLV>
25.0409

>  <SCORE.INTER.VDW>
-23.6311

>  <SCORE.INTER.norm>
-0.53672

>  <SCORE.INTRA>
-0.704165

>  <SCORE.INTRA.DIHEDRAL>
-1.08824

>  <SCORE.INTRA.DIHEDRAL.0>
15.6389

>  <SCORE.INTRA.POLAR>
0

>  <SCORE.INTRA.POLAR.0>
0

>  <SCORE.INTRA.REPUL>
0

>  <SCORE.INTRA.REPUL.0>
0

>  <SCORE.INTRA.SOLV>
-1.00336

>  <SCORE.INTRA.SOLV.lig_0>
-90.9181

>  <SCORE.INTRA.VDW>
0.341633

>  <SCORE.INTRA.VDW.0>
-3.14158

>  <SCORE.INTRA.norm>
-0.0190315

>  <SCORE.RESTR>
0

>  <SCORE.RESTR.CAVITY>
0

>  <SCORE.RESTR.norm>
0

>  <SCORE.SYSTEM>
0

>  <SCORE.SYSTEM.CONST>
0

>  <SCORE.SYSTEM.DIHEDRAL>
0

>  <SCORE.SYSTEM.SOLV>
0

>  <SCORE.SYSTEM.norm>
0

>  <SCORE.heavy>
37

>  <SCORE.norm>
-0.555751

>  <RMSD>
2.082

$$$$
1yrj_lig
 OpenBabel11021811423D
libRbt.so/2013.1/901 2013/11/27
 37 40  0  0  0  0  0  0  0  0999 V2000
   39.9323    6.7324   10.4538 C   0  0  1  0  0  0  0  0  0  0  0  0
   41.1359    6.3836   11.3511 C   0  0  1  0  0  0  0  0  0  0  0  0
   41.9439    5.2028   10.7898 C   0  0  0  0  0  0  0  0  0  0  0  0
   41.0153    3.9803   10.5686 C   0  0  1  0  0  0  0  0  0  0  0  0
   39.8570    4.3609    9.6271 C   0  0  1  0  0  0  0  0  0  0  0  0
   38.9311    3.0910    9.4076 C   0  0  1  0  0  0  0  0  0  0  0  0
   39.7576    1.9467    8.7985 C   0  0  1  0  0  0  0  0  0  0  0  0
   40.9333    1.6371    9.7568 C   0  0  2  0  0  0  0  0  0  0  0  0
   39.3340   -0.2021    7.4911 C   0  0  0  0  0  0  0  0  0  0  0  0
   42.0147    7.5445   11.5677 N   0  0  0  0  0  0  0  0  0  0  0  0
   38.8808    0.7624    8.5416 N   0  0  0  0  0  0  0  0  0  0  0  0
   40.2973    7.4035    9.2333 O   0  0  0  0  0  0  0  0  0  0  0  0
   39.1398    5.5103   10.2151 O   0  0  0  0  0  0  0  0  0  0  0  0
   41.7404    2.8257    9.9909 O   0  0  0  0  0  0  0  0  0  0  0  0
   38.4471    2.6417   10.6559 O   0  0  0  0  0  0  0  0  0  0  0  0
   41.7925    0.6224    9.2355 O   0  0  0  0  0  0  0  0  0  0  0  0
   43.0507    0.5206    9.9426 C   0  0  2  0  0  0  0  0  0  0  0  0
   44.2268    0.1175    9.0382 C   0  0  1  0  0  0  0  0  0  0  0  0
   44.0871   -1.3522    8.5599 C   0  0  2  0  0  0  0  0  0  0  0  0
   43.9959   -2.2752    9.7535 C   0  0  1  0  0  0  0  0  0  0  0  0
   42.7873   -1.8629   10.6268 C   0  0  1  0  0  0  0  0  0  0  0  0
   42.6478   -2.7160   11.8856 C   0  0  0  0  0  0  0  0  0  0  0  0
   43.8593   -3.6637    9.2669 N   0  0  0  0  0  0  0  0  0  0  0  0
   42.9395   -0.4589   11.0486 O   0  0  0  0  0  0  0  0  0  0  0  0
   44.2911    1.0411    7.9419 O   0  0  0  0  0  0  0  0  0  0  0  0
   45.2355   -1.7178    7.7823 O   0  0  0  0  0  0  0  0  0  0  0  0
   41.5503   -2.2664   12.6348 O   0  0  0  0  0  0  0  0  0  0  0  0
   39.3128    7.7430    8.1242 C   0  0  1  0  0  0  0  0  0  0  0  0
   38.9274    6.4152    7.4355 C   0  0  1  0  0  0  0  0  0  0  0  0
   37.8709    6.6455    6.3279 C   0  0  2  0  0  0  0  0  0  0  0  0
   36.6184    7.2969    6.9262 C   0  0  1  0  0  0  0  0  0  0  0  0
   36.9844    8.6494    7.5892 C   0  0  0  0  0  0  0  0  0  0  0  0
   38.0179    8.3963    8.6918 C   0  0  2  0  0  0  0  0  0  0  0  0
   35.6171    7.5244    5.8603 N   0  0  0  0  0  0  0  0  0  0  0  0
   38.3224    9.6877    9.3020 N   0  0  0  0  0  0  0  0  0  0  0  0
   40.1065    5.8359    6.8353 O   0  0  0  0  0  0  0  0  0  0  0  0
   37.5304    5.3730    5.7369 O   0  0  0  0  0  0  0  0  0  0  0  0
  1  2  1  0  0  0  0
  1 12  1  6  0  0  0
  1 13  1  0  0  0  0
  2  3  1  0  0  0  0
  2 10  1  6  0  0  0
  4  3  1  6  0  0  0
  4  5  1  0  0  0  0
  4 14  1  0  0  0  0
  5  6  1  0  0  0  0
  5 13  1  1  0  0  0
  6  7  1  0  0  0  0
  6 15  1  1  0  0  0
  7  8  1  0  0  0  0
  7 11  1  1  0  0  0
  8 14  1  0  0  0  0
  8 16  1  6  0  0  0
  9 11  1  0  0  0  0
 17 16  1  6  0  0  0
 17 18  1  0  0  0  0
 17 24  1  0  0  0  0
 18 19  1  0  0  0  0
 18 25  1  6  0  0  0
 19 20  1  0  0  0  0
 19 26  1  1  0  0  0
 20 21  1  0  0  0  0
 20 23  1  6  0  0  0
 21 22  1  1  0  0  0
 21 24  1  0  0  0  0
 22 27  1  0  0  0  0
 28 12  1  1  0  0  0
 28 29  1  0  0  0  0
 28 33  1  0  0  0  0
 29 30  1  0  0  0  0
 29 36  1  6  0  0  0
 30 31  1  0  0  0  0
 30 37  1  1  0  0  0
 31 32  1  0  0  0  0
 31 34  1  6  0  0  0
 32 33  1  0  0  0  0
 33 35  1  6  0  0  0
M  END
>  <CHROM.1>
174.33846509,156.07410687,166.75382979,-146.66945139,178.85631683,-71.60122703
40.64651077,3.17746513,9.16153942,-2.32061173,0.79825409,-2.74671422

>  <Name>
1yrj_lig

>  <RI>
0

>  <Rbt.Current_Directory>
/home/itssahil/PROJECTS/Mol_Feturizer/New_Systems/rnas/1yrj

>  <Rbt.Executable>
rbdock ($Id: //depot/dev/client3/rdock/2013.1/src/exe/rbdock.cxx#4 $)

>  <Rbt.Library>
libRbt.so (2013.1, Build901 2013/11/27)

>  <Rbt.Parameter_File>
/export/apps/rDock/src/rDock_2013.1_src/data/scripts/dock_solv.prm

>  <Rbt.Receptor>
prm/pocket_docking_4.prm

>  <SCORE>
-29.5543

>  <SCORE.INTER>
-24.2509

>  <SCORE.INTER.CONST>
1

>  <SCORE.INTER.POLAR>
-2.65509

>  <SCORE.INTER.ROT>
6

>  <SCORE.INTER.SOLV>
22.6321

>  <SCORE.INTER.VDW>
-22.4609

>  <SCORE.INTER.norm>
-0.655428

>  <SCORE.INTRA>
-5.30346

>  <SCORE.INTRA.DIHEDRAL>
-9.27846

>  <SCORE.INTRA.DIHEDRAL.0>
15.6389

>  <SCORE.INTRA.POLAR>
0

>  <SCORE.INTRA.POLAR.0>
0

>  <SCORE.INTRA.REPUL>
0

>  <SCORE.INTRA.REPUL.0>
0

>  <SCORE.INTRA.SOLV>
-2.01537

>  <SCORE.INTRA.SOLV.lig_0>
-90.9181

>  <SCORE.INTRA.VDW>
0.34345

>  <SCORE.INTRA.VDW.0>
-3.14158

>  <SCORE.INTRA.norm>
-0.143337

>  <SCORE.RESTR>
0

>  <SCORE.RESTR.CAVITY>
0

>  <SCORE.RESTR.norm>
0

>  <SCORE.SYSTEM>
0

>  <SCORE.SYSTEM.CONST>
0

>  <SCORE.SYSTEM.DIHEDRAL>
0

>  <SCORE.SYSTEM.SOLV>
0

>  <SCORE.SYSTEM.norm>
0

>  <SCORE.heavy>
37

>  <SCORE.norm>
-0.798765

>  <RMSD>
2.093

$$$$
1yrj_lig
 OpenBabel11021811423D
libRbt.so/2013.1/901 2013/11/27
 37 40  0  0  0  0  0  0  0  0999 V2000
   38.2519    4.7558    8.6207 C   0  0  1  0  0  0  0  0  0  0  0  0
   39.4753    5.1961    9.4483 C   0  0  1  0  0  0  0  0  0  0  0  0
   40.6536    4.2221    9.2887 C   0  0  0  0  0  0  0  0  0  0  0  0
   40.2042    2.7809    9.6446 C   0  0  1  0  0  0  0  0  0  0  0  0
   39.0138    2.3656    8.7595 C   0  0  1  0  0  0  0  0  0  0  0  0
   38.5831    0.8851    9.1345 C   0  0  1  0  0  0  0  0  0  0  0  0
   39.7676   -0.0700    8.9153 C   0  0  1  0  0  0  0  0  0  0  0  0
   40.9497    0.4187    9.7872 C   0  0  2  0  0  0  0  0  0  0  0  0
   38.6076   -2.2087    8.1493 C   0  0  0  0  0  0  0  0  0  0  0  0
   39.8990    6.5663    9.1166 N   0  0  0  0  0  0  0  0  0  0  0  0
   39.3551   -1.4755    9.2183 N   0  0  0  0  0  0  0  0  0  0  0  0
   38.4020    4.9767    7.2058 O   0  0  0  0  0  0  0  0  0  0  0  0
   37.9308    3.3523    8.9457 O   0  0  0  0  0  0  0  0  0  0  0  0
   41.2962    1.7963    9.4690 O   0  0  0  0  0  0  0  0  0  0  0  0
   38.2446    0.8275   10.5044 O   0  0  0  0  0  0  0  0  0  0  0  0
   42.1183   -0.3798    9.5965 O   0  0  0  0  0  0  0  0  0  0  0  0
   43.1165   -0.1865   10.6259 C   0  0  2  0  0  0  0  0  0  0  0  0
   44.5189   -0.6610   10.2112 C   0  0  1  0  0  0  0  0  0  0  0  0
   44.5747   -2.2074   10.0937 C   0  0  2  0  0  0  0  0  0  0  0  0
   44.1683   -2.8380   11.4059 C   0  0  1  0  0  0  0  0  0  0  0  0
   42.7437   -2.3652   11.7804 C   0  0  1  0  0  0  0  0  0  0  0  0
   42.2697   -2.9183   13.1225 C   0  0  0  0  0  0  0  0  0  0  0  0
   44.2267   -4.3074   11.2614 N   0  0  0  0  0  0  0  0  0  0  0  0
   42.7187   -0.8939   11.8653 O   0  0  0  0  0  0  0  0  0  0  0  0
   44.8709   -0.0103    8.9817 O   0  0  0  0  0  0  0  0  0  0  0  0
   45.9120   -2.6195    9.7798 O   0  0  0  0  0  0  0  0  0  0  0  0
   42.1202   -4.3099   13.0272 O   0  0  0  0  0  0  0  0  0  0  0  0
   38.3775    6.3511    6.5539 C   0  0  1  0  0  0  0  0  0  0  0  0
   38.4887    6.1334    5.0287 C   0  0  1  0  0  0  0  0  0  0  0  0
   38.4049    7.4768    4.2643 C   0  0  2  0  0  0  0  0  0  0  0  0
   37.0825    8.1820    4.5880 C   0  0  1  0  0  0  0  0  0  0  0  0
   36.9739    8.4402    6.1125 C   0  0  0  0  0  0  0  0  0  0  0  0
   37.0426    7.0976    6.8478 C   0  0  2  0  0  0  0  0  0  0  0  0
   37.0139    9.4704    3.8628 N   0  0  0  0  0  0  0  0  0  0  0  0
   36.9193    7.3809    8.2752 N   0  0  0  0  0  0  0  0  0  0  0  0
   39.7584    5.5122    4.7325 O   0  0  0  0  0  0  0  0  0  0  0  0
   38.4889    7.2126    2.8473 O   0  0  0  0  0  0  0  0  0  0  0  0
  1  2  1  0  0  0  0
  1 12  1  6  0  0  0
  1 13  1  0  0  0  0
  2  3  1  0  0  0  0
  2 10  1  6  0  0  0
  4  3  1  6  0  0  0
  4  5  1  0  0  0  0
  4 14  1  0  0  0  0
  5  6  1  0  0  0  0
  5 13  1  1  0  0  0
  6  7  1  0  0  0  0
  6 15  1  1  0  0  0
  7  8  1  0  0  0  0
  7 11  1  1  0  0  0
  8 14  1  0  0  0  0
  8 16  1  6  0  0  0
  9 11  1  0  0  0  0
 17 16  1  6  0  0  0
 17 18  1  0  0  0  0
 17 24  1  0  0  0  0
 18 19  1  0  0  0  0
 18 25  1  6  0  0  0
 19 20  1  0  0  0  0
 19 26  1  1  0  0  0
 20 21  1  0  0  0  0
 20 23  1  6  0  0  0
 21 22  1  1  0  0  0
 21 24  1  0  0  0  0
 22 27  1  0  0  0  0
 28 12  1  1  0  0  0
 28 29  1  0  0  0  0
 28 33  1  0  0  0  0
 29 30  1  0  0  0  0
 29 36  1  1  0  0  0
 30 31  1  0  0  0  0
 30 37  1  6  0  0  0
 31 32  1  0  0  0  0
 31 34  1  6  0  0  0
 32 33  1  0  0  0  0
 33 35  1  1  0  0  0
M  END
>  <CHROM.1>
-71.68281239,80.80406401,-164.75559925,-161.18791318,-66.21413622,-176.76024980
40.36836392,2.21521757,8.68580185,2.04890741,0.32689468,-0.67503192

>  <Name>
1yrj_lig

>  <RI>
0

>  <Rbt.Current_Directory>
/home/itssahil/PROJECTS/Mol_Feturizer/New_Systems/rnas/1yrj

>  <Rbt.Executable>
rbdock ($Id: //depot/dev/client3/rdock/2013.1/src/exe/rbdock.cxx#4 $)

>  <Rbt.Library>
libRbt.so (2013.1, Build901 2013/11/27)

>  <Rbt.Parameter_File>
/export/apps/rDock/src/rDock_2013.1_src/data/scripts/dock_solv.prm

>  <Rbt.Receptor>
prm/pocket_docking_4.prm

>  <SCORE>
-28.0986

>  <SCORE.INTER>
-23.8788

>  <SCORE.INTER.CONST>
1

>  <SCORE.INTER.POLAR>
-2.00036

>  <SCORE.INTER.ROT>
6

>  <SCORE.INTER.SOLV>
20.0394

>  <SCORE.INTER.VDW>
-23.5311

>  <SCORE.INTER.norm>
-0.645372

>  <SCORE.INTRA>
-4.21986

>  <SCORE.INTRA.DIHEDRAL>
-11.6895

>  <SCORE.INTRA.DIHEDRAL.0>
15.6389

>  <SCORE.INTRA.POLAR>
0

>  <SCORE.INTRA.POLAR.0>
0

>  <SCORE.INTRA.REPUL>
0

>  <SCORE.INTRA.REPUL.0>
0

>  <SCORE.INTRA.SOLV>
2.36055

>  <SCORE.INTRA.SOLV.lig_0>
-90.9181

>  <SCORE.INTRA.VDW>
0.444614

>  <SCORE.INTRA.VDW.0>
-3.14158

>  <SCORE.INTRA.norm>
-0.11405

>  <SCORE.RESTR>
0

>  <SCORE.RESTR.CAVITY>
0

>  <SCORE.RESTR.norm>
0

>  <SCORE.SYSTEM>
0

>  <SCORE.SYSTEM.CONST>
0

>  <SCORE.SYSTEM.DIHEDRAL>
0

>  <SCORE.SYSTEM.SOLV>
0

>  <SCORE.SYSTEM.norm>
0

>  <SCORE.heavy>
37

>  <SCORE.norm>
-0.759423

>  <RMSD>
2.097

$$$$
1yrj_lig
 OpenBabel11021811423D
libRbt.so/2013.1/901 2013/11/27
 37 40  0  0  0  0  0  0  0  0999 V2000
   38.2968    4.7458    8.6485 C   0  0  1  0  0  0  0  0  0  0  0  0
   39.5722    5.1366    9.4204 C   0  0  1  0  0  0  0  0  0  0  0  0
   40.6982    4.1096    9.2208 C   0  0  0  0  0  0  0  0  0  0  0  0
   40.2005    2.6926    9.6081 C   0  0  1  0  0  0  0  0  0  0  0  0
   38.9566    2.3248    8.7771 C   0  0  1  0  0  0  0  0  0  0  0  0
   38.4764    0.8678    9.1831 C   0  0  1  0  0  0  0  0  0  0  0  0
   39.6070   -0.1410    8.9234 C   0  0  1  0  0  0  0  0  0  0  0  0
   40.8452    0.3004    9.7410 C   0  0  2  0  0  0  0  0  0  0  0  0
   38.3913   -2.2617    8.1945 C   0  0  0  0  0  0  0  0  0  0  0  0
   40.0423    6.4840    9.0591 N   0  0  0  0  0  0  0  0  0  0  0  0
   39.1453   -1.5243    9.2560 N   0  0  0  0  0  0  0  0  0  0  0  0
   38.3971    4.9495    7.2266 O   0  0  0  0  0  0  0  0  0  0  0  0
   37.9274    3.3604    8.9992 O   0  0  0  0  0  0  0  0  0  0  0  0
   41.2391    1.6587    9.3962 O   0  0  0  0  0  0  0  0  0  0  0  0
   38.1935    0.8353   10.5663 O   0  0  0  0  0  0  0  0  0  0  0  0
   41.9680   -0.5512    9.5090 O   0  0  0  0  0  0  0  0  0  0  0  0
   43.0313   -0.3700   10.4735 C   0  0  2  0  0  0  0  0  0  0  0  0
   44.3864   -0.9172    9.9962 C   0  0  1  0  0  0  0  0  0  0  0  0
   44.3711   -2.4674    9.9266 C   0  0  2  0  0  0  0  0  0  0  0  0
   44.0154   -3.0396   11.2797 C   0  0  1  0  0  0  0  0  0  0  0  0
   42.6357   -2.4943   11.7183 C   0  0  1  0  0  0  0  0  0  0  0  0
   42.2175   -2.9852   13.1025 C   0  0  0  0  0  0  0  0  0  0  0  0
   44.0043   -4.5139   11.1805 N   0  0  0  0  0  0  0  0  0  0  0  0
   42.6767   -1.0214   11.7560 O   0  0  0  0  0  0  0  0  0  0  0  0
   44.6935   -0.3201    8.7280 O   0  0  0  0  0  0  0  0  0  0  0  0
   45.6698   -2.9465    9.5515 O   0  0  0  0  0  0  0  0  0  0  0  0
   42.0648   -4.3795   13.0766 O   0  0  0  0  0  0  0  0  0  0  0  0
   38.3900    6.3183    6.5627 C   0  0  1  0  0  0  0  0  0  0  0  0
   38.5139    6.0864    5.0406 C   0  0  1  0  0  0  0  0  0  0  0  0
   38.4483    7.4238    4.2637 C   0  0  2  0  0  0  0  0  0  0  0  0
   37.1287    8.1424    4.5687 C   0  0  1  0  0  0  0  0  0  0  0  0
   37.0077    8.4147    6.0898 C   0  0  0  0  0  0  0  0  0  0  0  0
   37.0585    7.0781    6.8373 C   0  0  2  0  0  0  0  0  0  0  0  0
   37.0775    9.4249    3.8317 N   0  0  0  0  0  0  0  0  0  0  0  0
   36.9240    7.3749    8.2609 N   0  0  0  0  0  0  0  0  0  0  0  0
   39.7813    5.4524    4.7619 O   0  0  0  0  0  0  0  0  0  0  0  0
   38.5436    7.1465    2.8500 O   0  0  0  0  0  0  0  0  0  0  0  0
  1  2  1  0  0  0  0
  1 12  1  6  0  0  0
  1 13  1  0  0  0  0
  2  3  1  0  0  0  0
  2 10  1  6  0  0  0
  4  3  1  6  0  0  0
  4  5  1  0  0  0  0
  4 14  1  0  0  0  0
  5  6  1  0  0  0  0
  5 13  1  1  0  0  0
  6  7  1  0  0  0  0
  6 15  1  1  0  0  0
  7  8  1  0  0  0  0
  7 11  1  1  0  0  0
  8 14  1  0  0  0  0
  8 16  1  6  0  0  0
  9 11  1  0  0  0  0
 17 16  1  6  0  0  0
 17 18  1  0  0  0  0
 17 24  1  0  0  0  0
 18 19  1  0  0  0  0
 18 25  1  6  0  0  0
 19 20  1  0  0  0  0
 19 26  1  1  0  0  0
 20 21  1  0  0  0  0
 20 23  1  6  0  0  0
 21 22  1  1  0  0  0
 21 24  1  0  0  0  0
 22 27  1  0  0  0  0
 28 12  1  1  0  0  0
 28 29  1  0  0  0  0
 28 33  1  0  0  0  0
 29 30  1  0  0  0  0
 29 36  1  1  0  0  0
 30 31  1  0  0  0  0
 30 37  1  6  0  0  0
 31 32  1  0  0  0  0
 31 34  1  6  0  0  0
 32 33  1  0  0  0  0
 33 35  1  1  0  0  0
M  END
>  <CHROM.1>
-72.43637129,84.33633103,-166.31237752,-161.33096576,-63.52654199,-179.89842865
40.31483490,2.11837747,8.64556544,2.04468465,0.39680840,-0.69231168

>  <Name>
1yrj_lig

>  <RI>
0

>  <Rbt.Current_Directory>
/home/itssahil/PROJECTS/Mol_Feturizer/New_Systems/rnas/1yrj

>  <Rbt.Executable>
rbdock ($Id: //depot/dev/client3/rdock/2013.1/src/exe/rbdock.cxx#4 $)

>  <Rbt.Library>
libRbt.so (2013.1, Build901 2013/11/27)

>  <Rbt.Parameter_File>
/export/apps/rDock/src/rDock_2013.1_src/data/scripts/dock_solv.prm

>  <Rbt.Receptor>
prm/pocket_docking_4.prm

>  <SCORE>
-28.0441

>  <SCORE.INTER>
-23.5962

>  <SCORE.INTER.CONST>
1

>  <SCORE.INTER.POLAR>
-2.05412

>  <SCORE.INTER.ROT>
6

>  <SCORE.INTER.SOLV>
19.8545

>  <SCORE.INTER.VDW>
-23.1019

>  <SCORE.INTER.norm>
-0.637734

>  <SCORE.INTRA>
-4.44796

>  <SCORE.INTRA.DIHEDRAL>
-11.8719

>  <SCORE.INTRA.DIHEDRAL.0>
15.6389

>  <SCORE.INTRA.POLAR>
0

>  <SCORE.INTRA.POLAR.0>
0

>  <SCORE.INTRA.REPUL>
0

>  <SCORE.INTRA.REPUL.0>
0

>  <SCORE.INTRA.SOLV>
2.06635

>  <SCORE.INTRA.SOLV.lig_0>
-90.9181

>  <SCORE.INTRA.VDW>
0.454828

>  <SCORE.INTRA.VDW.0>
-3.14158

>  <SCORE.INTRA.norm>
-0.120215

>  <SCORE.RESTR>
0

>  <SCORE.RESTR.CAVITY>
0

>  <SCORE.RESTR.norm>
0

>  <SCORE.SYSTEM>
0

>  <SCORE.SYSTEM.CONST>
0

>  <SCORE.SYSTEM.DIHEDRAL>
0

>  <SCORE.SYSTEM.SOLV>
0

>  <SCORE.SYSTEM.norm>
0

>  <SCORE.heavy>
37

>  <SCORE.norm>
-0.757949

>  <RMSD>
2.097

$$$$
1yrj_lig
 OpenBabel11021811423D
libRbt.so/2013.1/901 2013/11/27
 37 40  0  0  0  0  0  0  0  0999 V2000
   39.9045    6.7267   10.4690 C   0  0  1  0  0  0  0  0  0  0  0  0
   41.1088    6.3749   11.3643 C   0  0  1  0  0  0  0  0  0  0  0  0
   41.9285    5.2097   10.7874 C   0  0  0  0  0  0  0  0  0  0  0  0
   41.0112    3.9827   10.5453 C   0  0  1  0  0  0  0  0  0  0  0  0
   39.8521    4.3674    9.6065 C   0  0  1  0  0  0  0  0  0  0  0  0
   38.9379    3.0930    9.3654 C   0  0  1  0  0  0  0  0  0  0  0  0
   39.7759    1.9652    8.7414 C   0  0  1  0  0  0  0  0  0  0  0  0
   40.9517    1.6514    9.6981 C   0  0  2  0  0  0  0  0  0  0  0  0
   39.4836   -0.2901    7.5861 C   0  0  0  0  0  0  0  0  0  0  0  0
   41.9769    7.5400   11.6007 N   0  0  0  0  0  0  0  0  0  0  0  0
   38.9102    0.7773    8.4642 N   0  0  0  0  0  0  0  0  0  0  0  0
   40.2668    7.4193    9.2598 O   0  0  0  0  0  0  0  0  0  0  0  0
   39.1233    5.5015   10.2098 O   0  0  0  0  0  0  0  0  0  0  0  0
   41.7479    2.8433    9.9522 O   0  0  0  0  0  0  0  0  0  0  0  0
   38.4545    2.6207   10.6055 O   0  0  0  0  0  0  0  0  0  0  0  0
   41.8211    0.6522    9.1639 O   0  0  0  0  0  0  0  0  0  0  0  0
   43.1101    0.6066    9.8197 C   0  0  2  0  0  0  0  0  0  0  0  0
   44.2435    0.1197    8.9021 C   0  0  1  0  0  0  0  0  0  0  0  0
   44.0807   -1.3856    8.5619 C   0  0  2  0  0  0  0  0  0  0  0  0
   44.0428   -2.1996    9.8350 C   0  0  1  0  0  0  0  0  0  0  0  0
   42.8755   -1.7062   10.7223 C   0  0  1  0  0  0  0  0  0  0  0  0
   42.7924   -2.4446   12.0563 C   0  0  0  0  0  0  0  0  0  0  0  0
   43.8828   -3.6249    9.4793 N   0  0  0  0  0  0  0  0  0  0  0  0
   43.0482   -0.2712   11.0115 O   0  0  0  0  0  0  0  0  0  0  0  0
   44.2589    0.9430    7.7270 O   0  0  0  0  0  0  0  0  0  0  0  0
   45.1922   -1.8240    7.7685 O   0  0  0  0  0  0  0  0  0  0  0  0
   41.6230   -2.0612   12.7298 O   0  0  0  0  0  0  0  0  0  0  0  0
   39.2806    7.7748    8.1573 C   0  0  1  0  0  0  0  0  0  0  0  0
   38.9885    6.4771    7.3720 C   0  0  1  0  0  0  0  0  0  0  0  0
   37.9371    6.7193    6.2621 C   0  0  2  0  0  0  0  0  0  0  0  0
   36.6377    7.2508    6.8787 C   0  0  1  0  0  0  0  0  0  0  0  0
   36.9093    8.5737    7.6395 C   0  0  0  0  0  0  0  0  0  0  0  0
   37.9392    8.3076    8.7424 C   0  0  2  0  0  0  0  0  0  0  0  0
   35.6410    7.4906    5.8112 N   0  0  0  0  0  0  0  0  0  0  0  0
   38.1540    9.5697    9.4453 N   0  0  0  0  0  0  0  0  0  0  0  0
   40.2102    6.0130    6.7572 O   0  0  0  0  0  0  0  0  0  0  0  0
   37.6849    5.4725    5.5790 O   0  0  0  0  0  0  0  0  0  0  0  0
  1  2  1  0  0  0  0
  1 12  1  6  0  0  0
  1 13  1  0  0  0  0
  2  3  1  0  0  0  0
  2 10  1  6  0  0  0
  4  3  1  6  0  0  0
  4  5  1  0  0  0  0
  4 14  1  0  0  0  0
  5  6  1  0  0  0  0
  5 13  1  1  0  0  0
  6  7  1  0  0  0  0
  6 15  1  1  0  0  0
  7  8  1  0  0  0  0
  7 11  1  1  0  0  0
  8 14  1  0  0  0  0
  8 16  1  6  0  0  0
  9 11  1  0  0  0  0
 17 16  1  6  0  0  0
 17 18  1  0  0  0  0
 17 24  1  0  0  0  0
 18 19  1  0  0  0  0
 18 25  1  6  0  0  0
 19 20  1  0  0  0  0
 19 26  1  6  0  0  0
 20 21  1  0  0  0  0
 20 23  1  6  0  0  0
 21 22  1  1  0  0  0
 21 24  1  0  0  0  0
 22 27  1  0  0  0  0
 28 12  1  1  0  0  0
 28 29  1  0  0  0  0
 28 33  1  0  0  0  0
 29 30  1  0  0  0  0
 29 36  1  6  0  0  0
 30 31  1  0  0  0  0
 30 37  1  1  0  0  0
 31 32  1  0  0  0  0
 31 34  1  6  0  0  0
 32 33  1  0  0  0  0
 33 35  1  6  0  0  0
M  END
>  <CHROM.1>
174.74384760,166.73750448,163.15936135,-150.91415932,-172.83452601,-76.20344666
40.66526318,3.20149617,9.15184523,-2.40575304,0.85985941,-2.64230928

>  <Name>
1yrj_lig

>  <RI>
0

>  <Rbt.Current_Directory>
/home/itssahil/PROJECTS/Mol_Feturizer/New_Systems/rnas/1yrj

>  <Rbt.Executable>
rbdock ($Id: //depot/dev/client3/rdock/2013.1/src/exe/rbdock.cxx#4 $)

>  <Rbt.Library>
libRbt.so (2013.1, Build901 2013/11/27)

>  <Rbt.Parameter_File>
/export/apps/rDock/src/rDock_2013.1_src/data/scripts/dock_solv.prm

>  <Rbt.Receptor>
prm/pocket_docking_3.prm

>  <SCORE>
-29.2487

>  <SCORE.INTER>
-24.3877

>  <SCORE.INTER.CONST>
1

>  <SCORE.INTER.POLAR>
-2.59758

>  <SCORE.INTER.ROT>
6

>  <SCORE.INTER.SOLV>
22.4796

>  <SCORE.INTER.VDW>
-22.6931

>  <SCORE.INTER.norm>
-0.659127

>  <SCORE.INTRA>
-4.86095

>  <SCORE.INTRA.DIHEDRAL>
-9.13227

>  <SCORE.INTRA.DIHEDRAL.0>
15.6389

>  <SCORE.INTRA.POLAR>
0

>  <SCORE.INTRA.POLAR.0>
0

>  <SCORE.INTRA.REPUL>
0

>  <SCORE.INTRA.REPUL.0>
0

>  <SCORE.INTRA.SOLV>
-2.01654

>  <SCORE.INTRA.SOLV.lig_0>
-90.9181

>  <SCORE.INTRA.VDW>
0.71345

>  <SCORE.INTRA.VDW.0>
-3.14158

>  <SCORE.INTRA.norm>
-0.131377

>  <SCORE.RESTR>
0

>  <SCORE.RESTR.CAVITY>
0

>  <SCORE.RESTR.norm>
0

>  <SCORE.SYSTEM>
0

>  <SCORE.SYSTEM.CONST>
0

>  <SCORE.SYSTEM.DIHEDRAL>
0

>  <SCORE.SYSTEM.SOLV>
0

>  <SCORE.SYSTEM.norm>
0

>  <SCORE.heavy>
37

>  <SCORE.norm>
-0.790504

>  <RMSD>
2.098

$$$$
1yrj_lig
 OpenBabel11021811423D
libRbt.so/2013.1/901 2013/11/27
 37 40  0  0  0  0  0  0  0  0999 V2000
   38.2782    4.7473    8.6400 C   0  0  1  0  0  0  0  0  0  0  0  0
   39.5073    5.1742    9.4663 C   0  0  1  0  0  0  0  0  0  0  0  0
   40.6770    4.1911    9.2999 C   0  0  0  0  0  0  0  0  0  0  0  0
   40.2166    2.7523    9.6514 C   0  0  1  0  0  0  0  0  0  0  0  0
   39.0206    2.3503    8.7677 C   0  0  1  0  0  0  0  0  0  0  0  0
   38.5785    0.8720    9.1380 C   0  0  1  0  0  0  0  0  0  0  0  0
   39.7545   -0.0920    8.9121 C   0  0  1  0  0  0  0  0  0  0  0  0
   40.9428    0.3834    9.7830 C   0  0  2  0  0  0  0  0  0  0  0  0
   38.5327   -2.2012    8.1603 C   0  0  0  0  0  0  0  0  0  0  0  0
   39.9416    6.5421    9.1389 N   0  0  0  0  0  0  0  0  0  0  0  0
   39.3310   -1.4952    9.2107 N   0  0  0  0  0  0  0  0  0  0  0  0
   38.4267    4.9725    7.2256 O   0  0  0  0  0  0  0  0  0  0  0  0
   37.9462    3.3452    8.9604 O   0  0  0  0  0  0  0  0  0  0  0  0
   41.2999    1.7593    9.4692 O   0  0  0  0  0  0  0  0  0  0  0  0
   38.2430    0.8119   10.5085 O   0  0  0  0  0  0  0  0  0  0  0  0
   42.1042   -0.4240    9.5862 O   0  0  0  0  0  0  0  0  0  0  0  0
   43.1085   -0.2396   10.6114 C   0  0  2  0  0  0  0  0  0  0  0  0
   44.5061   -0.7205   10.1883 C   0  0  1  0  0  0  0  0  0  0  0  0
   44.5527   -2.2668   10.0656 C   0  0  2  0  0  0  0  0  0  0  0  0
   44.1492   -2.8995   11.3777 C   0  0  1  0  0  0  0  0  0  0  0  0
   42.7291   -2.4199   11.7607 C   0  0  1  0  0  0  0  0  0  0  0  0
   42.2586   -2.9747   13.1033 C   0  0  0  0  0  0  0  0  0  0  0  0
   44.1987   -4.3687   11.2282 N   0  0  0  0  0  0  0  0  0  0  0  0
   42.7127   -0.9488   11.8504 O   0  0  0  0  0  0  0  0  0  0  0  0
   44.8558   -0.0678    8.9592 O   0  0  0  0  0  0  0  0  0  0  0  0
   45.8862   -2.6854    9.7438 O   0  0  0  0  0  0  0  0  0  0  0  0
   43.0830   -2.4829   14.1262 O   0  0  0  0  0  0  0  0  0  0  0  0
   38.3935    6.3482    6.5770 C   0  0  1  0  0  0  0  0  0  0  0  0
   38.5078    6.1349    5.0514 C   0  0  1  0  0  0  0  0  0  0  0  0
   38.4158    7.4796    4.2901 C   0  0  2  0  0  0  0  0  0  0  0  0
   37.0882    8.1750    4.6140 C   0  0  1  0  0  0  0  0  0  0  0  0
   36.9763    8.4288    6.1391 C   0  0  0  0  0  0  0  0  0  0  0  0
   37.0532    7.0849    6.8712 C   0  0  2  0  0  0  0  0  0  0  0  0
   37.0117    9.4646    3.8918 N   0  0  0  0  0  0  0  0  0  0  0  0
   36.9265    7.3640    8.2991 N   0  0  0  0  0  0  0  0  0  0  0  0
   39.7821    5.5231    4.7551 O   0  0  0  0  0  0  0  0  0  0  0  0
   38.5031    7.2193    2.8726 O   0  0  0  0  0  0  0  0  0  0  0  0
  1  2  1  0  0  0  0
  1 12  1  6  0  0  0
  1 13  1  0  0  0  0
  2  3  1  0  0  0  0
  2 10  1  6  0  0  0
  4  3  1  6  0  0  0
  4  5  1  0  0  0  0
  4 14  1  0  0  0  0
  5  6  1  0  0  0  0
  5 13  1  1  0  0  0
  6  7  1  0  0  0  0
  6 15  1  1  0  0  0
  7  8  1  0  0  0  0
  7 11  1  1  0  0  0
  8 14  1  0  0  0  0
  8 16  1  6  0  0  0
  9 11  1  0  0  0  0
 17 16  1  6  0  0  0
 17 18  1  0  0  0  0
 17 24  1  0  0  0  0
 18 19  1  0  0  0  0
 18 25  1  6  0  0  0
 19 20  1  0  0  0  0
 19 26  1  1  0  0  0
 20 21  1  0  0  0  0
 20 23  1  6  0  0  0
 21 22  1  1  0  0  0
 21 24  1  0  0  0  0
 22 27  1  0  0  0  0
 28 12  1  1  0  0  0
 28 29  1  0  0  0  0
 28 33  1  0  0  0  0
 29 30  1  0  0  0  0
 29 36  1  1  0  0  0
 30 31  1  0  0  0  0
 30 37  1  6  0  0  0
 31 32  1  0  0  0  0
 31 34  1  6  0  0  0
 32 33  1  0  0  0  0
 33 35  1  1  0  0  0
M  END
>  <CHROM.1>
-72.52767122,78.67975438,-164.95624145,-161.00535669,64.13092266,-176.84210360
40.39740883,2.24571736,8.72255103,2.08109319,0.42089351,-0.74853833

>  <Name>
1yrj_lig

>  <RI>
0

>  <Rbt.Current_Directory>
/home/itssahil/PROJECTS/Mol_Feturizer/New_Systems/rnas/1yrj

>  <Rbt.Executable>
rbdock ($Id: //depot/dev/client3/rdock/2013.1/src/exe/rbdock.cxx#4 $)

>  <Rbt.Library>
libRbt.so (2013.1, Build901 2013/11/27)

>  <Rbt.Parameter_File>
/export/apps/rDock/src/rDock_2013.1_src/data/scripts/dock_solv.prm

>  <Rbt.Receptor>
prm/pocket_docking_6.prm

>  <SCORE>
-28.4648

>  <SCORE.INTER>
-23.9358

>  <SCORE.INTER.CONST>
1

>  <SCORE.INTER.POLAR>
-2.03686

>  <SCORE.INTER.ROT>
6

>  <SCORE.INTER.SOLV>
20.1324

>  <SCORE.INTER.VDW>
-23.4784

>  <SCORE.INTER.norm>
-0.646913

>  <SCORE.INTRA>
-4.529

>  <SCORE.INTRA.DIHEDRAL>
-11.7283

>  <SCORE.INTRA.DIHEDRAL.0>
15.6389

>  <SCORE.INTRA.POLAR>
0

>  <SCORE.INTRA.POLAR.0>
0

>  <SCORE.INTRA.REPUL>
0

>  <SCORE.INTRA.REPUL.0>
0

>  <SCORE.INTRA.SOLV>
1.88

>  <SCORE.INTRA.SOLV.lig_0>
-90.9181

>  <SCORE.INTRA.VDW>
0.395134

>  <SCORE.INTRA.VDW.0>
-3.14158

>  <SCORE.INTRA.norm>
-0.122405

>  <SCORE.RESTR>
0

>  <SCORE.RESTR.CAVITY>
0

>  <SCORE.RESTR.norm>
0

>  <SCORE.SYSTEM>
0

>  <SCORE.SYSTEM.CONST>
0

>  <SCORE.SYSTEM.DIHEDRAL>
0

>  <SCORE.SYSTEM.SOLV>
0

>  <SCORE.SYSTEM.norm>
0

>  <SCORE.heavy>
37

>  <SCORE.norm>
-0.769318

>  <RMSD>
2.114

$$$$
1yrj_lig
 OpenBabel11021811423D
libRbt.so/2013.1/901 2013/11/27
 37 40  0  0  0  0  0  0  0  0999 V2000
   39.0084    5.8203   10.0811 C   0  0  1  0  0  0  0  0  0  0  0  0
   40.2529    5.7746   10.9892 C   0  0  1  0  0  0  0  0  0  0  0  0
   41.2663    4.7199   10.5169 C   0  0  0  0  0  0  0  0  0  0  0  0
   40.5796    3.3334   10.4086 C   0  0  1  0  0  0  0  0  0  0  0  0
   39.3739    3.4150    9.4534 C   0  0  1  0  0  0  0  0  0  0  0  0
   38.6984    1.9827    9.3506 C   0  0  1  0  0  0  0  0  0  0  0  0
   39.7235    0.9633    8.8276 C   0  0  1  0  0  0  0  0  0  0  0  0
   40.9332    0.9559    9.7935 C   0  0  2  0  0  0  0  0  0  0  0  0
   38.1263   -0.5529    7.5405 C   0  0  0  0  0  0  0  0  0  0  0  0
   40.9021    7.0912   11.0986 N   0  0  0  0  0  0  0  0  0  0  0  0
   39.0807   -0.3793    8.6798 N   0  0  0  0  0  0  0  0  0  0  0  0
   39.2471    6.4432    8.8051 O   0  0  0  0  0  0  0  0  0  0  0  0
   38.4553    4.4577    9.9536 O   0  0  0  0  0  0  0  0  0  0  0  0
   41.5068    2.2879    9.9189 O   0  0  0  0  0  0  0  0  0  0  0  0
   38.3017    1.5575   10.6376 O   0  0  0  0  0  0  0  0  0  0  0  0
   41.9662    0.0768    9.3468 O   0  0  0  0  0  0  0  0  0  0  0  0
   42.9885   -0.1566   10.3438 C   0  0  2  0  0  0  0  0  0  0  0  0
   44.3041   -0.6902    9.7539 C   0  0  1  0  0  0  0  0  0  0  0  0
   44.1334   -2.1390    9.2247 C   0  0  2  0  0  0  0  0  0  0  0  0
   43.6478   -3.0393   10.3376 C   0  0  1  0  0  0  0  0  0  0  0  0
   42.3097   -2.4932   10.8894 C   0  0  1  0  0  0  0  0  0  0  0  0
   41.7687   -3.3184   12.0549 C   0  0  0  0  0  0  0  0  0  0  0  0
   43.4907   -4.4078    9.8029 N   0  0  0  0  0  0  0  0  0  0  0  0
   42.4997   -1.1114   11.3657 O   0  0  0  0  0  0  0  0  0  0  0  0
   44.7394    0.2143    8.7285 O   0  0  0  0  0  0  0  0  0  0  0  0
   45.3944   -2.6317    8.7515 O   0  0  0  0  0  0  0  0  0  0  0  0
   40.7266   -2.6170   12.6792 O   0  0  0  0  0  0  0  0  0  0  0  0
   39.0125    7.9198    8.5243 C   0  0  1  0  0  0  0  0  0  0  0  0
   37.6896    8.3107    9.2194 C   0  0  1  0  0  0  0  0  0  0  0  0
   37.3928    9.8204    9.0489 C   0  0  2  0  0  0  0  0  0  0  0  0
   38.5440   10.6494    9.6308 C   0  0  1  0  0  0  0  0  0  0  0  0
   39.8728   10.2937    8.9164 C   0  0  0  0  0  0  0  0  0  0  0  0
   40.1551    8.8003    9.1115 C   0  0  2  0  0  0  0  0  0  0  0  0
   38.2589   12.0910    9.4545 N   0  0  0  0  0  0  0  0  0  0  0  0
   41.4198    8.5095    8.4415 N   0  0  0  0  0  0  0  0  0  0  0  0
   36.6070    7.5581    8.6299 O   0  0  0  0  0  0  0  0  0  0  0  0
   36.1626   10.1339    9.7366 O   0  0  0  0  0  0  0  0  0  0  0  0
  1  2  1  0  0  0  0
  1 12  1  6  0  0  0
  1 13  1  0  0  0  0
  2  3  1  0  0  0  0
  2 10  1  6  0  0  0
  4  3  1  6  0  0  0
  4  5  1  0  0  0  0
  4 14  1  0  0  0  0
  5  6  1  0  0  0  0
  5 13  1  1  0  0  0
  6  7  1  0  0  0  0
  6 15  1  1  0  0  0
  7  8  1  0  0  0  0
  7 11  1  1  0  0  0
  8 14  1  0  0  0  0
  8 16  1  6  0  0  0
  9 11  1  0  0  0  0
 17 16  1  6  0  0  0
 17 18  1  0  0  0  0
 17 24  1  0  0  0  0
 18 19  1  0  0  0  0
 18 25  1  6  0  0  0
 19 20  1  0  0  0  0
 19 26  1  1  0  0  0
 20 21  1  0  0  0  0
 20 23  1  6  0  0  0
 21 22  1  1  0  0  0
 21 24  1  0  0  0  0
 22 27  1  0  0  0  0
 28 12  1  1  0  0  0
 28 29  1  0  0  0  0
 28 33  1  0  0  0  0
 29 30  1  0  0  0  0
 29 36  1  6  0  0  0
 30 31  1  0  0  0  0
 30 37  1  1  0  0  0
 31 32  1  0  0  0  0
 31 34  1  6  0  0  0
 32 33  1  0  0  0  0
 33 35  1  6  0  0  0
M  END
>  <CHROM.1>
-92.88936836,73.02304456,-168.57577994,-160.71763976,167.56012688,-41.30826973
40.49642447,3.18328188,9.73338974,1.93591287,0.03051530,-0.08360376

>  <Name>
1yrj_lig

>  <RI>
0

>  <Rbt.Current_Directory>
/home/itssahil/PROJECTS/Mol_Feturizer/New_Systems/rnas/1yrj

>  <Rbt.Executable>
rbdock ($Id: //depot/dev/client3/rdock/2013.1/src/exe/rbdock.cxx#4 $)

>  <Rbt.Library>
libRbt.so (2013.1, Build901 2013/11/27)

>  <Rbt.Parameter_File>
/export/apps/rDock/src/rDock_2013.1_src/data/scripts/dock_solv.prm

>  <Rbt.Receptor>
prm/pocket_docking_4.prm

>  <SCORE>
-27.4308

>  <SCORE.INTER>
-26.1854

>  <SCORE.INTER.CONST>
1

>  <SCORE.INTER.POLAR>
-2.33125

>  <SCORE.INTER.ROT>
6

>  <SCORE.INTER.SOLV>
17.0228

>  <SCORE.INTER.VDW>
-22.9604

>  <SCORE.INTER.norm>
-0.707714

>  <SCORE.INTRA>
-1.24534

>  <SCORE.INTRA.DIHEDRAL>
-6.90613

>  <SCORE.INTRA.DIHEDRAL.0>
15.6389

>  <SCORE.INTRA.POLAR>
0

>  <SCORE.INTRA.POLAR.0>
0

>  <SCORE.INTRA.REPUL>
0

>  <SCORE.INTRA.REPUL.0>
0

>  <SCORE.INTRA.SOLV>
2.10323

>  <SCORE.INTRA.SOLV.lig_0>
-90.9181

>  <SCORE.INTRA.VDW>
1.15611

>  <SCORE.INTRA.VDW.0>
-3.14158

>  <SCORE.INTRA.norm>
-0.0336578

>  <SCORE.RESTR>
0

>  <SCORE.RESTR.CAVITY>
0

>  <SCORE.RESTR.norm>
0

>  <SCORE.SYSTEM>
0

>  <SCORE.SYSTEM.CONST>
0

>  <SCORE.SYSTEM.DIHEDRAL>
0

>  <SCORE.SYSTEM.SOLV>
0

>  <SCORE.SYSTEM.norm>
0

>  <SCORE.heavy>
37

>  <SCORE.norm>
-0.741372

>  <RMSD>
2.166

$$$$
1yrj_lig
 OpenBabel11021811423D
libRbt.so/2013.1/901 2013/11/27
 37 40  0  0  0  0  0  0  0  0999 V2000
   39.1507    5.3446   10.8504 C   0  0  1  0  0  0  0  0  0  0  0  0
   40.6223    5.2158   11.2902 C   0  0  1  0  0  0  0  0  0  0  0  0
   41.4362    4.3500   10.3153 C   0  0  0  0  0  0  0  0  0  0  0  0
   40.7614    2.9640   10.1443 C   0  0  1  0  0  0  0  0  0  0  0  0
   39.3110    3.1399    9.6560 C   0  0  1  0  0  0  0  0  0  0  0  0
   38.6490    1.7089    9.4771 C   0  0  1  0  0  0  0  0  0  0  0  0
   39.4572    0.8883    8.4588 C   0  0  1  0  0  0  0  0  0  0  0  0
   40.9143    0.7831    8.9710 C   0  0  2  0  0  0  0  0  0  0  0  0
   37.8943   -0.5737    7.0708 C   0  0  0  0  0  0  0  0  0  0  0  0
   41.2625    6.5305   11.4596 N   0  0  0  0  0  0  0  0  0  0  0  0
   38.8110   -0.4439    8.2464 N   0  0  0  0  0  0  0  0  0  0  0  0
   38.9596    6.2186    9.7222 O   0  0  0  0  0  0  0  0  0  0  0  0
   38.5960    3.9956   10.6245 O   0  0  0  0  0  0  0  0  0  0  0  0
   41.4880    2.1042    9.1823 O   0  0  0  0  0  0  0  0  0  0  0  0
   38.6928    1.0145   10.7061 O   0  0  0  0  0  0  0  0  0  0  0  0
   41.7537    0.0855    8.0500 O   0  0  0  0  0  0  0  0  0  0  0  0
   43.0996   -0.1142    8.5422 C   0  0  2  0  0  0  0  0  0  0  0  0
   44.0179   -0.8239    7.5338 C   0  0  1  0  0  0  0  0  0  0  0  0
   43.5981   -2.3053    7.3406 C   0  0  2  0  0  0  0  0  0  0  0  0
   43.6167   -3.0230    8.6708 C   0  0  1  0  0  0  0  0  0  0  0  0
   42.6621   -2.3036    9.6529 C   0  0  1  0  0  0  0  0  0  0  0  0
   42.6555   -2.9360   11.0428 C   0  0  0  0  0  0  0  0  0  0  0  0
   43.2089   -4.4268    8.4554 N   0  0  0  0  0  0  0  0  0  0  0  0
   43.0747   -0.8963    9.8002 O   0  0  0  0  0  0  0  0  0  0  0  0
   43.9917   -0.0875    6.3025 O   0  0  0  0  0  0  0  0  0  0  0  0
   44.5185   -2.9560    6.4538 O   0  0  0  0  0  0  0  0  0  0  0  0
   41.8702   -2.1575   11.9060 O   0  0  0  0  0  0  0  0  0  0  0  0
   38.9521    7.7370    9.8164 C   0  0  1  0  0  0  0  0  0  0  0  0
   39.6336    8.2756    8.5391 C   0  0  1  0  0  0  0  0  0  0  0  0
   39.6167    9.8231    8.5060 C   0  0  2  0  0  0  0  0  0  0  0  0
   38.1721   10.3326    8.5720 C   0  0  1  0  0  0  0  0  0  0  0  0
   37.4868    9.8297    9.8682 C   0  0  0  0  0  0  0  0  0  0  0  0
   37.5001    8.2975    9.8725 C   0  0  2  0  0  0  0  0  0  0  0  0
   38.1639   11.8125    8.5511 N   0  0  0  0  0  0  0  0  0  0  0  0
   36.8321    7.8639   11.0966 N   0  0  0  0  0  0  0  0  0  0  0  0
   41.0066    7.8282    8.5129 O   0  0  0  0  0  0  0  0  0  0  0  0
   40.2419   10.2698    7.2836 O   0  0  0  0  0  0  0  0  0  0  0  0
  1  2  1  0  0  0  0
  1 12  1  6  0  0  0
  1 13  1  0  0  0  0
  2  3  1  0  0  0  0
  2 10  1  6  0  0  0
  4  3  1  6  0  0  0
  4  5  1  0  0  0  0
  4 14  1  0  0  0  0
  5  6  1  0  0  0  0
  5 13  1  1  0  0  0
  6  7  1  0  0  0  0
  6 15  1  1  0  0  0
  7  8  1  0  0  0  0
  7 11  1  1  0  0  0
  8 14  1  0  0  0  0
  8 16  1  6  0  0  0
  9 11  1  0  0  0  0
 17 16  1  6  0  0  0
 17 18  1  0  0  0  0
 17 24  1  0  0  0  0
 18 19  1  0  0  0  0
 18 25  1  6  0  0  0
 19 20  1  0  0  0  0
 19 26  1  6  0  0  0
 20 21  1  0  0  0  0
 20 23  1  6  0  0  0
 21 22  1  1  0  0  0
 21 24  1  0  0  0  0
 22 27  1  0  0  0  0
 28 12  1  6  0  0  0
 28 29  1  0  0  0  0
 28 33  1  0  0  0  0
 29 30  1  0  0  0  0
 29 36  1  1  0  0  0
 30 31  1  0  0  0  0
 30 37  1  6  0  0  0
 31 32  1  0  0  0  0
 31 34  1  1  0  0  0
 32 33  1  0  0  0  0
 33 35  1  1  0  0  0
M  END
>  <CHROM.1>
-78.36622106,96.12894371,-175.80290893,-178.09946619,174.41880012,143.39237838
40.61052662,3.01813636,9.19068009,2.00402327,0.64538255,-0.20573542

>  <Name>
1yrj_lig

>  <RI>
0

>  <Rbt.Current_Directory>
/home/itssahil/PROJECTS/Mol_Feturizer/New_Systems/rnas/1yrj

>  <Rbt.Executable>
rbdock ($Id: //depot/dev/client3/rdock/2013.1/src/exe/rbdock.cxx#4 $)

>  <Rbt.Library>
libRbt.so (2013.1, Build901 2013/11/27)

>  <Rbt.Parameter_File>
/export/apps/rDock/src/rDock_2013.1_src/data/scripts/dock_solv.prm

>  <Rbt.Receptor>
prm/pocket_docking_8.prm

>  <SCORE>
-26.6571

>  <SCORE.INTER>
-22.6082

>  <SCORE.INTER.CONST>
1

>  <SCORE.INTER.POLAR>
-2.6218

>  <SCORE.INTER.ROT>
6

>  <SCORE.INTER.SOLV>
17.6293

>  <SCORE.INTER.VDW>
-19.8093

>  <SCORE.INTER.norm>
-0.611033

>  <SCORE.INTRA>
-4.04886

>  <SCORE.INTRA.DIHEDRAL>
-8.20093

>  <SCORE.INTRA.DIHEDRAL.0>
15.6389

>  <SCORE.INTRA.POLAR>
0

>  <SCORE.INTRA.POLAR.0>
0

>  <SCORE.INTRA.REPUL>
0

>  <SCORE.INTRA.REPUL.0>
0

>  <SCORE.INTRA.SOLV>
-0.354589

>  <SCORE.INTRA.SOLV.lig_0>
-90.9181

>  <SCORE.INTRA.VDW>
0.228902

>  <SCORE.INTRA.VDW.0>
-3.14158

>  <SCORE.INTRA.norm>
-0.109429

>  <SCORE.RESTR>
0

>  <SCORE.RESTR.CAVITY>
0

>  <SCORE.RESTR.norm>
0

>  <SCORE.SYSTEM>
0

>  <SCORE.SYSTEM.CONST>
0

>  <SCORE.SYSTEM.DIHEDRAL>
0

>  <SCORE.SYSTEM.SOLV>
0

>  <SCORE.SYSTEM.norm>
0

>  <SCORE.heavy>
37

>  <SCORE.norm>
-0.720462

>  <RMSD>
2.183

$$$$
1yrj_lig
 OpenBabel11021811423D
libRbt.so/2013.1/901 2013/11/27
 37 40  0  0  0  0  0  0  0  0999 V2000
   39.0759    6.0996   10.4891 C   0  0  1  0  0  0  0  0  0  0  0  0
   40.4087    5.9910   11.2555 C   0  0  1  0  0  0  0  0  0  0  0  0
   41.3672    4.9871   10.5954 C   0  0  0  0  0  0  0  0  0  0  0  0
   40.6730    3.6081   10.4464 C   0  0  1  0  0  0  0  0  0  0  0  0
   39.3738    3.7566    9.6321 C   0  0  1  0  0  0  0  0  0  0  0  0
   38.6915    2.3316    9.4837 C   0  0  1  0  0  0  0  0  0  0  0  0
   39.6562    1.3670    8.7749 C   0  0  1  0  0  0  0  0  0  0  0  0
   40.9604    1.2916    9.6054 C   0  0  2  0  0  0  0  0  0  0  0  0
   38.0216   -0.0855    7.4615 C   0  0  0  0  0  0  0  0  0  0  0  0
   41.0657    7.3000   11.4038 N   0  0  0  0  0  0  0  0  0  0  0  0
   39.0017    0.0354    8.5858 N   0  0  0  0  0  0  0  0  0  0  0  0
   39.1796    6.8262    9.2503 O   0  0  0  0  0  0  0  0  0  0  0  0
   38.5127    4.7472   10.3091 O   0  0  0  0  0  0  0  0  0  0  0  0
   41.5439    2.6139    9.7788 O   0  0  0  0  0  0  0  0  0  0  0  0
   38.4318    1.7997   10.7659 O   0  0  0  0  0  0  0  0  0  0  0  0
   41.9411    0.4606    8.9830 O   0  0  0  0  0  0  0  0  0  0  0  0
   43.2787    0.6773    9.4904 C   0  0  2  0  0  0  0  0  0  0  0  0
   44.3473   -0.1585    8.7672 C   0  0  1  0  0  0  0  0  0  0  0  0
   44.1948   -1.6675    9.0959 C   0  0  2  0  0  0  0  0  0  0  0  0
   44.2778   -1.8795   10.5902 C   0  0  1  0  0  0  0  0  0  0  0  0
   43.1728   -1.0498   11.2860 C   0  0  1  0  0  0  0  0  0  0  0  0
   43.2137   -1.1672   12.8079 C   0  0  0  0  0  0  0  0  0  0  0  0
   44.1249   -3.3220   10.8714 N   0  0  0  0  0  0  0  0  0  0  0  0
   43.3329    0.3738   10.9394 O   0  0  0  0  0  0  0  0  0  0  0  0
   44.2494    0.1028    7.3596 O   0  0  0  0  0  0  0  0  0  0  0  0
   45.2502   -2.4075    8.4669 O   0  0  0  0  0  0  0  0  0  0  0  0
   44.4521   -0.7058   13.2785 O   0  0  0  0  0  0  0  0  0  0  0  0
   39.4213    8.3257    9.1635 C   0  0  1  0  0  0  0  0  0  0  0  0
   39.7705    8.6460    7.6933 C   0  0  1  0  0  0  0  0  0  0  0  0
   39.9704   10.1667    7.4842 C   0  0  2  0  0  0  0  0  0  0  0  0
   38.6985   10.9224    7.8870 C   0  0  1  0  0  0  0  0  0  0  0  0
   38.3566   10.6391    9.3722 C   0  0  0  0  0  0  0  0  0  0  0  0
   38.1471    9.1320    9.5529 C   0  0  2  0  0  0  0  0  0  0  0  0
   38.9004   12.3759    7.6952 N   0  0  0  0  0  0  0  0  0  0  0  0
   37.8104    8.9088   10.9564 N   0  0  0  0  0  0  0  0  0  0  0  0
   40.9953    7.9666    7.3408 O   0  0  0  0  0  0  0  0  0  0  0  0
   40.2689   10.4104    6.0927 O   0  0  0  0  0  0  0  0  0  0  0  0
  1  2  1  0  0  0  0
  1 12  1  6  0  0  0
  1 13  1  0  0  0  0
  2  3  1  0  0  0  0
  2 10  1  6  0  0  0
  4  3  1  6  0  0  0
  4  5  1  0  0  0  0
  4 14  1  0  0  0  0
  5  6  1  0  0  0  0
  5 13  1  1  0  0  0
  6  7  1  0  0  0  0
  6 15  1  1  0  0  0
  7  8  1  0  0  0  0
  7 11  1  1  0  0  0
  8 14  1  0  0  0  0
  8 16  1  6  0  0  0
  9 11  1  0  0  0  0
 17 16  1  6  0  0  0
 17 18  1  0  0  0  0
 17 24  1  0  0  0  0
 18 19  1  0  0  0  0
 18 25  1  6  0  0  0
 19 20  1  0  0  0  0
 19 26  1  6  0  0  0
 20 21  1  0  0  0  0
 20 23  1  6  0  0  0
 21 22  1  1  0  0  0
 21 24  1  0  0  0  0
 22 27  1  0  0  0  0
 28 12  1  6  0  0  0
 28 29  1  0  0  0  0
 28 33  1  0  0  0  0
 29 30  1  0  0  0  0
 29 36  1  1  0  0  0
 30 31  1  0  0  0  0
 30 37  1  6  0  0  0
 31 32  1  0  0  0  0
 31 34  1  1  0  0  0
 32 33  1  0  0  0  0
 33 35  1  1  0  0  0
M  END
>  <CHROM.1>
-69.73075737,78.34734604,162.36975268,-176.74734849,60.17616590,167.88705080
40.95038217,3.71888232,9.53071229,1.97248831,0.37081079,-0.29323359

>  <Name>
1yrj_lig

>  <RI>
0

>  <Rbt.Current_Directory>
/home/itssahil/PROJECTS/Mol_Feturizer/New_Systems/rnas/1yrj

>  <Rbt.Executable>
rbdock ($Id: //depot/dev/client3/rdock/2013.1/src/exe/rbdock.cxx#4 $)

>  <Rbt.Library>
libRbt.so (2013.1, Build901 2013/11/27)

>  <Rbt.Parameter_File>
/export/apps/rDock/src/rDock_2013.1_src/data/scripts/dock_solv.prm

>  <Rbt.Receptor>
prm/pocket_docking_5.prm

>  <SCORE>
-25.2234

>  <SCORE.INTER>
-20.8855

>  <SCORE.INTER.CONST>
1

>  <SCORE.INTER.POLAR>
-0.956365

>  <SCORE.INTER.ROT>
6

>  <SCORE.INTER.SOLV>
13.5237

>  <SCORE.INTER.VDW>
-22.8437

>  <SCORE.INTER.norm>
-0.564473

>  <SCORE.INTRA>
-4.33788

>  <SCORE.INTRA.DIHEDRAL>
-12.6469

>  <SCORE.INTRA.DIHEDRAL.0>
15.6389

>  <SCORE.INTRA.POLAR>
0

>  <SCORE.INTRA.POLAR.0>
0

>  <SCORE.INTRA.REPUL>
0

>  <SCORE.INTRA.REPUL.0>
0

>  <SCORE.INTRA.SOLV>
1.22929

>  <SCORE.INTRA.SOLV.lig_0>
-90.9181

>  <SCORE.INTRA.VDW>
1.37092

>  <SCORE.INTRA.VDW.0>
-3.14158

>  <SCORE.INTRA.norm>
-0.11724

>  <SCORE.RESTR>
0

>  <SCORE.RESTR.CAVITY>
0

>  <SCORE.RESTR.norm>
0

>  <SCORE.SYSTEM>
0

>  <SCORE.SYSTEM.CONST>
0

>  <SCORE.SYSTEM.DIHEDRAL>
0

>  <SCORE.SYSTEM.SOLV>
0

>  <SCORE.SYSTEM.norm>
0

>  <SCORE.heavy>
37

>  <SCORE.norm>
-0.681713

>  <RMSD>
2.205

$$$$
1yrj_lig
 OpenBabel11021811423D
libRbt.so/2013.1/901 2013/11/27
 37 40  0  0  0  0  0  0  0  0999 V2000
   39.4505    5.3506    9.7574 C   0  0  1  0  0  0  0  0  0  0  0  0
   40.6216    5.1235   10.7333 C   0  0  1  0  0  0  0  0  0  0  0  0
   41.5075    3.9452   10.2984 C   0  0  0  0  0  0  0  0  0  0  0  0
   40.6454    2.6677   10.1241 C   0  0  1  0  0  0  0  0  0  0  0  0
   39.5203    2.9255    9.1039 C   0  0  1  0  0  0  0  0  0  0  0  0
   38.6628    1.6010    8.9348 C   0  0  1  0  0  0  0  0  0  0  0  0
   39.5679    0.4566    8.4506 C   0  0  1  0  0  0  0  0  0  0  0  0
   40.7064    0.2715    9.4831 C   0  0  2  0  0  0  0  0  0  0  0  0
   37.9464   -0.8585    6.9851 C   0  0  0  0  0  0  0  0  0  0  0  0
   41.4370    6.3370   10.9053 N   0  0  0  0  0  0  0  0  0  0  0  0
   38.7577   -0.7830    8.2402 N   0  0  0  0  0  0  0  0  0  0  0  0
   39.8466    5.9498    8.5095 O   0  0  0  0  0  0  0  0  0  0  0  0
   38.7250    4.0786    9.5719 O   0  0  0  0  0  0  0  0  0  0  0  0
   41.4482    1.5104    9.6671 O   0  0  0  0  0  0  0  0  0  0  0  0
   38.1368    1.2192   10.1886 O   0  0  0  0  0  0  0  0  0  0  0  0
   41.6342   -0.7360    9.0783 O   0  0  0  0  0  0  0  0  0  0  0  0
   42.5117   -1.1663   10.1452 C   0  0  2  0  0  0  0  0  0  0  0  0
   43.6587   -2.0696    9.6635 C   0  0  1  0  0  0  0  0  0  0  0  0
   43.1264   -3.4524    9.2023 C   0  0  2  0  0  0  0  0  0  0  0  0
   42.3685   -4.1142   10.3304 C   0  0  1  0  0  0  0  0  0  0  0  0
   41.2049   -3.1954   10.7722 C   0  0  1  0  0  0  0  0  0  0  0  0
   40.4118   -3.7667   11.9454 C   0  0  0  0  0  0  0  0  0  0  0  0
   41.8712   -5.4238    9.8603 N   0  0  0  0  0  0  0  0  0  0  0  0
   41.7400   -1.8857   11.1853 O   0  0  0  0  0  0  0  0  0  0  0  0
   44.3656   -1.3845    8.6194 O   0  0  0  0  0  0  0  0  0  0  0  0
   44.2269   -4.2940    8.8315 O   0  0  0  0  0  0  0  0  0  0  0  0
   39.3935   -2.8698   12.3012 O   0  0  0  0  0  0  0  0  0  0  0  0
   39.6302    7.4158    8.1653 C   0  0  1  0  0  0  0  0  0  0  0  0
   38.1114    7.6839    8.2510 C   0  0  1  0  0  0  0  0  0  0  0  0
   37.7903    9.1741    7.9816 C   0  0  2  0  0  0  0  0  0  0  0  0
   38.5267   10.0598    8.9936 C   0  0  1  0  0  0  0  0  0  0  0  0
   40.0561    9.8279    8.8930 C   0  0  0  0  0  0  0  0  0  0  0  0
   40.3525    8.3520    9.1789 C   0  0  2  0  0  0  0  0  0  0  0  0
   38.2242   11.4831    8.7234 N   0  0  0  0  0  0  0  0  0  0  0  0
   41.8000    8.1784    9.0925 N   0  0  0  0  0  0  0  0  0  0  0  0
   37.4341    6.8795    7.2610 O   0  0  0  0  0  0  0  0  0  0  0  0
   36.3649    9.3720    8.0985 O   0  0  0  0  0  0  0  0  0  0  0  0
  1  2  1  0  0  0  0
  1 12  1  6  0  0  0
  1 13  1  0  0  0  0
  2  3  1  0  0  0  0
  2 10  1  6  0  0  0
  4  3  1  6  0  0  0
  4  5  1  0  0  0  0
  4 14  1  0  0  0  0
  5  6  1  0  0  0  0
  5 13  1  1  0  0  0
  6  7  1  0  0  0  0
  6 15  1  1  0  0  0
  7  8  1  0  0  0  0
  7 11  1  1  0  0  0
  8 14  1  0  0  0  0
  8 16  1  6  0  0  0
  9 11  1  0  0  0  0
 17 16  1  6  0  0  0
 17 18  1  0  0  0  0
 17 24  1  0  0  0  0
 18 19  1  0  0  0  0
 18 25  1  6  0  0  0
 19 20  1  0  0  0  0
 19 26  1  1  0  0  0
 20 21  1  0  0  0  0
 20 23  1  6  0  0  0
 21 22  1  1  0  0  0
 21 24  1  0  0  0  0
 22 27  1  0  0  0  0
 28 12  1  1  0  0  0
 28 29  1  0  0  0  0
 28 33  1  0  0  0  0
 29 30  1  0  0  0  0
 29 36  1  6  0  0  0
 30 31  1  0  0  0  0
 30 37  1  1  0  0  0
 31 32  1  0  0  0  0
 31 34  1  6  0  0  0
 32 33  1  0  0  0  0
 33 35  1  6  0  0  0
M  END
>  <CHROM.1>
-102.89143876,78.09685237,-165.72417142,-170.30500934,178.98007836,-58.80474305
40.31119440,2.48457180,9.38873950,-1.83034391,0.17985485,3.08043906

>  <Name>
1yrj_lig

>  <RI>
0

>  <Rbt.Current_Directory>
/home/itssahil/PROJECTS/Mol_Feturizer/New_Systems/rnas/1yrj

>  <Rbt.Executable>
rbdock ($Id: //depot/dev/client3/rdock/2013.1/src/exe/rbdock.cxx#4 $)

>  <Rbt.Library>
libRbt.so (2013.1, Build901 2013/11/27)

>  <Rbt.Parameter_File>
/export/apps/rDock/src/rDock_2013.1_src/data/scripts/dock_solv.prm

>  <Rbt.Receptor>
prm/pocket_docking_5.prm

>  <SCORE>
-23.8373

>  <SCORE.INTER>
-21.6064

>  <SCORE.INTER.CONST>
1

>  <SCORE.INTER.POLAR>
-1.85359

>  <SCORE.INTER.ROT>
6

>  <SCORE.INTER.SOLV>
15.4508

>  <SCORE.INTER.VDW>
-20.9759

>  <SCORE.INTER.norm>
-0.583957

>  <SCORE.INTRA>
-2.2309

>  <SCORE.INTRA.DIHEDRAL>
-8.12039

>  <SCORE.INTRA.DIHEDRAL.0>
15.6389

>  <SCORE.INTRA.POLAR>
0

>  <SCORE.INTRA.POLAR.0>
0

>  <SCORE.INTRA.REPUL>
0

>  <SCORE.INTRA.REPUL.0>
0

>  <SCORE.INTRA.SOLV>
2.15584

>  <SCORE.INTRA.SOLV.lig_0>
-90.9181

>  <SCORE.INTRA.VDW>
0.751373

>  <SCORE.INTRA.VDW.0>
-3.14158

>  <SCORE.INTRA.norm>
-0.0602947

>  <SCORE.RESTR>
0

>  <SCORE.RESTR.CAVITY>
0

>  <SCORE.RESTR.norm>
0

>  <SCORE.SYSTEM>
0

>  <SCORE.SYSTEM.CONST>
0

>  <SCORE.SYSTEM.DIHEDRAL>
0

>  <SCORE.SYSTEM.SOLV>
0

>  <SCORE.SYSTEM.norm>
0

>  <SCORE.heavy>
37

>  <SCORE.norm>
-0.644252

>  <RMSD>
2.207

$$$$
1yrj_lig
 OpenBabel11021811423D
libRbt.so/2013.1/901 2013/11/27
 37 40  0  0  0  0  0  0  0  0999 V2000
   39.4672    5.8870   10.0898 C   0  0  1  0  0  0  0  0  0  0  0  0
   40.6803    5.6382   11.0073 C   0  0  1  0  0  0  0  0  0  0  0  0
   41.5377    4.4616   10.5145 C   0  0  0  0  0  0  0  0  0  0  0  0
   40.6603    3.1919   10.3607 C   0  0  1  0  0  0  0  0  0  0  0  0
   39.4913    3.4718    9.3974 C   0  0  1  0  0  0  0  0  0  0  0  0
   38.6185    2.1550    9.2479 C   0  0  1  0  0  0  0  0  0  0  0  0
   39.4930    1.0130    8.7055 C   0  0  1  0  0  0  0  0  0  0  0  0
   40.6765    0.8056    9.6816 C   0  0  2  0  0  0  0  0  0  0  0  0
   37.7697   -0.2546    7.3161 C   0  0  0  0  0  0  0  0  0  0  0  0
   41.5105    6.8442   11.1599 N   0  0  0  0  0  0  0  0  0  0  0  0
   38.6660   -0.2186    8.5139 N   0  0  0  0  0  0  0  0  0  0  0  0
   39.8095    6.5029    8.8342 O   0  0  0  0  0  0  0  0  0  0  0  0
   38.7257    4.6222    9.9187 O   0  0  0  0  0  0  0  0  0  0  0  0
   41.4339    2.0372    9.8499 O   0  0  0  0  0  0  0  0  0  0  0  0
   38.1481    1.7570   10.5187 O   0  0  0  0  0  0  0  0  0  0  0  0
   41.5781   -0.2009    9.2195 O   0  0  0  0  0  0  0  0  0  0  0  0
   42.4874   -0.6673   10.2439 C   0  0  2  0  0  0  0  0  0  0  0  0
   43.6818   -1.4572    9.6844 C   0  0  1  0  0  0  0  0  0  0  0  0
   43.2282   -2.8251    9.1088 C   0  0  2  0  0  0  0  0  0  0  0  0
   42.5189   -3.6236   10.1784 C   0  0  1  0  0  0  0  0  0  0  0  0
   41.3067   -2.8159   10.6995 C   0  0  1  0  0  0  0  0  0  0  0  0
   40.5572   -3.5303   11.8219 C   0  0  0  0  0  0  0  0  0  0  0  0
   42.0959   -4.9158    9.6001 N   0  0  0  0  0  0  0  0  0  0  0  0
   41.7670   -1.5165   11.2210 O   0  0  0  0  0  0  0  0  0  0  0  0
   44.3394   -0.6456    8.7005 O   0  0  0  0  0  0  0  0  0  0  0  0
   44.3734   -3.5657    8.6652 O   0  0  0  0  0  0  0  0  0  0  0  0
   39.4064   -2.7998   12.1533 O   0  0  0  0  0  0  0  0  0  0  0  0
   39.5561    7.9676    8.5102 C   0  0  1  0  0  0  0  0  0  0  0  0
   38.0430    8.2190    8.6928 C   0  0  1  0  0  0  0  0  0  0  0  0
   37.6896    9.7064    8.4502 C   0  0  2  0  0  0  0  0  0  0  0  0
   38.4791   10.5966    9.4173 C   0  0  1  0  0  0  0  0  0  0  0  0
   40.0014   10.3817    9.2194 C   0  0  0  0  0  0  0  0  0  0  0  0
   40.3310    8.9082    9.4800 C   0  0  2  0  0  0  0  0  0  0  0  0
   38.1449   12.0175    9.1725 N   0  0  0  0  0  0  0  0  0  0  0  0
   41.7719    8.7507    9.3017 N   0  0  0  0  0  0  0  0  0  0  0  0
   37.3131    7.4105    7.7443 O   0  0  0  0  0  0  0  0  0  0  0  0
   36.2724    9.8884    8.6577 O   0  0  0  0  0  0  0  0  0  0  0  0
  1  2  1  0  0  0  0
  1 12  1  6  0  0  0
  1 13  1  0  0  0  0
  2  3  1  0  0  0  0
  2 10  1  6  0  0  0
  4  3  1  6  0  0  0
  4  5  1  0  0  0  0
  4 14  1  0  0  0  0
  5  6  1  0  0  0  0
  5 13  1  1  0  0  0
  6  7  1  0  0  0  0
  6 15  1  1  0  0  0
  7  8  1  0  0  0  0
  7 11  1  1  0  0  0
  8 14  1  0  0  0  0
  8 16  1  6  0  0  0
  9 11  1  0  0  0  0
 17 16  1  6  0  0  0
 17 18  1  0  0  0  0
 17 24  1  0  0  0  0
 18 19  1  0  0  0  0
 18 25  1  6  0  0  0
 19 20  1  0  0  0  0
 19 26  1  1  0  0  0
 20 21  1  0  0  0  0
 20 23  1  6  0  0  0
 21 22  1  1  0  0  0
 21 24  1  0  0  0  0
 22 27  1  0  0  0  0
 28 12  1  1  0  0  0
 28 29  1  0  0  0  0
 28 33  1  0  0  0  0
 29 30  1  0  0  0  0
 29 36  1  6  0  0  0
 30 31  1  0  0  0  0
 30 37  1  1  0  0  0
 31 32  1  0  0  0  0
 31 34  1  6  0  0  0
 32 33  1  0  0  0  0
 33 35  1  6  0  0  0
M  END
>  <CHROM.1>
-104.43264038,76.48881662,-164.82794177,-164.76741147,-174.51589713,-57.10384627
40.30630036,3.00652223,9.59187180,-1.83504395,0.11287649,3.09957077

>  <Name>
1yrj_lig

>  <RI>
0

>  <Rbt.Current_Directory>
/home/itssahil/PROJECTS/Mol_Feturizer/New_Systems/rnas/1yrj

>  <Rbt.Executable>
rbdock ($Id: //depot/dev/client3/rdock/2013.1/src/exe/rbdock.cxx#4 $)

>  <Rbt.Library>
libRbt.so (2013.1, Build901 2013/11/27)

>  <Rbt.Parameter_File>
/export/apps/rDock/src/rDock_2013.1_src/data/scripts/dock_solv.prm

>  <Rbt.Receptor>
prm/pocket_docking_4.prm

>  <SCORE>
-24.9539

>  <SCORE.INTER>
-22.9283

>  <SCORE.INTER.CONST>
1

>  <SCORE.INTER.POLAR>
-1.85359

>  <SCORE.INTER.ROT>
6

>  <SCORE.INTER.SOLV>
16.792

>  <SCORE.INTER.VDW>
-22.3042

>  <SCORE.INTER.norm>
-0.619684

>  <SCORE.INTRA>
-2.02564

>  <SCORE.INTRA.DIHEDRAL>
-7.05865

>  <SCORE.INTRA.DIHEDRAL.0>
15.6389

>  <SCORE.INTRA.POLAR>
0

>  <SCORE.INTRA.POLAR.0>
0

>  <SCORE.INTRA.REPUL>
0

>  <SCORE.INTRA.REPUL.0>
0

>  <SCORE.INTRA.SOLV>
1.94651

>  <SCORE.INTRA.SOLV.lig_0>
-90.9181

>  <SCORE.INTRA.VDW>
0.530428

>  <SCORE.INTRA.VDW.0>
-3.14158

>  <SCORE.INTRA.norm>
-0.054747

>  <SCORE.RESTR>
0

>  <SCORE.RESTR.CAVITY>
0

>  <SCORE.RESTR.norm>
0

>  <SCORE.SYSTEM>
0

>  <SCORE.SYSTEM.CONST>
0

>  <SCORE.SYSTEM.DIHEDRAL>
0

>  <SCORE.SYSTEM.SOLV>
0

>  <SCORE.SYSTEM.norm>
0

>  <SCORE.heavy>
37

>  <SCORE.norm>
-0.674431

>  <RMSD>
2.231

$$$$
1yrj_lig
 OpenBabel11021811423D
libRbt.so/2013.1/901 2013/11/27
 37 40  0  0  0  0  0  0  0  0999 V2000
   38.2161    4.8405    8.5663 C   0  0  1  0  0  0  0  0  0  0  0  0
   39.5011    5.3019    9.2814 C   0  0  1  0  0  0  0  0  0  0  0  0
   40.6527    4.3024    9.0884 C   0  0  0  0  0  0  0  0  0  0  0  0
   40.2122    2.8883    9.5485 C   0  0  1  0  0  0  0  0  0  0  0  0
   38.9563    2.4483    8.7725 C   0  0  1  0  0  0  0  0  0  0  0  0
   38.5352    0.9955    9.2523 C   0  0  1  0  0  0  0  0  0  0  0  0
   39.6891    0.0118    8.9985 C   0  0  1  0  0  0  0  0  0  0  0  0
   40.9366    0.5245    9.7583 C   0  0  2  0  0  0  0  0  0  0  0  0
   40.0347   -2.5064    8.7843 C   0  0  0  0  0  0  0  0  0  0  0  0
   39.9170    6.6469    8.8509 N   0  0  0  0  0  0  0  0  0  0  0  0
   39.2819   -1.3700    9.4015 N   0  0  0  0  0  0  0  0  0  0  0  0
   38.2671    4.9878    7.1349 O   0  0  0  0  0  0  0  0  0  0  0  0
   37.9018    3.4603    8.9845 O   0  0  0  0  0  0  0  0  0  0  0  0
   41.2764    1.8787    9.3463 O   0  0  0  0  0  0  0  0  0  0  0  0
   38.2953    1.0120   10.6439 O   0  0  0  0  0  0  0  0  0  0  0  0
   42.0785   -0.3012    9.5260 O   0  0  0  0  0  0  0  0  0  0  0  0
   43.2777    0.1877   10.1713 C   0  0  2  0  0  0  0  0  0  0  0  0
   44.5685   -0.4211    9.5994 C   0  0  1  0  0  0  0  0  0  0  0  0
   44.6848   -1.9262    9.9592 C   0  0  2  0  0  0  0  0  0  0  0  0
   44.6355   -2.1017   11.4598 C   0  0  1  0  0  0  0  0  0  0  0  0
   43.3138   -1.5067   12.0006 C   0  0  1  0  0  0  0  0  0  0  0  0
   43.2014   -1.5979   13.5207 C   0  0  0  0  0  0  0  0  0  0  0  0
   44.7435   -3.5423   11.7702 N   0  0  0  0  0  0  0  0  0  0  0  0
   43.2240   -0.0838   11.6267 O   0  0  0  0  0  0  0  0  0  0  0  0
   44.5834   -0.1994    8.1818 O   0  0  0  0  0  0  0  0  0  0  0  0
   45.9326   -2.4428    9.4764 O   0  0  0  0  0  0  0  0  0  0  0  0
   43.0197   -2.9374   13.8957 O   0  0  0  0  0  0  0  0  0  0  0  0
   38.3241    6.3302    6.4213 C   0  0  1  0  0  0  0  0  0  0  0  0
   38.4919    6.0375    4.9139 C   0  0  1  0  0  0  0  0  0  0  0  0
   38.4934    7.3459    4.0867 C   0  0  2  0  0  0  0  0  0  0  0  0
   37.1868    8.1138    4.3190 C   0  0  1  0  0  0  0  0  0  0  0  0
   37.0231    8.4468    5.8240 C   0  0  0  0  0  0  0  0  0  0  0  0
   37.0079    7.1384    6.6214 C   0  0  2  0  0  0  0  0  0  0  0  0
   37.1996    9.3685    3.5341 N   0  0  0  0  0  0  0  0  0  0  0  0
   36.8348    7.4926    8.0276 N   0  0  0  0  0  0  0  0  0  0  0  0
   39.7480    5.3566    4.7029 O   0  0  0  0  0  0  0  0  0  0  0  0
   38.6276    7.0128    2.6882 O   0  0  0  0  0  0  0  0  0  0  0  0
  1  2  1  0  0  0  0
  1 12  1  6  0  0  0
  1 13  1  0  0  0  0
  2  3  1  0  0  0  0
  2 10  1  6  0  0  0
  4  3  1  6  0  0  0
  4  5  1  0  0  0  0
  4 14  1  0  0  0  0
  5  6  1  0  0  0  0
  5 13  1  1  0  0  0
  6  7  1  0  0  0  0
  6 15  1  1  0  0  0
  7  8  1  0  0  0  0
  7 11  1  1  0  0  0
  8 14  1  0  0  0  0
  8 16  1  6  0  0  0
  9 11  1  0  0  0  0
 17 16  1  6  0  0  0
 17 18  1  0  0  0  0
 17 24  1  0  0  0  0
 18 19  1  0  0  0  0
 18 25  1  6  0  0  0
 19 20  1  0  0  0  0
 19 26  1  1  0  0  0
 20 21  1  0  0  0  0
 20 23  1  6  0  0  0
 21 22  1  1  0  0  0
 21 24  1  0  0  0  0
 22 27  1  0  0  0  0
 28 12  1  1  0  0  0
 28 29  1  0  0  0  0
 28 33  1  0  0  0  0
 29 30  1  0  0  0  0
 29 36  1  1  0  0  0
 30 31  1  0  0  0  0
 30 37  1  6  0  0  0
 31 32  1  0  0  0  0
 31 34  1  6  0  0  0
 32 33  1  0  0  0  0
 33 35  1  1  0  0  0
M  END
>  <CHROM.1>
-66.63365785,157.99400989,177.20693868,-162.44095024,-70.35354505,175.13585674
40.51532336,2.41135160,8.62563137,2.14565434,0.52568209,-0.87125891

>  <Name>
1yrj_lig

>  <RI>
0

>  <Rbt.Current_Directory>
/home/itssahil/PROJECTS/Mol_Feturizer/New_Systems/rnas/1yrj

>  <Rbt.Executable>
rbdock ($Id: //depot/dev/client3/rdock/2013.1/src/exe/rbdock.cxx#4 $)

>  <Rbt.Library>
libRbt.so (2013.1, Build901 2013/11/27)

>  <Rbt.Parameter_File>
/export/apps/rDock/src/rDock_2013.1_src/data/scripts/dock_solv.prm

>  <Rbt.Receptor>
prm/pocket_docking_5.prm

>  <SCORE>
-24.3768

>  <SCORE.INTER>
-19.4652

>  <SCORE.INTER.CONST>
1

>  <SCORE.INTER.POLAR>
-1.15105

>  <SCORE.INTER.ROT>
6

>  <SCORE.INTER.SOLV>
20.0112

>  <SCORE.INTER.VDW>
-23.4104

>  <SCORE.INTER.norm>
-0.526087

>  <SCORE.INTRA>
-4.91157

>  <SCORE.INTRA.DIHEDRAL>
-13.0176

>  <SCORE.INTRA.DIHEDRAL.0>
15.6389

>  <SCORE.INTRA.POLAR>
0

>  <SCORE.INTRA.POLAR.0>
0

>  <SCORE.INTRA.REPUL>
0

>  <SCORE.INTRA.REPUL.0>
0

>  <SCORE.INTRA.SOLV>
2.09861

>  <SCORE.INTRA.SOLV.lig_0>
-90.9181

>  <SCORE.INTRA.VDW>
0.547936

>  <SCORE.INTRA.VDW.0>
-3.14158

>  <SCORE.INTRA.norm>
-0.132745

>  <SCORE.RESTR>
0

>  <SCORE.RESTR.CAVITY>
0

>  <SCORE.RESTR.norm>
0

>  <SCORE.SYSTEM>
0

>  <SCORE.SYSTEM.CONST>
0

>  <SCORE.SYSTEM.DIHEDRAL>
0

>  <SCORE.SYSTEM.SOLV>
0

>  <SCORE.SYSTEM.norm>
0

>  <SCORE.heavy>
37

>  <SCORE.norm>
-0.658832

>  <RMSD>
2.310

$$$$
1yrj_lig
 OpenBabel11021811423D
libRbt.so/2013.1/901 2013/11/27
 37 40  0  0  0  0  0  0  0  0999 V2000
   39.4096    6.0359   10.0167 C   0  0  1  0  0  0  0  0  0  0  0  0
   40.5789    5.8413   11.0017 C   0  0  1  0  0  0  0  0  0  0  0  0
   41.4710    4.6550   10.6024 C   0  0  0  0  0  0  0  0  0  0  0  0
   40.6148    3.3694   10.4618 C   0  0  1  0  0  0  0  0  0  0  0  0
   39.4914    3.5937    9.4318 C   0  0  1  0  0  0  0  0  0  0  0  0
   38.6400    2.2613    9.2977 C   0  0  1  0  0  0  0  0  0  0  0  0
   39.5513    1.1076    8.8482 C   0  0  1  0  0  0  0  0  0  0  0  0
   40.6877    0.9565    9.8884 C   0  0  2  0  0  0  0  0  0  0  0  0
   37.9509   -0.2615    7.4091 C   0  0  0  0  0  0  0  0  0  0  0  0
   41.3888    7.0626   11.1418 N   0  0  0  0  0  0  0  0  0  0  0  0
   38.7468   -0.1408    8.6705 N   0  0  0  0  0  0  0  0  0  0  0  0
   39.8067    6.6015    8.7536 O   0  0  0  0  0  0  0  0  0  0  0  0
   38.6900    4.7561    9.8651 O   0  0  0  0  0  0  0  0  0  0  0  0
   41.4238    2.2033   10.0396 O   0  0  0  0  0  0  0  0  0  0  0  0
   38.1122    1.9126   10.5603 O   0  0  0  0  0  0  0  0  0  0  0  0
   41.6208   -0.0580    9.5146 O   0  0  0  0  0  0  0  0  0  0  0  0
   41.0235   -1.3713    9.4054 C   0  0  2  0  0  0  0  0  0  0  0  0
   41.8222   -2.4660   10.1315 C   0  0  1  0  0  0  0  0  0  0  0  0
   43.1711   -2.7427    9.4158 C   0  0  2  0  0  0  0  0  0  0  0  0
   42.9196   -3.1356    7.9780 C   0  0  1  0  0  0  0  0  0  0  0  0
   42.1413   -2.0029    7.2676 C   0  0  1  0  0  0  0  0  0  0  0  0
   41.8006   -2.3376    5.8172 C   0  0  0  0  0  0  0  0  0  0  0  0
   44.2200   -3.3874    7.3232 N   0  0  0  0  0  0  0  0  0  0  0  0
   40.8763   -1.7509    7.9809 O   0  0  0  0  0  0  0  0  0  0  0  0
   42.0049   -2.0622   11.4963 O   0  0  0  0  0  0  0  0  0  0  0  0
   43.8548   -3.8182   10.0737 O   0  0  0  0  0  0  0  0  0  0  0  0
   41.1768   -1.2335    5.2176 O   0  0  0  0  0  0  0  0  0  0  0  0
   39.0626    7.7317    8.0582 C   0  0  1  0  0  0  0  0  0  0  0  0
   39.8446    8.0656    6.7686 C   0  0  1  0  0  0  0  0  0  0  0  0
   39.1279    9.1659    5.9488 C   0  0  2  0  0  0  0  0  0  0  0  0
   37.7098    8.7090    5.5866 C   0  0  1  0  0  0  0  0  0  0  0  0
   36.9011    8.4055    6.8737 C   0  0  0  0  0  0  0  0  0  0  0  0
   37.6188    7.3039    7.6607 C   0  0  2  0  0  0  0  0  0  0  0  0
   37.0267    9.7697    4.8127 N   0  0  0  0  0  0  0  0  0  0  0  0
   36.8193    7.0350    8.8529 N   0  0  0  0  0  0  0  0  0  0  0  0
   41.1614    8.5397    7.1252 O   0  0  0  0  0  0  0  0  0  0  0  0
   39.8863    9.4197    4.7467 O   0  0  0  0  0  0  0  0  0  0  0  0
  1  2  1  0  0  0  0
  1 12  1  6  0  0  0
  1 13  1  0  0  0  0
  2  3  1  0  0  0  0
  2 10  1  6  0  0  0
  4  3  1  6  0  0  0
  4  5  1  0  0  0  0
  4 14  1  0  0  0  0
  5  6  1  0  0  0  0
  5 13  1  1  0  0  0
  6  7  1  0  0  0  0
  6 15  1  1  0  0  0
  7  8  1  0  0  0  0
  7 11  1  1  0  0  0
  8 14  1  0  0  0  0
  8 16  1  6  0  0  0
  9 11  1  0  0  0  0
 17 16  1  6  0  0  0
 17 18  1  0  0  0  0
 17 24  1  0  0  0  0
 18 19  1  0  0  0  0
 18 25  1  1  0  0  0
 19 20  1  0  0  0  0
 19 26  1  1  0  0  0
 20 21  1  0  0  0  0
 20 23  1  6  0  0  0
 21 22  1  6  0  0  0
 21 24  1  0  0  0  0
 22 27  1  0  0  0  0
 28 12  1  6  0  0  0
 28 29  1  0  0  0  0
 28 33  1  0  0  0  0
 29 30  1  0  0  0  0
 29 36  1  1  0  0  0
 30 31  1  0  0  0  0
 30 37  1  6  0  0  0
 31 32  1  0  0  0  0
 31 34  1  1  0  0  0
 32 33  1  0  0  0  0
 33 35  1  1  0  0  0
M  END
>  <CHROM.1>
-134.53622643,78.73988473,-61.06454538,-132.06576717,-176.14675550,178.00366245
40.24540551,2.87149983,8.48771346,-2.90560396,1.25819752,-1.96211722

>  <Name>
1yrj_lig

>  <RI>
0

>  <Rbt.Current_Directory>
/home/itssahil/PROJECTS/Mol_Feturizer/New_Systems/rnas/1yrj

>  <Rbt.Executable>
rbdock ($Id: //depot/dev/client3/rdock/2013.1/src/exe/rbdock.cxx#4 $)

>  <Rbt.Library>
libRbt.so (2013.1, Build901 2013/11/27)

>  <Rbt.Parameter_File>
/export/apps/rDock/src/rDock_2013.1_src/data/scripts/dock_solv.prm

>  <Rbt.Receptor>
prm/pocket_docking_8.prm

>  <SCORE>
-21.8794

>  <SCORE.INTER>
-21.5738

>  <SCORE.INTER.CONST>
1

>  <SCORE.INTER.POLAR>
-1.85359

>  <SCORE.INTER.ROT>
6

>  <SCORE.INTER.SOLV>
19.4351

>  <SCORE.INTER.VDW>
-22.2823

>  <SCORE.INTER.norm>
-0.583076

>  <SCORE.INTRA>
-0.305579

>  <SCORE.INTRA.DIHEDRAL>
-2.61775

>  <SCORE.INTRA.DIHEDRAL.0>
15.6389

>  <SCORE.INTRA.POLAR>
0

>  <SCORE.INTRA.POLAR.0>
0

>  <SCORE.INTRA.REPUL>
0

>  <SCORE.INTRA.REPUL.0>
0

>  <SCORE.INTRA.SOLV>
0.199598

>  <SCORE.INTRA.SOLV.lig_0>
-90.9181

>  <SCORE.INTRA.VDW>
0.903496

>  <SCORE.INTRA.VDW.0>
-3.14158

>  <SCORE.INTRA.norm>
-0.0082589

>  <SCORE.RESTR>
0

>  <SCORE.RESTR.CAVITY>
0

>  <SCORE.RESTR.norm>
0

>  <SCORE.SYSTEM>
0

>  <SCORE.SYSTEM.CONST>
0

>  <SCORE.SYSTEM.DIHEDRAL>
0

>  <SCORE.SYSTEM.SOLV>
0

>  <SCORE.SYSTEM.norm>
0

>  <SCORE.heavy>
37

>  <SCORE.norm>
-0.591335

>  <RMSD>
2.313

$$$$
1yrj_lig
 OpenBabel11021811423D
libRbt.so/2013.1/901 2013/11/27
 37 40  0  0  0  0  0  0  0  0999 V2000
   39.0800    5.7886   10.1146 C   0  0  1  0  0  0  0  0  0  0  0  0
   40.2628    5.7379   11.1014 C   0  0  1  0  0  0  0  0  0  0  0  0
   41.3356    4.7311   10.6563 C   0  0  0  0  0  0  0  0  0  0  0  0
   40.6983    3.3327   10.4469 C   0  0  1  0  0  0  0  0  0  0  0  0
   39.5562    3.4222    9.4170 C   0  0  1  0  0  0  0  0  0  0  0  0
   38.9311    1.9781    9.2119 C   0  0  1  0  0  0  0  0  0  0  0  0
   40.0177    1.0090    8.7184 C   0  0  1  0  0  0  0  0  0  0  0  0
   41.1609    0.9932    9.7621 C   0  0  2  0  0  0  0  0  0  0  0  0
   38.8619   -1.0609    9.6599 C   0  0  0  0  0  0  0  0  0  0  0  0
   40.8647    7.0655   11.3067 N   0  0  0  0  0  0  0  0  0  0  0  0
   39.4256   -0.3428    8.4743 N   0  0  0  0  0  0  0  0  0  0  0  0
   39.3840    6.4704    8.8834 O   0  0  0  0  0  0  0  0  0  0  0  0
   38.5766    4.4184    9.8959 O   0  0  0  0  0  0  0  0  0  0  0  0
   41.6858    2.3335    9.9790 O   0  0  0  0  0  0  0  0  0  0  0  0
   38.4631    1.4890   10.4514 O   0  0  0  0  0  0  0  0  0  0  0  0
   42.2463    0.1612    9.3509 O   0  0  0  0  0  0  0  0  0  0  0  0
   41.8917   -1.2389    9.2636 C   0  0  2  0  0  0  0  0  0  0  0  0
   42.4011   -2.0715   10.4514 C   0  0  1  0  0  0  0  0  0  0  0  0
   43.9473   -2.2012   10.4220 C   0  0  2  0  0  0  0  0  0  0  0  0
   44.3869   -2.8190    9.1144 C   0  0  1  0  0  0  0  0  0  0  0  0
   43.8852   -1.9437    7.9416 C   0  0  1  0  0  0  0  0  0  0  0  0
   44.2448   -2.5220    6.5748 C   0  0  0  0  0  0  0  0  0  0  0  0
   45.8608   -2.9248    9.1145 N   0  0  0  0  0  0  0  0  0  0  0  0
   42.4177   -1.8238    8.0082 O   0  0  0  0  0  0  0  0  0  0  0  0
   41.9304   -1.4647   11.6636 O   0  0  0  0  0  0  0  0  0  0  0  0
   44.3814   -3.0441   11.4981 O   0  0  0  0  0  0  0  0  0  0  0  0
   45.6363   -2.4801    6.4019 O   0  0  0  0  0  0  0  0  0  0  0  0
   38.4511    6.5101    7.6824 C   0  0  1  0  0  0  0  0  0  0  0  0
   38.1570    7.9967    7.3834 C   0  0  1  0  0  0  0  0  0  0  0  0
   37.2636    8.1490    6.1285 C   0  0  2  0  0  0  0  0  0  0  0  0
   37.9489    7.5066    4.9166 C   0  0  1  0  0  0  0  0  0  0  0  0
   38.2169    6.0043    5.1886 C   0  0  0  0  0  0  0  0  0  0  0  0
   39.1152    5.8777    6.4235 C   0  0  2  0  0  0  0  0  0  0  0  0
   37.0847    7.6459    3.7232 N   0  0  0  0  0  0  0  0  0  0  0  0
   39.3585    4.4533    6.6355 N   0  0  0  0  0  0  0  0  0  0  0  0
   37.4694    8.5777    8.5128 O   0  0  0  0  0  0  0  0  0  0  0  0
   37.0419    9.5543    5.8821 O   0  0  0  0  0  0  0  0  0  0  0  0
  1  2  1  0  0  0  0
  1 12  1  6  0  0  0
  1 13  1  0  0  0  0
  2  3  1  0  0  0  0
  2 10  1  6  0  0  0
  4  3  1  6  0  0  0
  4  5  1  0  0  0  0
  4 14  1  0  0  0  0
  5  6  1  0  0  0  0
  5 13  1  1  0  0  0
  6  7  1  0  0  0  0
  6 15  1  1  0  0  0
  7  8  1  0  0  0  0
  7 11  1  1  0  0  0
  8 14  1  0  0  0  0
  8 16  1  6  0  0  0
  9 11  1  0  0  0  0
 17 16  1  1  0  0  0
 17 18  1  0  0  0  0
 17 24  1  0  0  0  0
 18 19  1  0  0  0  0
 18 25  1  1  0  0  0
 19 20  1  0  0  0  0
 19 26  1  1  0  0  0
 20 21  1  0  0  0  0
 20 23  1  1  0  0  0
 21 22  1  6  0  0  0
 21 24  1  0  0  0  0
 22 27  1  0  0  0  0
 28 12  1  1  0  0  0
 28 29  1  0  0  0  0
 28 33  1  0  0  0  0
 29 30  1  0  0  0  0
 29 36  1  1  0  0  0
 30 31  1  0  0  0  0
 30 37  1  6  0  0  0
 31 32  1  0  0  0  0
 31 34  1  6  0  0  0
 32 33  1  0  0  0  0
 33 35  1  1  0  0  0
M  END
>  <CHROM.1>
172.20752946,-63.52707537,-65.08688274,-102.90647762,-66.94636333,121.69834823
40.59750057,2.54400731,8.67784694,2.93524265,1.05327480,-1.55408367

>  <Name>
1yrj_lig

>  <RI>
0

>  <Rbt.Current_Directory>
/home/itssahil/PROJECTS/Mol_Feturizer/New_Systems/rnas/1yrj

>  <Rbt.Executable>
rbdock ($Id: //depot/dev/client3/rdock/2013.1/src/exe/rbdock.cxx#4 $)

>  <Rbt.Library>
libRbt.so (2013.1, Build901 2013/11/27)

>  <Rbt.Parameter_File>
/export/apps/rDock/src/rDock_2013.1_src/data/scripts/dock_solv.prm

>  <Rbt.Receptor>
prm/pocket_docking_3.prm

>  <SCORE>
-18.9557

>  <SCORE.INTER>
-22.9106

>  <SCORE.INTER.CONST>
1

>  <SCORE.INTER.POLAR>
-1.85359

>  <SCORE.INTER.ROT>
6

>  <SCORE.INTER.SOLV>
17.3892

>  <SCORE.INTER.VDW>
-22.4915

>  <SCORE.INTER.norm>
-0.619205

>  <SCORE.INTRA>
3.95484

>  <SCORE.INTRA.DIHEDRAL>
-1.93385

>  <SCORE.INTRA.DIHEDRAL.0>
15.6389

>  <SCORE.INTRA.POLAR>
0

>  <SCORE.INTRA.POLAR.0>
0

>  <SCORE.INTRA.REPUL>
0

>  <SCORE.INTRA.REPUL.0>
0

>  <SCORE.INTRA.SOLV>
2.43592

>  <SCORE.INTRA.SOLV.lig_0>
-90.9181

>  <SCORE.INTRA.VDW>
3.7038

>  <SCORE.INTRA.VDW.0>
-3.14158

>  <SCORE.INTRA.norm>
0.106887

>  <SCORE.RESTR>
0

>  <SCORE.RESTR.CAVITY>
0

>  <SCORE.RESTR.norm>
0

>  <SCORE.SYSTEM>
0

>  <SCORE.SYSTEM.CONST>
0

>  <SCORE.SYSTEM.DIHEDRAL>
0

>  <SCORE.SYSTEM.SOLV>
0

>  <SCORE.SYSTEM.norm>
0

>  <SCORE.heavy>
37

>  <SCORE.norm>
-0.512318

>  <RMSD>
2.322

$$$$
1yrj_lig
 OpenBabel11021811423D
libRbt.so/2013.1/901 2013/11/27
 37 40  0  0  0  0  0  0  0  0999 V2000
   39.3691    5.6721   10.4701 C   0  0  1  0  0  0  0  0  0  0  0  0
   40.7015    5.4353   11.2078 C   0  0  1  0  0  0  0  0  0  0  0  0
   41.5646    4.3768   10.5029 C   0  0  0  0  0  0  0  0  0  0  0  0
   40.7589    3.0627   10.3303 C   0  0  1  0  0  0  0  0  0  0  0  0
   39.4624    3.3378    9.5452 C   0  0  1  0  0  0  0  0  0  0  0  0
   38.6649    1.9770    9.3717 C   0  0  1  0  0  0  0  0  0  0  0  0
   39.5364    0.9584    8.6191 C   0  0  1  0  0  0  0  0  0  0  0  0
   40.8441    0.7552    9.4223 C   0  0  2  0  0  0  0  0  0  0  0  0
   37.9416   -0.4028    7.1665 C   0  0  0  0  0  0  0  0  0  0  0  0
   41.4645    6.6827   11.3785 N   0  0  0  0  0  0  0  0  0  0  0  0
   38.7734   -0.3105    8.4070 N   0  0  0  0  0  0  0  0  0  0  0  0
   39.5102    6.4227    9.2495 O   0  0  0  0  0  0  0  0  0  0  0  0
   38.6956    4.3749   10.2648 O   0  0  0  0  0  0  0  0  0  0  0  0
   41.5353    2.0210    9.6198 O   0  0  0  0  0  0  0  0  0  0  0  0
   38.3848    1.4317   10.6440 O   0  0  0  0  0  0  0  0  0  0  0  0
   41.7439   -0.1339    8.7592 O   0  0  0  0  0  0  0  0  0  0  0  0
   41.3032   -1.5119    8.7786 C   0  0  2  0  0  0  0  0  0  0  0  0
   41.8546   -2.3110    9.9706 C   0  0  1  0  0  0  0  0  0  0  0  0
   43.3836   -2.5377    9.8334 C   0  0  2  0  0  0  0  0  0  0  0  0
   43.6837   -3.2493    8.5340 C   0  0  1  0  0  0  0  0  0  0  0  0
   43.1436   -2.4073    7.3539 C   0  0  1  0  0  0  0  0  0  0  0  0
   43.3616   -3.0776    5.9993 C   0  0  0  0  0  0  0  0  0  0  0  0
   45.1445   -3.4461    8.4302 N   0  0  0  0  0  0  0  0  0  0  0  0
   41.6951   -2.1933    7.5228 O   0  0  0  0  0  0  0  0  0  0  0  0
   41.5156   -1.6135   11.1779 O   0  0  0  0  0  0  0  0  0  0  0  0
   43.8508   -3.3483   10.9204 O   0  0  0  0  0  0  0  0  0  0  0  0
   42.6688   -4.2969    5.9652 O   0  0  0  0  0  0  0  0  0  0  0  0
   38.4523    6.4740    8.1575 C   0  0  1  0  0  0  0  0  0  0  0  0
   37.7560    7.8488    8.2626 C   0  0  1  0  0  0  0  0  0  0  0  0
   36.7005    8.0284    7.1446 C   0  0  2  0  0  0  0  0  0  0  0  0
   37.3657    7.8927    5.7698 C   0  0  1  0  0  0  0  0  0  0  0  0
   38.0376    6.5022    5.6363 C   0  0  0  0  0  0  0  0  0  0  0  0
   39.0886    6.3524    6.7412 C   0  0  2  0  0  0  0  0  0  0  0  0
   36.3494    8.0544    4.7061 N   0  0  0  0  0  0  0  0  0  0  0  0
   39.7093    5.0415    6.5709 N   0  0  0  0  0  0  0  0  0  0  0  0
   37.0936    7.9452    9.5425 O   0  0  0  0  0  0  0  0  0  0  0  0
   36.1010    9.3354    7.2755 O   0  0  0  0  0  0  0  0  0  0  0  0
  1  2  1  0  0  0  0
  1 12  1  6  0  0  0
  1 13  1  0  0  0  0
  2  3  1  0  0  0  0
  2 10  1  6  0  0  0
  4  3  1  6  0  0  0
  4  5  1  0  0  0  0
  4 14  1  0  0  0  0
  5  6  1  0  0  0  0
  5 13  1  1  0  0  0
  6  7  1  0  0  0  0
  6 15  1  1  0  0  0
  7  8  1  0  0  0  0
  7 11  1  1  0  0  0
  8 14  1  0  0  0  0
  8 16  1  6  0  0  0
  9 11  1  0  0  0  0
 17 16  1  6  0  0  0
 17 18  1  0  0  0  0
 17 24  1  0  0  0  0
 18 19  1  0  0  0  0
 18 25  1  1  0  0  0
 19 20  1  0  0  0  0
 19 26  1  1  0  0  0
 20 21  1  0  0  0  0
 20 23  1  6  0  0  0
 21 22  1  6  0  0  0
 21 24  1  0  0  0  0
 22 27  1  0  0  0  0
 28 12  1  1  0  0  0
 28 29  1  0  0  0  0
 28 33  1  0  0  0  0
 29 30  1  0  0  0  0
 29 36  1  1  0  0  0
 30 31  1  0  0  0  0
 30 37  1  6  0  0  0
 31 32  1  0  0  0  0
 31 34  1  6  0  0  0
 32 33  1  0  0  0  0
 33 35  1  1  0  0  0
M  END
>  <CHROM.1>
162.77880579,88.37633318,-71.35027094,-92.25047772,61.77620250,104.43606499
40.19536580,2.36979073,8.64300969,-2.56178753,1.02032505,-2.30097602

>  <Name>
1yrj_lig

>  <RI>
0

>  <Rbt.Current_Directory>
/home/itssahil/PROJECTS/Mol_Feturizer/New_Systems/rnas/1yrj

>  <Rbt.Executable>
rbdock ($Id: //depot/dev/client3/rdock/2013.1/src/exe/rbdock.cxx#4 $)

>  <Rbt.Library>
libRbt.so (2013.1, Build901 2013/11/27)

>  <Rbt.Parameter_File>
/export/apps/rDock/src/rDock_2013.1_src/data/scripts/dock_solv.prm

>  <Rbt.Receptor>
prm/pocket_docking_5.prm

>  <SCORE>
-25.9289

>  <SCORE.INTER>
-24.6619

>  <SCORE.INTER.CONST>
1

>  <SCORE.INTER.POLAR>
-2.57418

>  <SCORE.INTER.ROT>
6

>  <SCORE.INTER.SOLV>
22.8125

>  <SCORE.INTER.VDW>
-23.0648

>  <SCORE.INTER.norm>
-0.666537

>  <SCORE.INTRA>
-1.26702

>  <SCORE.INTRA.DIHEDRAL>
-2.94857

>  <SCORE.INTRA.DIHEDRAL.0>
15.6389

>  <SCORE.INTRA.POLAR>
0

>  <SCORE.INTRA.POLAR.0>
0

>  <SCORE.INTRA.REPUL>
0

>  <SCORE.INTRA.REPUL.0>
0

>  <SCORE.INTRA.SOLV>
0.342025

>  <SCORE.INTRA.SOLV.lig_0>
-90.9181

>  <SCORE.INTRA.VDW>
0.0362508

>  <SCORE.INTRA.VDW.0>
-3.14158

>  <SCORE.INTRA.norm>
-0.0342439

>  <SCORE.RESTR>
0

>  <SCORE.RESTR.CAVITY>
0

>  <SCORE.RESTR.norm>
0

>  <SCORE.SYSTEM>
0

>  <SCORE.SYSTEM.CONST>
0

>  <SCORE.SYSTEM.DIHEDRAL>
0

>  <SCORE.SYSTEM.SOLV>
0

>  <SCORE.SYSTEM.norm>
0

>  <SCORE.heavy>
37

>  <SCORE.norm>
-0.700781

>  <RMSD>
2.330

$$$$
1yrj_lig
 OpenBabel11021811423D
libRbt.so/2013.1/901 2013/11/27
 37 40  0  0  0  0  0  0  0  0999 V2000
   39.3049    5.1196    9.4287 C   0  0  1  0  0  0  0  0  0  0  0  0
   40.4870    5.0117   10.4118 C   0  0  1  0  0  0  0  0  0  0  0  0
   41.4026    3.8237   10.0763 C   0  0  0  0  0  0  0  0  0  0  0  0
   40.5750    2.5130   10.0227 C   0  0  1  0  0  0  0  0  0  0  0  0
   39.4378    2.6488    8.9924 C   0  0  1  0  0  0  0  0  0  0  0  0
   38.6162    1.2920    8.9481 C   0  0  1  0  0  0  0  0  0  0  0  0
   39.5497    0.1337    8.5604 C   0  0  1  0  0  0  0  0  0  0  0  0
   40.6984    0.0719    9.5963 C   0  0  2  0  0  0  0  0  0  0  0  0
   37.9474   -1.3440    7.2355 C   0  0  0  0  0  0  0  0  0  0  0  0
   41.2697    6.2572   10.4691 N   0  0  0  0  0  0  0  0  0  0  0  0
   38.7727   -1.1410    8.4670 N   0  0  0  0  0  0  0  0  0  0  0  0
   39.6778    5.6159    8.1295 O   0  0  0  0  0  0  0  0  0  0  0  0
   38.6137    3.8172    9.3624 O   0  0  0  0  0  0  0  0  0  0  0  0
   41.4069    1.3417    9.6639 O   0  0  0  0  0  0  0  0  0  0  0  0
   38.1075    1.0091   10.2349 O   0  0  0  0  0  0  0  0  0  0  0  0
   41.6513   -0.9423    9.2753 O   0  0  0  0  0  0  0  0  0  0  0  0
   41.1861   -2.2790    9.5762 C   0  0  2  0  0  0  0  0  0  0  0  0
   41.8598   -2.8942   10.8137 C   0  0  1  0  0  0  0  0  0  0  0  0
   43.3558   -3.2037   10.5409 C   0  0  2  0  0  0  0  0  0  0  0  0
   43.4812   -4.1305    9.3534 C   0  0  1  0  0  0  0  0  0  0  0  0
   42.8211   -3.4716    8.1192 C   0  0  1  0  0  0  0  0  0  0  0  0
   42.8593   -4.3634    6.8802 C   0  0  0  0  0  0  0  0  0  0  0  0
   44.9141   -4.4024    9.1162 N   0  0  0  0  0  0  0  0  0  0  0  0
   41.4086   -3.1727    8.4158 O   0  0  0  0  0  0  0  0  0  0  0  0
   41.6844   -1.9947   11.9179 O   0  0  0  0  0  0  0  0  0  0  0  0
   43.9330   -3.8440   11.6872 O   0  0  0  0  0  0  0  0  0  0  0  0
   42.2431   -3.7002    5.8086 O   0  0  0  0  0  0  0  0  0  0  0  0
   38.7102    6.2906    7.1688 C   0  0  1  0  0  0  0  0  0  0  0  0
   38.1813    7.5600    7.8723 C   0  0  1  0  0  0  0  0  0  0  0  0
   37.2336    8.3596    6.9457 C   0  0  2  0  0  0  0  0  0  0  0  0
   37.9686    8.7533    5.6589 C   0  0  1  0  0  0  0  0  0  0  0  0
   38.4733    7.4859    4.9228 C   0  0  0  0  0  0  0  0  0  0  0  0
   39.4212    6.7192    5.8510 C   0  0  2  0  0  0  0  0  0  0  0  0
   37.0537    9.5075    4.7731 N   0  0  0  0  0  0  0  0  0  0  0  0
   39.8874    5.5457    5.1173 N   0  0  0  0  0  0  0  0  0  0  0  0
   37.4507    7.1729    9.0565 O   0  0  0  0  0  0  0  0  0  0  0  0
   36.7904    9.5439    7.6425 O   0  0  0  0  0  0  0  0  0  0  0  0
  1  2  1  0  0  0  0
  1 12  1  6  0  0  0
  1 13  1  0  0  0  0
  2  3  1  0  0  0  0
  2 10  1  6  0  0  0
  4  3  1  6  0  0  0
  4  5  1  0  0  0  0
  4 14  1  0  0  0  0
  5  6  1  0  0  0  0
  5 13  1  1  0  0  0
  6  7  1  0  0  0  0
  6 15  1  1  0  0  0
  7  8  1  0  0  0  0
  7 11  1  1  0  0  0
  8 14  1  0  0  0  0
  8 16  1  6  0  0  0
  9 11  1  0  0  0  0
 17 16  1  6  0  0  0
 17 18  1  0  0  0  0
 17 24  1  0  0  0  0
 18 19  1  0  0  0  0
 18 25  1  1  0  0  0
 19 20  1  0  0  0  0
 19 26  1  1  0  0  0
 20 21  1  0  0  0  0
 20 23  1  6  0  0  0
 21 22  1  6  0  0  0
 21 24  1  0  0  0  0
 22 27  1  0  0  0  0
 28 12  1  1  0  0  0
 28 29  1  0  0  0  0
 28 33  1  0  0  0  0
 29 30  1  0  0  0  0
 29 36  1  1  0  0  0
 30 31  1  0  0  0  0
 30 37  1  1  0  0  0
 31 32  1  0  0  0  0
 31 34  1  6  0  0  0
 32 33  1  0  0  0  0
 33 35  1  6  0  0  0
M  END
>  <CHROM.1>
-156.63798027,77.55984998,-75.75790145,-106.47267217,179.92452490,61.30492468
40.22719719,1.97680830,8.56335992,-2.75999505,1.17408055,-2.18081155

>  <Name>
1yrj_lig

>  <RI>
0

>  <Rbt.Current_Directory>
/home/itssahil/PROJECTS/Mol_Feturizer/New_Systems/rnas/1yrj

>  <Rbt.Executable>
rbdock ($Id: //depot/dev/client3/rdock/2013.1/src/exe/rbdock.cxx#4 $)

>  <Rbt.Library>
libRbt.so (2013.1, Build901 2013/11/27)

>  <Rbt.Parameter_File>
/export/apps/rDock/src/rDock_2013.1_src/data/scripts/dock_solv.prm

>  <Rbt.Receptor>
prm/pocket_docking_6.prm

>  <SCORE>
-23.2538

>  <SCORE.INTER>
-20.5087

>  <SCORE.INTER.CONST>
1

>  <SCORE.INTER.POLAR>
-2.26865

>  <SCORE.INTER.ROT>
6

>  <SCORE.INTER.SOLV>
20.9953

>  <SCORE.INTER.VDW>
-20.7087

>  <SCORE.INTER.norm>
-0.554289

>  <SCORE.INTRA>
-2.74507

>  <SCORE.INTRA.DIHEDRAL>
-5.4958

>  <SCORE.INTRA.DIHEDRAL.0>
15.6389

>  <SCORE.INTRA.POLAR>
0

>  <SCORE.INTRA.POLAR.0>
0

>  <SCORE.INTRA.REPUL>
0

>  <SCORE.INTRA.REPUL.0>
0

>  <SCORE.INTRA.SOLV>
-1.66764

>  <SCORE.INTRA.SOLV.lig_0>
-90.9181

>  <SCORE.INTRA.VDW>
0.836654

>  <SCORE.INTRA.VDW.0>
-3.14158

>  <SCORE.INTRA.norm>
-0.074191

>  <SCORE.RESTR>
0

>  <SCORE.RESTR.CAVITY>
0

>  <SCORE.RESTR.norm>
0

>  <SCORE.SYSTEM>
0

>  <SCORE.SYSTEM.CONST>
0

>  <SCORE.SYSTEM.DIHEDRAL>
0

>  <SCORE.SYSTEM.SOLV>
0

>  <SCORE.SYSTEM.norm>
0

>  <SCORE.heavy>
37

>  <SCORE.norm>
-0.62848

>  <RMSD>
2.334

$$$$
1yrj_lig
 OpenBabel11021811423D
libRbt.so/2013.1/901 2013/11/27
 37 40  0  0  0  0  0  0  0  0999 V2000
   39.2874    5.6611   10.1901 C   0  0  1  0  0  0  0  0  0  0  0  0
   40.5889    5.4632   10.9917 C   0  0  1  0  0  0  0  0  0  0  0  0
   41.4528    4.3336   10.4087 C   0  0  0  0  0  0  0  0  0  0  0  0
   40.6261    3.0244   10.3182 C   0  0  1  0  0  0  0  0  0  0  0  0
   39.3629    3.2558    9.4675 C   0  0  1  0  0  0  0  0  0  0  0  0
   38.5432    1.8999    9.3802 C   0  0  1  0  0  0  0  0  0  0  0  0
   39.4181    0.8059    8.7467 C   0  0  1  0  0  0  0  0  0  0  0  0
   40.6934    0.6474    9.6098 C   0  0  2  0  0  0  0  0  0  0  0  0
   37.6785   -0.5527    7.4683 C   0  0  0  0  0  0  0  0  0  0  0  0
   41.3717    6.7065   11.0845 N   0  0  0  0  0  0  0  0  0  0  0  0
   38.6362   -0.4624    8.6145 N   0  0  0  0  0  0  0  0  0  0  0  0
   39.4854    6.3034    8.9168 O   0  0  0  0  0  0  0  0  0  0  0  0
   38.5941    4.3635   10.0702 O   0  0  0  0  0  0  0  0  0  0  0  0
   41.4040    1.9127    9.7252 O   0  0  0  0  0  0  0  0  0  0  0  0
   38.2089    1.4689   10.6829 O   0  0  0  0  0  0  0  0  0  0  0  0
   41.5961   -0.3105    9.0557 O   0  0  0  0  0  0  0  0  0  0  0  0
   42.5899   -0.7722   10.0005 C   0  0  2  0  0  0  0  0  0  0  0  0
   43.6570   -1.6799    9.3673 C   0  0  1  0  0  0  0  0  0  0  0  0
   43.0528   -3.0469    8.9495 C   0  0  2  0  0  0  0  0  0  0  0  0
   42.4274   -3.7212   10.1491 C   0  0  1  0  0  0  0  0  0  0  0  0
   41.3392   -2.7969   10.7450 C   0  0  1  0  0  0  0  0  0  0  0  0
   40.6856   -3.3812   11.9953 C   0  0  0  0  0  0  0  0  0  0  0  0
   41.8579   -5.0152    9.7195 N   0  0  0  0  0  0  0  0  0  0  0  0
   41.9393   -1.5021   11.1134 O   0  0  0  0  0  0  0  0  0  0  0  0
   44.2422   -0.9834    8.2576 O   0  0  0  0  0  0  0  0  0  0  0  0
   44.0880   -3.8945    8.4331 O   0  0  0  0  0  0  0  0  0  0  0  0
   39.9455   -4.5205   11.6459 O   0  0  0  0  0  0  0  0  0  0  0  0
   39.2618    7.7881    8.6712 C   0  0  1  0  0  0  0  0  0  0  0  0
   37.8819    8.1451    9.2666 C   0  0  1  0  0  0  0  0  0  0  0  0
   37.5868    9.6582    9.1269 C   0  0  2  0  0  0  0  0  0  0  0  0
   38.6777   10.4719    9.8331 C   0  0  1  0  0  0  0  0  0  0  0  0
   40.0648   10.1509    9.2203 C   0  0  0  0  0  0  0  0  0  0  0  0
   40.3433    8.6530    9.3839 C   0  0  2  0  0  0  0  0  0  0  0  0
   38.3954   11.9173    9.6862 N   0  0  0  0  0  0  0  0  0  0  0  0
   41.6621    8.3947    8.8123 N   0  0  0  0  0  0  0  0  0  0  0  0
   36.8593    7.4083    8.5614 O   0  0  0  0  0  0  0  0  0  0  0  0
   36.3006    9.9388    9.7198 O   0  0  0  0  0  0  0  0  0  0  0  0
  1  2  1  0  0  0  0
  1 12  1  6  0  0  0
  1 13  1  0  0  0  0
  2  3  1  0  0  0  0
  2 10  1  6  0  0  0
  4  3  1  6  0  0  0
  4  5  1  0  0  0  0
  4 14  1  0  0  0  0
  5  6  1  0  0  0  0
  5 13  1  1  0  0  0
  6  7  1  0  0  0  0
  6 15  1  1  0  0  0
  7  8  1  0  0  0  0
  7 11  1  1  0  0  0
  8 14  1  0  0  0  0
  8 16  1  6  0  0  0
  9 11  1  0  0  0  0
 17 16  1  6  0  0  0
 17 18  1  0  0  0  0
 17 24  1  0  0  0  0
 18 19  1  0  0  0  0
 18 25  1  6  0  0  0
 19 20  1  0  0  0  0
 19 26  1  1  0  0  0
 20 21  1  0  0  0  0
 20 23  1  6  0  0  0
 21 22  1  1  0  0  0
 21 24  1  0  0  0  0
 22 27  1  0  0  0  0
 28 12  1  1  0  0  0
 28 29  1  0  0  0  0
 28 33  1  0  0  0  0
 29 30  1  0  0  0  0
 29 36  1  6  0  0  0
 30 31  1  0  0  0  0
 30 37  1  1  0  0  0
 31 32  1  0  0  0  0
 31 34  1  6  0  0  0
 32 33  1  0  0  0  0
 33 35  1  6  0  0  0
M  END
>  <CHROM.1>
-98.28835859,78.92487681,-163.02420994,-173.49759434,-67.04110325,-48.54977563
40.25748515,2.79912614,9.65471942,1.83093775,0.02386340,-0.03815248

>  <Name>
1yrj_lig

>  <RI>
0

>  <Rbt.Current_Directory>
/home/itssahil/PROJECTS/Mol_Feturizer/New_Systems/rnas/1yrj

>  <Rbt.Executable>
rbdock ($Id: //depot/dev/client3/rdock/2013.1/src/exe/rbdock.cxx#4 $)

>  <Rbt.Library>
libRbt.so (2013.1, Build901 2013/11/27)

>  <Rbt.Parameter_File>
/export/apps/rDock/src/rDock_2013.1_src/data/scripts/dock_solv.prm

>  <Rbt.Receptor>
prm/pocket_docking_6.prm

>  <SCORE>
-25.0568

>  <SCORE.INTER>
-23.4551

>  <SCORE.INTER.CONST>
1

>  <SCORE.INTER.POLAR>
-1.85359

>  <SCORE.INTER.ROT>
6

>  <SCORE.INTER.SOLV>
15.1239

>  <SCORE.INTER.VDW>
-22.0994

>  <SCORE.INTER.norm>
-0.633922

>  <SCORE.INTRA>
-1.6017

>  <SCORE.INTRA.DIHEDRAL>
-7.90646

>  <SCORE.INTRA.DIHEDRAL.0>
15.6389

>  <SCORE.INTRA.POLAR>
0

>  <SCORE.INTRA.POLAR.0>
0

>  <SCORE.INTRA.REPUL>
0

>  <SCORE.INTRA.REPUL.0>
0

>  <SCORE.INTRA.SOLV>
3.18076

>  <SCORE.INTRA.SOLV.lig_0>
-90.9181

>  <SCORE.INTRA.VDW>
0.761149

>  <SCORE.INTRA.VDW.0>
-3.14158

>  <SCORE.INTRA.norm>
-0.0432892

>  <SCORE.RESTR>
0

>  <SCORE.RESTR.CAVITY>
0

>  <SCORE.RESTR.norm>
0

>  <SCORE.SYSTEM>
0

>  <SCORE.SYSTEM.CONST>
0

>  <SCORE.SYSTEM.DIHEDRAL>
0

>  <SCORE.SYSTEM.SOLV>
0

>  <SCORE.SYSTEM.norm>
0

>  <SCORE.heavy>
37

>  <SCORE.norm>
-0.677211

>  <RMSD>
2.341

$$$$
1yrj_lig
 OpenBabel11021811423D
libRbt.so/2013.1/901 2013/11/27
 37 40  0  0  0  0  0  0  0  0999 V2000
   39.1770    5.2921   10.1178 C   0  0  1  0  0  0  0  0  0  0  0  0
   40.4199    5.1955   11.0241 C   0  0  1  0  0  0  0  0  0  0  0  0
   41.4332    4.1673   10.4965 C   0  0  0  0  0  0  0  0  0  0  0  0
   40.7455    2.7895   10.3113 C   0  0  1  0  0  0  0  0  0  0  0  0
   39.5415    2.9244    9.3599 C   0  0  1  0  0  0  0  0  0  0  0  0
   38.8650    1.5006    9.1777 C   0  0  1  0  0  0  0  0  0  0  0  0
   39.8900    0.5103    8.6014 C   0  0  1  0  0  0  0  0  0  0  0  0
   41.0980    0.4489    9.5675 C   0  0  2  0  0  0  0  0  0  0  0  0
   38.4116   -0.9746    7.1468 C   0  0  0  0  0  0  0  0  0  0  0  0
   41.0701    6.5035   11.2066 N   0  0  0  0  0  0  0  0  0  0  0  0
   39.2463   -0.8215    8.3792 N   0  0  0  0  0  0  0  0  0  0  0  0
   39.4186    5.9837    8.8782 O   0  0  0  0  0  0  0  0  0  0  0  0
   38.6230    3.9391    9.9149 O   0  0  0  0  0  0  0  0  0  0  0  0
   41.6726    1.7714    9.7667 O   0  0  0  0  0  0  0  0  0  0  0  0
   38.4656    1.0059   10.4388 O   0  0  0  0  0  0  0  0  0  0  0  0
   42.1310   -0.4055    9.0752 O   0  0  0  0  0  0  0  0  0  0  0  0
   41.7394   -1.7970    9.0111 C   0  0  2  0  0  0  0  0  0  0  0  0
   41.9152   -2.5412   10.3449 C   0  0  1  0  0  0  0  0  0  0  0  0
   43.4170   -2.7182   10.6935 C   0  0  2  0  0  0  0  0  0  0  0  0
   44.1206   -3.4565    9.5779 C   0  0  1  0  0  0  0  0  0  0  0  0
   43.9508   -2.6687    8.2573 C   0  0  1  0  0  0  0  0  0  0  0  0
   44.5925   -3.3703    7.0624 C   0  0  0  0  0  0  0  0  0  0  0  0
   45.5464   -3.6051    9.9361 N   0  0  0  0  0  0  0  0  0  0  0  0
   42.5162   -2.5006    7.9640 O   0  0  0  0  0  0  0  0  0  0  0  0
   41.2033   -1.8210   11.3615 O   0  0  0  0  0  0  0  0  0  0  0  0
   43.5453   -3.4799   11.9019 O   0  0  0  0  0  0  0  0  0  0  0  0
   44.5364   -2.5284    5.9416 O   0  0  0  0  0  0  0  0  0  0  0  0
   38.3626    6.1930    7.8033 C   0  0  1  0  0  0  0  0  0  0  0  0
   37.7769    7.6073    8.0099 C   0  0  1  0  0  0  0  0  0  0  0  0
   36.7333    7.9458    6.9179 C   0  0  2  0  0  0  0  0  0  0  0  0
   37.3791    7.8544    5.5302 C   0  0  1  0  0  0  0  0  0  0  0  0
   37.9391    6.4284    5.2944 C   0  0  0  0  0  0  0  0  0  0  0  0
   38.9805    6.1208    6.3755 C   0  0  2  0  0  0  0  0  0  0  0  0
   36.3734    8.1682    4.4907 N   0  0  0  0  0  0  0  0  0  0  0  0
   39.4956    4.7804    6.1090 N   0  0  0  0  0  0  0  0  0  0  0  0
   37.1304    7.6659    9.3001 O   0  0  0  0  0  0  0  0  0  0  0  0
   36.2388    9.2832    7.1445 O   0  0  0  0  0  0  0  0  0  0  0  0
  1  2  1  0  0  0  0
  1 12  1  6  0  0  0
  1 13  1  0  0  0  0
  2  3  1  0  0  0  0
  2 10  1  6  0  0  0
  4  3  1  6  0  0  0
  4  5  1  0  0  0  0
  4 14  1  0  0  0  0
  5  6  1  0  0  0  0
  5 13  1  1  0  0  0
  6  7  1  0  0  0  0
  6 15  1  1  0  0  0
  7  8  1  0  0  0  0
  7 11  1  1  0  0  0
  8 14  1  0  0  0  0
  8 16  1  6  0  0  0
  9 11  1  0  0  0  0
 17 16  1  1  0  0  0
 17 18  1  0  0  0  0
 17 24  1  0  0  0  0
 18 19  1  0  0  0  0
 18 25  1  1  0  0  0
 19 20  1  0  0  0  0
 19 26  1  1  0  0  0
 20 21  1  0  0  0  0
 20 23  1  1  0  0  0
 21 22  1  6  0  0  0
 21 24  1  0  0  0  0
 22 27  1  0  0  0  0
 28 12  1  1  0  0  0
 28 29  1  0  0  0  0
 28 33  1  0  0  0  0
 29 30  1  0  0  0  0
 29 36  1  1  0  0  0
 30 31  1  0  0  0  0
 30 37  1  1  0  0  0
 31 32  1  0  0  0  0
 31 34  1  6  0  0  0
 32 33  1  0  0  0  0
 33 35  1  6  0  0  0
M  END
>  <CHROM.1>
178.98802493,79.50577298,-65.91192446,-84.33967229,-173.09258810,96.99470533
40.37603514,2.16631652,8.73010683,-3.01629569,1.07056263,-1.89899939

>  <Name>
1yrj_lig

>  <RI>
0

>  <Rbt.Current_Directory>
/home/itssahil/PROJECTS/Mol_Feturizer/New_Systems/rnas/1yrj

>  <Rbt.Executable>
rbdock ($Id: //depot/dev/client3/rdock/2013.1/src/exe/rbdock.cxx#4 $)

>  <Rbt.Library>
libRbt.so (2013.1, Build901 2013/11/27)

>  <Rbt.Parameter_File>
/export/apps/rDock/src/rDock_2013.1_src/data/scripts/dock_solv.prm

>  <Rbt.Receptor>
prm/pocket_docking_3.prm

>  <SCORE>
-24.6692

>  <SCORE.INTER>
-21.2352

>  <SCORE.INTER.CONST>
1

>  <SCORE.INTER.POLAR>
-2.48965

>  <SCORE.INTER.ROT>
6

>  <SCORE.INTER.SOLV>
23.2107

>  <SCORE.INTER.VDW>
-21.1949

>  <SCORE.INTER.norm>
-0.573926

>  <SCORE.INTRA>
-3.45086

>  <SCORE.INTRA.DIHEDRAL>
-7.47414

>  <SCORE.INTRA.DIHEDRAL.0>
15.6389

>  <SCORE.INTRA.POLAR>
0

>  <SCORE.INTRA.POLAR.0>
0

>  <SCORE.INTRA.REPUL>
0

>  <SCORE.INTRA.REPUL.0>
0

>  <SCORE.INTRA.SOLV>
-0.807842

>  <SCORE.INTRA.SOLV.lig_0>
-90.9181

>  <SCORE.INTRA.VDW>
0.69013

>  <SCORE.INTRA.VDW.0>
-3.14158

>  <SCORE.INTRA.norm>
-0.0932665

>  <SCORE.RESTR>
0.0169184

>  <SCORE.RESTR.CAVITY>
0.0169184

>  <SCORE.RESTR.norm>
0.000457253

>  <SCORE.SYSTEM>
0

>  <SCORE.SYSTEM.CONST>
0

>  <SCORE.SYSTEM.DIHEDRAL>
0

>  <SCORE.SYSTEM.SOLV>
0

>  <SCORE.SYSTEM.norm>
0

>  <SCORE.heavy>
37

>  <SCORE.norm>
-0.666735

>  <RMSD>
2.416

$$$$
1yrj_lig
 OpenBabel11021811423D
libRbt.so/2013.1/901 2013/11/27
 37 40  0  0  0  0  0  0  0  0999 V2000
   38.9526    5.4348    9.4615 C   0  0  1  0  0  0  0  0  0  0  0  0
   39.9513    5.4896   10.6342 C   0  0  1  0  0  0  0  0  0  0  0  0
   41.0780    4.4567   10.4739 C   0  0  0  0  0  0  0  0  0  0  0  0
   40.4773    3.0381   10.2933 C   0  0  1  0  0  0  0  0  0  0  0  0
   39.5263    3.0182    9.0816 C   0  0  1  0  0  0  0  0  0  0  0  0
   38.9366    1.5548    8.9118 C   0  0  1  0  0  0  0  0  0  0  0  0
   40.0854    0.5548    8.7027 C   0  0  1  0  0  0  0  0  0  0  0  0
   41.0356    0.6494    9.9212 C   0  0  2  0  0  0  0  0  0  0  0  0
   38.9803   -1.1278    7.1363 C   0  0  0  0  0  0  0  0  0  0  0  0
   40.5173    6.8369   10.8114 N   0  0  0  0  0  0  0  0  0  0  0  0
   39.5354   -0.8200    8.4913 N   0  0  0  0  0  0  0  0  0  0  0  0
   39.4641    6.0006    8.2404 O   0  0  0  0  0  0  0  0  0  0  0  0
   38.4856    4.0449    9.2918 O   0  0  0  0  0  0  0  0  0  0  0  0
   41.5241    2.0096   10.0956 O   0  0  0  0  0  0  0  0  0  0  0  0
   38.2631    1.1799   10.0951 O   0  0  0  0  0  0  0  0  0  0  0  0
   42.1702   -0.2063    9.7797 O   0  0  0  0  0  0  0  0  0  0  0  0
   41.8257   -1.6113    9.7478 C   0  0  2  0  0  0  0  0  0  0  0  0
   42.5440   -2.4393   10.8257 C   0  0  1  0  0  0  0  0  0  0  0  0
   44.0636   -2.5460   10.5296 C   0  0  2  0  0  0  0  0  0  0  0  0
   44.2799   -3.1539    9.1627 C   0  0  1  0  0  0  0  0  0  0  0  0
   43.5711   -2.2831    8.0983 C   0  0  1  0  0  0  0  0  0  0  0  0
   43.6978   -2.8525    6.6871 C   0  0  0  0  0  0  0  0  0  0  0  0
   45.7330   -3.2379    8.9081 N   0  0  0  0  0  0  0  0  0  0  0  0
   42.1355   -2.1851    8.4175 O   0  0  0  0  0  0  0  0  0  0  0  0
   42.2808   -1.8426   12.1040 O   0  0  0  0  0  0  0  0  0  0  0  0
   44.6886   -3.3851   11.5104 O   0  0  0  0  0  0  0  0  0  0  0  0
   43.0357   -4.0875    6.6211 O   0  0  0  0  0  0  0  0  0  0  0  0
   38.6846    6.0475    6.9348 C   0  0  1  0  0  0  0  0  0  0  0  0
   39.0679    7.3637    6.2229 C   0  0  1  0  0  0  0  0  0  0  0  0
   38.3744    7.4763    4.8436 C   0  0  2  0  0  0  0  0  0  0  0  0
   38.7636    6.2831    3.9628 C   0  0  1  0  0  0  0  0  0  0  0  0
   38.3511    4.9557    4.6487 C   0  0  0  0  0  0  0  0  0  0  0  0
   39.0607    4.8574    6.0032 C   0  0  2  0  0  0  0  0  0  0  0  0
   38.0885    6.3913    2.6501 N   0  0  0  0  0  0  0  0  0  0  0  0
   38.6616    3.5894    6.6080 N   0  0  0  0  0  0  0  0  0  0  0  0
   38.6534    8.4798    7.0404 O   0  0  0  0  0  0  0  0  0  0  0  0
   38.7862    8.7088    4.2143 O   0  0  0  0  0  0  0  0  0  0  0  0
  1  2  1  0  0  0  0
  1 12  1  6  0  0  0
  1 13  1  0  0  0  0
  2  3  1  0  0  0  0
  2 10  1  6  0  0  0
  4  3  1  6  0  0  0
  4  5  1  0  0  0  0
  4 14  1  0  0  0  0
  5  6  1  0  0  0  0
  5 13  1  1  0  0  0
  6  7  1  0  0  0  0
  6 15  1  1  0  0  0
  7  8  1  0  0  0  0
  7 11  1  1  0  0  0
  8 14  1  0  0  0  0
  8 16  1  6  0  0  0
  9 11  1  0  0  0  0
 17 16  1  6  0  0  0
 17 18  1  0  0  0  0
 17 24  1  0  0  0  0
 18 19  1  0  0  0  0
 18 25  1  1  0  0  0
 19 20  1  0  0  0  0
 19 26  1  1  0  0  0
 20 21  1  0  0  0  0
 20 23  1  6  0  0  0
 21 22  1  6  0  0  0
 21 24  1  0  0  0  0
 22 27  1  0  0  0  0
 28 12  1  1  0  0  0
 28 29  1  0  0  0  0
 28 33  1  0  0  0  0
 29 30  1  0  0  0  0
 29 36  1  1  0  0  0
 30 31  1  0  0  0  0
 30 37  1  6  0  0  0
 31 32  1  0  0  0  0
 31 34  1  6  0  0  0
 32 33  1  0  0  0  0
 33 35  1  1  0  0  0
M  END
>  <CHROM.1>
178.96645437,77.89726388,-64.26114382,-123.69716990,64.37419670,144.98327337
40.63993635,2.04119133,8.31828479,3.12865589,1.14523676,-1.89187349

>  <Name>
1yrj_lig

>  <RI>
0

>  <Rbt.Current_Directory>
/home/itssahil/PROJECTS/Mol_Feturizer/New_Systems/rnas/1yrj

>  <Rbt.Executable>
rbdock ($Id: //depot/dev/client3/rdock/2013.1/src/exe/rbdock.cxx#4 $)

>  <Rbt.Library>
libRbt.so (2013.1, Build901 2013/11/27)

>  <Rbt.Parameter_File>
/export/apps/rDock/src/rDock_2013.1_src/data/scripts/dock_solv.prm

>  <Rbt.Receptor>
prm/pocket_docking_4.prm

>  <SCORE>
-23.0572

>  <SCORE.INTER>
-23.6122

>  <SCORE.INTER.CONST>
1

>  <SCORE.INTER.POLAR>
-1.85359

>  <SCORE.INTER.ROT>
6

>  <SCORE.INTER.SOLV>
14.1917

>  <SCORE.INTER.VDW>
-21.8934

>  <SCORE.INTER.norm>
-0.638168

>  <SCORE.INTRA>
0.555013

>  <SCORE.INTRA.DIHEDRAL>
-3.49167

>  <SCORE.INTRA.DIHEDRAL.0>
15.6389

>  <SCORE.INTRA.POLAR>
0

>  <SCORE.INTRA.POLAR.0>
0

>  <SCORE.INTRA.REPUL>
0

>  <SCORE.INTRA.REPUL.0>
0

>  <SCORE.INTRA.SOLV>
2.79817

>  <SCORE.INTRA.SOLV.lig_0>
-90.9181

>  <SCORE.INTRA.VDW>
0.901763

>  <SCORE.INTRA.VDW.0>
-3.14158

>  <SCORE.INTRA.norm>
0.0150004

>  <SCORE.RESTR>
0

>  <SCORE.RESTR.CAVITY>
0

>  <SCORE.RESTR.norm>
0

>  <SCORE.SYSTEM>
0

>  <SCORE.SYSTEM.CONST>
0

>  <SCORE.SYSTEM.DIHEDRAL>
0

>  <SCORE.SYSTEM.SOLV>
0

>  <SCORE.SYSTEM.norm>
0

>  <SCORE.heavy>
37

>  <SCORE.norm>
-0.623167

>  <RMSD>
2.418

$$$$
1yrj_lig
 OpenBabel11021811423D
libRbt.so/2013.1/901 2013/11/27
 37 40  0  0  0  0  0  0  0  0999 V2000
   38.2014    4.8910    8.5470 C   0  0  1  0  0  0  0  0  0  0  0  0
   39.5005    5.3532    9.2357 C   0  0  1  0  0  0  0  0  0  0  0  0
   40.6456    4.3493    9.0282 C   0  0  0  0  0  0  0  0  0  0  0  0
   40.2097    2.9392    9.5051 C   0  0  1  0  0  0  0  0  0  0  0  0
   38.9387    2.4980    8.7548 C   0  0  1  0  0  0  0  0  0  0  0  0
   38.5223    1.0495    9.2513 C   0  0  1  0  0  0  0  0  0  0  0  0
   39.6687    0.0609    8.9828 C   0  0  1  0  0  0  0  0  0  0  0  0
   40.9312    0.5747    9.7165 C   0  0  2  0  0  0  0  0  0  0  0  0
   40.0219   -2.4586    8.7990 C   0  0  0  0  0  0  0  0  0  0  0  0
   39.9121    6.6942    8.7894 N   0  0  0  0  0  0  0  0  0  0  0  0
   39.2650   -1.3172    9.4018 N   0  0  0  0  0  0  0  0  0  0  0  0
   38.2268    5.0293    7.1140 O   0  0  0  0  0  0  0  0  0  0  0  0
   37.8909    3.5144    8.9796 O   0  0  0  0  0  0  0  0  0  0  0  0
   41.2672    1.9254    9.2900 O   0  0  0  0  0  0  0  0  0  0  0  0
   38.3077    1.0753   10.6469 O   0  0  0  0  0  0  0  0  0  0  0  0
   42.0664   -0.2557    9.4688 O   0  0  0  0  0  0  0  0  0  0  0  0
   43.2955    0.2799   10.0129 C   0  0  2  0  0  0  0  0  0  0  0  0
   44.5559   -0.4050    9.4596 C   0  0  1  0  0  0  0  0  0  0  0  0
   44.6695   -1.8657    9.9711 C   0  0  2  0  0  0  0  0  0  0  0  0
   44.6775   -1.8824   11.4826 C   0  0  1  0  0  0  0  0  0  0  0  0
   43.3849   -1.2139   12.0077 C   0  0  1  0  0  0  0  0  0  0  0  0
   43.3316   -1.1437   13.5322 C   0  0  0  0  0  0  0  0  0  0  0  0
   44.7817   -3.2840   11.9386 N   0  0  0  0  0  0  0  0  0  0  0  0
   43.2963    0.1632   11.4898 O   0  0  0  0  0  0  0  0  0  0  0  0
   44.5172   -0.3333    8.0270 O   0  0  0  0  0  0  0  0  0  0  0  0
   45.8915   -2.4490    9.4982 O   0  0  0  0  0  0  0  0  0  0  0  0
   44.4035   -0.3699   14.0014 O   0  0  0  0  0  0  0  0  0  0  0  0
   38.3125    6.3654    6.3916 C   0  0  1  0  0  0  0  0  0  0  0  0
   38.4844    6.0592    4.8874 C   0  0  1  0  0  0  0  0  0  0  0  0
   38.5147    7.3615    4.0512 C   0  0  2  0  0  0  0  0  0  0  0  0
   37.2208    8.1546    4.2699 C   0  0  1  0  0  0  0  0  0  0  0  0
   37.0539    8.5010    5.7716 C   0  0  0  0  0  0  0  0  0  0  0  0
   37.0100    7.1987    6.5778 C   0  0  2  0  0  0  0  0  0  0  0  0
   37.2612    9.4033    3.4765 N   0  0  0  0  0  0  0  0  0  0  0  0
   36.8346    7.5657    7.9805 N   0  0  0  0  0  0  0  0  0  0  0  0
   39.7292    5.3542    4.6890 O   0  0  0  0  0  0  0  0  0  0  0  0
   38.6516    7.0163    2.6559 O   0  0  0  0  0  0  0  0  0  0  0  0
  1  2  1  0  0  0  0
  1 12  1  6  0  0  0
  1 13  1  0  0  0  0
  2  3  1  0  0  0  0
  2 10  1  6  0  0  0
  4  3  1  6  0  0  0
  4  5  1  0  0  0  0
  4 14  1  0  0  0  0
  5  6  1  0  0  0  0
  5 13  1  1  0  0  0
  6  7  1  0  0  0  0
  6 15  1  1  0  0  0
  7  8  1  0  0  0  0
  7 11  1  1  0  0  0
  8 14  1  0  0  0  0
  8 16  1  6  0  0  0
  9 11  1  0  0  0  0
 17 16  1  6  0  0  0
 17 18  1  0  0  0  0
 17 24  1  0  0  0  0
 18 19  1  0  0  0  0
 18 25  1  6  0  0  0
 19 20  1  0  0  0  0
 19 26  1  6  0  0  0
 20 21  1  0  0  0  0
 20 23  1  6  0  0  0
 21 22  1  1  0  0  0
 21 24  1  0  0  0  0
 22 27  1  0  0  0  0
 28 12  1  1  0  0  0
 28 29  1  0  0  0  0
 28 33  1  0  0  0  0
 29 30  1  0  0  0  0
 29 36  1  1  0  0  0
 30 31  1  0  0  0  0
 30 37  1  6  0  0  0
 31 32  1  0  0  0  0
 31 34  1  6  0  0  0
 32 33  1  0  0  0  0
 33 35  1  1  0  0  0
M  END
>  <CHROM.1>
-64.90607192,159.18824176,173.29829806,-165.48187269,61.43676200,173.35268709
40.56229891,2.55934581,8.59730750,2.20714936,0.59358687,-0.96617701

>  <Name>
1yrj_lig

>  <RI>
0

>  <Rbt.Current_Directory>
/home/itssahil/PROJECTS/Mol_Feturizer/New_Systems/rnas/1yrj

>  <Rbt.Executable>
rbdock ($Id: //depot/dev/client3/rdock/2013.1/src/exe/rbdock.cxx#4 $)

>  <Rbt.Library>
libRbt.so (2013.1, Build901 2013/11/27)

>  <Rbt.Parameter_File>
/export/apps/rDock/src/rDock_2013.1_src/data/scripts/dock_solv.prm

>  <Rbt.Receptor>
prm/pocket_docking_5.prm

>  <SCORE>
-24.9487

>  <SCORE.INTER>
-19.7515

>  <SCORE.INTER.CONST>
1

>  <SCORE.INTER.POLAR>
-1.13858

>  <SCORE.INTER.ROT>
6

>  <SCORE.INTER.SOLV>
19.5326

>  <SCORE.INTER.VDW>
-23.4832

>  <SCORE.INTER.norm>
-0.533823

>  <SCORE.INTRA>
-5.19724

>  <SCORE.INTRA.DIHEDRAL>
-13.6575

>  <SCORE.INTRA.DIHEDRAL.0>
15.6389

>  <SCORE.INTRA.POLAR>
0

>  <SCORE.INTRA.POLAR.0>
0

>  <SCORE.INTRA.REPUL>
0

>  <SCORE.INTRA.REPUL.0>
0

>  <SCORE.INTRA.SOLV>
1.80642

>  <SCORE.INTRA.SOLV.lig_0>
-90.9181

>  <SCORE.INTRA.VDW>
0.728282

>  <SCORE.INTRA.VDW.0>
-3.14158

>  <SCORE.INTRA.norm>
-0.140466

>  <SCORE.RESTR>
0

>  <SCORE.RESTR.CAVITY>
0

>  <SCORE.RESTR.norm>
0

>  <SCORE.SYSTEM>
0

>  <SCORE.SYSTEM.CONST>
0

>  <SCORE.SYSTEM.DIHEDRAL>
0

>  <SCORE.SYSTEM.SOLV>
0

>  <SCORE.SYSTEM.norm>
0

>  <SCORE.heavy>
37

>  <SCORE.norm>
-0.674289

>  <RMSD>
2.434

$$$$
1yrj_lig
 OpenBabel11021811423D
libRbt.so/2013.1/901 2013/11/27
 37 40  0  0  0  0  0  0  0  0999 V2000
   39.6649    6.1579   10.4957 C   0  0  1  0  0  0  0  0  0  0  0  0
   40.8336    5.7130   11.3967 C   0  0  1  0  0  0  0  0  0  0  0  0
   41.6269    4.5538   10.7727 C   0  0  0  0  0  0  0  0  0  0  0  0
   40.6742    3.3761   10.4395 C   0  0  1  0  0  0  0  0  0  0  0  0
   39.5528    3.8546    9.4979 C   0  0  1  0  0  0  0  0  0  0  0  0
   38.6016    2.6295    9.1630 C   0  0  1  0  0  0  0  0  0  0  0  0
   39.4156    1.5096    8.4946 C   0  0  1  0  0  0  0  0  0  0  0  0
   40.5557    1.1002    9.4584 C   0  0  2  0  0  0  0  0  0  0  0  0
   38.8736   -0.4093    6.9038 C   0  0  0  0  0  0  0  0  0  0  0  0
   41.7351    6.8310   11.7197 N   0  0  0  0  0  0  0  0  0  0  0  0
   38.5167    0.3711    8.1297 N   0  0  0  0  0  0  0  0  0  0  0  0
   40.0809    6.9045    9.3370 O   0  0  0  0  0  0  0  0  0  0  0  0
   38.8487    4.9781   10.1486 O   0  0  0  0  0  0  0  0  0  0  0  0
   41.3858    2.2465    9.7989 O   0  0  0  0  0  0  0  0  0  0  0  0
   38.0714    2.1053   10.3624 O   0  0  0  0  0  0  0  0  0  0  0  0
   41.4032    0.1024    8.8877 O   0  0  0  0  0  0  0  0  0  0  0  0
   42.7289    0.5902    8.5742 C   0  0  2  0  0  0  0  0  0  0  0  0
   43.4457   -0.2424    7.4987 C   0  0  1  0  0  0  0  0  0  0  0  0
   43.8160   -1.6506    8.0353 C   0  0  2  0  0  0  0  0  0  0  0  0
   44.6806   -1.5204    9.2683 C   0  0  1  0  0  0  0  0  0  0  0  0
   43.9210   -0.7044   10.3410 C   0  0  1  0  0  0  0  0  0  0  0  0
   44.7434   -0.4819   11.6083 C   0  0  0  0  0  0  0  0  0  0  0  0
   45.0120   -2.8747    9.7575 N   0  0  0  0  0  0  0  0  0  0  0  0
   43.5670    0.6183    9.7956 O   0  0  0  0  0  0  0  0  0  0  0  0
   42.6012   -0.3078    6.3405 O   0  0  0  0  0  0  0  0  0  0  0  0
   44.5477   -2.3714    7.0344 O   0  0  0  0  0  0  0  0  0  0  0  0
   43.9315    0.0952   12.5961 O   0  0  0  0  0  0  0  0  0  0  0  0
   39.1211    7.4587    8.2948 C   0  0  1  0  0  0  0  0  0  0  0  0
   38.9477    6.3711    7.2117 C   0  0  1  0  0  0  0  0  0  0  0  0
   37.9306    6.8138    6.1321 C   0  0  2  0  0  0  0  0  0  0  0  0
   36.5744    7.1133    6.7817 C   0  0  1  0  0  0  0  0  0  0  0  0
   36.7268    8.2301    7.8458 C   0  0  0  0  0  0  0  0  0  0  0  0
   37.7243    7.7649    8.9119 C   0  0  2  0  0  0  0  0  0  0  0  0
   35.6102    7.5465    5.7458 N   0  0  0  0  0  0  0  0  0  0  0  0
   37.8265    8.8333    9.9023 N   0  0  0  0  0  0  0  0  0  0  0  0
   40.2219    6.1323    6.5752 O   0  0  0  0  0  0  0  0  0  0  0  0
   37.7893    5.7534    5.1624 O   0  0  0  0  0  0  0  0  0  0  0  0
  1  2  1  0  0  0  0
  1 12  1  6  0  0  0
  1 13  1  0  0  0  0
  2  3  1  0  0  0  0
  2 10  1  6  0  0  0
  4  3  1  6  0  0  0
  4  5  1  0  0  0  0
  4 14  1  0  0  0  0
  5  6  1  0  0  0  0
  5 13  1  1  0  0  0
  6  7  1  0  0  0  0
  6 15  1  1  0  0  0
  7  8  1  0  0  0  0
  7 11  1  1  0  0  0
  8 14  1  0  0  0  0
  8 16  1  6  0  0  0
  9 11  1  0  0  0  0
 17 16  1  1  0  0  0
 17 18  1  0  0  0  0
 17 24  1  0  0  0  0
 18 19  1  0  0  0  0
 18 25  1  6  0  0  0
 19 20  1  0  0  0  0
 19 26  1  6  0  0  0
 20 21  1  0  0  0  0
 20 23  1  1  0  0  0
 21 22  1  1  0  0  0
 21 24  1  0  0  0  0
 22 27  1  0  0  0  0
 28 12  1  1  0  0  0
 28 29  1  0  0  0  0
 28 33  1  0  0  0  0
 29 30  1  0  0  0  0
 29 36  1  6  0  0  0
 30 31  1  0  0  0  0
 30 37  1  6  0  0  0
 31 32  1  0  0  0  0
 31 34  1  6  0  0  0
 32 33  1  0  0  0  0
 33 35  1  1  0  0  0
M  END
>  <CHROM.1>
-179.84663945,147.60768047,110.85291731,-157.28556795,-171.79345440,-90.17276291
40.59886829,3.06971498,8.86810579,-2.56022985,0.82523845,-2.44839539

>  <Name>
1yrj_lig

>  <RI>
0

>  <Rbt.Current_Directory>
/home/itssahil/PROJECTS/Mol_Feturizer/New_Systems/rnas/1yrj

>  <Rbt.Executable>
rbdock ($Id: //depot/dev/client3/rdock/2013.1/src/exe/rbdock.cxx#4 $)

>  <Rbt.Library>
libRbt.so (2013.1, Build901 2013/11/27)

>  <Rbt.Parameter_File>
/export/apps/rDock/src/rDock_2013.1_src/data/scripts/dock_solv.prm

>  <Rbt.Receptor>
prm/pocket_docking_4.prm

>  <SCORE>
-19.5638

>  <SCORE.INTER>
-19.7658

>  <SCORE.INTER.CONST>
1

>  <SCORE.INTER.POLAR>
-2.14245

>  <SCORE.INTER.ROT>
6

>  <SCORE.INTER.SOLV>
25.2299

>  <SCORE.INTER.VDW>
-22.0457

>  <SCORE.INTER.norm>
-0.534212

>  <SCORE.INTRA>
0.202056

>  <SCORE.INTRA.DIHEDRAL>
-1.96901

>  <SCORE.INTRA.DIHEDRAL.0>
15.6389

>  <SCORE.INTRA.POLAR>
0

>  <SCORE.INTRA.POLAR.0>
0

>  <SCORE.INTRA.REPUL>
0

>  <SCORE.INTRA.REPUL.0>
0

>  <SCORE.INTRA.SOLV>
-1.65239

>  <SCORE.INTRA.SOLV.lig_0>
-90.9181

>  <SCORE.INTRA.VDW>
2.01275

>  <SCORE.INTRA.VDW.0>
-3.14158

>  <SCORE.INTRA.norm>
0.00546097

>  <SCORE.RESTR>
0

>  <SCORE.RESTR.CAVITY>
0

>  <SCORE.RESTR.norm>
0

>  <SCORE.SYSTEM>
0

>  <SCORE.SYSTEM.CONST>
0

>  <SCORE.SYSTEM.DIHEDRAL>
0

>  <SCORE.SYSTEM.SOLV>
0

>  <SCORE.SYSTEM.norm>
0

>  <SCORE.heavy>
37

>  <SCORE.norm>
-0.528751

>  <RMSD>
2.448

$$$$
1yrj_lig
 OpenBabel11021811423D
libRbt.so/2013.1/901 2013/11/27
 37 40  0  0  0  0  0  0  0  0999 V2000
   39.4178    5.3051   10.2731 C   0  0  1  0  0  0  0  0  0  0  0  0
   40.7491    5.0271   10.9983 C   0  0  1  0  0  0  0  0  0  0  0  0
   41.5493    3.9071   10.3145 C   0  0  0  0  0  0  0  0  0  0  0  0
   40.6793    2.6287   10.1948 C   0  0  1  0  0  0  0  0  0  0  0  0
   39.3850    2.9418    9.4204 C   0  0  1  0  0  0  0  0  0  0  0  0
   38.5208    1.6163    9.3012 C   0  0  1  0  0  0  0  0  0  0  0  0
   39.3306    0.5344    8.5683 C   0  0  1  0  0  0  0  0  0  0  0  0
   40.6398    0.2931    9.3583 C   0  0  2  0  0  0  0  0  0  0  0  0
   37.4991   -0.7069    7.2989 C   0  0  0  0  0  0  0  0  0  0  0  0
   41.5732    6.2409   11.1188 N   0  0  0  0  0  0  0  0  0  0  0  0
   38.5047   -0.7022    8.4070 N   0  0  0  0  0  0  0  0  0  0  0  0
   39.5750    6.0103    9.0276 O   0  0  0  0  0  0  0  0  0  0  0  0
   38.6800    4.0361   10.1182 O   0  0  0  0  0  0  0  0  0  0  0  0
   41.3937    1.5296    9.5061 O   0  0  0  0  0  0  0  0  0  0  0  0
   38.2354    1.1242   10.5939 O   0  0  0  0  0  0  0  0  0  0  0  0
   41.4854   -0.6581    8.7105 O   0  0  0  0  0  0  0  0  0  0  0  0
   41.0342   -2.0239    8.8674 C   0  0  2  0  0  0  0  0  0  0  0  0
   41.5976   -2.7112   10.1219 C   0  0  1  0  0  0  0  0  0  0  0  0
   43.1225   -2.9642    9.9844 C   0  0  2  0  0  0  0  0  0  0  0  0
   43.3967   -3.7989    8.7544 C   0  0  1  0  0  0  0  0  0  0  0  0
   42.8450   -3.0678    7.5075 C   0  0  1  0  0  0  0  0  0  0  0  0
   43.0367   -3.8660    6.2199 C   0  0  0  0  0  0  0  0  0  0  0  0
   44.8541   -4.0184    8.6483 N   0  0  0  0  0  0  0  0  0  0  0  0
   41.4011   -2.8252    7.6766 O   0  0  0  0  0  0  0  0  0  0  0  0
   41.2830   -1.8989   11.2622 O   0  0  0  0  0  0  0  0  0  0  0  0
   43.6001   -3.6722   11.1366 O   0  0  0  0  0  0  0  0  0  0  0  0
   42.5167   -3.1391    5.1386 O   0  0  0  0  0  0  0  0  0  0  0  0
   38.4585    6.1976    8.0115 C   0  0  1  0  0  0  0  0  0  0  0  0
   37.9288    7.6391    8.1777 C   0  0  1  0  0  0  0  0  0  0  0  0
   36.8273    7.9540    7.1367 C   0  0  2  0  0  0  0  0  0  0  0  0
   37.3793    7.7695    5.7182 C   0  0  1  0  0  0  0  0  0  0  0  0
   37.8810    6.3156    5.5251 C   0  0  0  0  0  0  0  0  0  0  0  0
   38.9806    6.0310    6.5536 C   0  0  2  0  0  0  0  0  0  0  0  0
   36.3183    8.0613    4.7285 N   0  0  0  0  0  0  0  0  0  0  0  0
   39.4381    4.6625    6.3282 N   0  0  0  0  0  0  0  0  0  0  0  0
   37.3689    7.7859    9.5009 O   0  0  0  0  0  0  0  0  0  0  0  0
   36.3877    9.3169    7.3213 O   0  0  0  0  0  0  0  0  0  0  0  0
  1  2  1  0  0  0  0
  1 12  1  6  0  0  0
  1 13  1  0  0  0  0
  2  3  1  0  0  0  0
  2 10  1  6  0  0  0
  4  3  1  6  0  0  0
  4  5  1  0  0  0  0
  4 14  1  0  0  0  0
  5  6  1  0  0  0  0
  5 13  1  1  0  0  0
  6  7  1  0  0  0  0
  6 15  1  1  0  0  0
  7  8  1  0  0  0  0
  7 11  1  1  0  0  0
  8 14  1  0  0  0  0
  8 16  1  6  0  0  0
  9 11  1  0  0  0  0
 17 16  1  6  0  0  0
 17 18  1  0  0  0  0
 17 24  1  0  0  0  0
 18 19  1  0  0  0  0
 18 25  1  1  0  0  0
 19 20  1  0  0  0  0
 19 26  1  1  0  0  0
 20 21  1  0  0  0  0
 20 23  1  6  0  0  0
 21 22  1  6  0  0  0
 21 24  1  0  0  0  0
 22 27  1  0  0  0  0
 28 12  1  1  0  0  0
 28 29  1  0  0  0  0
 28 33  1  0  0  0  0
 29 30  1  0  0  0  0
 29 36  1  1  0  0  0
 30 31  1  0  0  0  0
 30 37  1  6  0  0  0
 31 32  1  0  0  0  0
 31 34  1  6  0  0  0
 32 33  1  0  0  0  0
 33 35  1  1  0  0  0
M  END
>  <CHROM.1>
169.17455359,79.40341955,-75.83706063,-89.19776924,-179.84690252,101.79798652
40.07872647,2.04469361,8.59470619,-2.55927800,1.05949768,-2.31891928

>  <Name>
1yrj_lig

>  <RI>
0

>  <Rbt.Current_Directory>
/home/itssahil/PROJECTS/Mol_Feturizer/New_Systems/rnas/1yrj

>  <Rbt.Executable>
rbdock ($Id: //depot/dev/client3/rdock/2013.1/src/exe/rbdock.cxx#4 $)

>  <Rbt.Library>
libRbt.so (2013.1, Build901 2013/11/27)

>  <Rbt.Parameter_File>
/export/apps/rDock/src/rDock_2013.1_src/data/scripts/dock_solv.prm

>  <Rbt.Receptor>
prm/pocket_docking_8.prm

>  <SCORE>
-25.9895

>  <SCORE.INTER>
-23.4929

>  <SCORE.INTER.CONST>
1

>  <SCORE.INTER.POLAR>
-2.58947

>  <SCORE.INTER.ROT>
6

>  <SCORE.INTER.SOLV>
24.4204

>  <SCORE.INTER.VDW>
-22.7705

>  <SCORE.INTER.norm>
-0.634942

>  <SCORE.INTRA>
-2.49667

>  <SCORE.INTRA.DIHEDRAL>
-4.41997

>  <SCORE.INTRA.DIHEDRAL.0>
15.6389

>  <SCORE.INTRA.POLAR>
0

>  <SCORE.INTRA.POLAR.0>
0

>  <SCORE.INTRA.REPUL>
0

>  <SCORE.INTRA.REPUL.0>
0

>  <SCORE.INTRA.SOLV>
-0.778386

>  <SCORE.INTRA.SOLV.lig_0>
-90.9181

>  <SCORE.INTRA.VDW>
0.102509

>  <SCORE.INTRA.VDW.0>
-3.14158

>  <SCORE.INTRA.norm>
-0.0674775

>  <SCORE.RESTR>
0

>  <SCORE.RESTR.CAVITY>
0

>  <SCORE.RESTR.norm>
0

>  <SCORE.SYSTEM>
0

>  <SCORE.SYSTEM.CONST>
0

>  <SCORE.SYSTEM.DIHEDRAL>
0

>  <SCORE.SYSTEM.SOLV>
0

>  <SCORE.SYSTEM.norm>
0

>  <SCORE.heavy>
37

>  <SCORE.norm>
-0.70242

>  <RMSD>
2.459

$$$$
1yrj_lig
 OpenBabel11021811423D
libRbt.so/2013.1/901 2013/11/27
 37 40  0  0  0  0  0  0  0  0999 V2000
   39.1741    4.8968    9.3739 C   0  0  1  0  0  0  0  0  0  0  0  0
   40.3239    4.7642   10.3917 C   0  0  1  0  0  0  0  0  0  0  0  0
   41.2726    3.6088   10.0346 C   0  0  0  0  0  0  0  0  0  0  0  0
   40.4722    2.2879    9.8926 C   0  0  1  0  0  0  0  0  0  0  0  0
   39.3683    2.4514    8.8306 C   0  0  1  0  0  0  0  0  0  0  0  0
   38.5744    1.0840    8.6960 C   0  0  1  0  0  0  0  0  0  0  0  0
   39.5423   -0.0387    8.2887 C   0  0  1  0  0  0  0  0  0  0  0  0
   40.6561   -0.1285    9.3601 C   0  0  2  0  0  0  0  0  0  0  0  0
   38.0632   -1.5064    6.8174 C   0  0  0  0  0  0  0  0  0  0  0  0
   41.0805    6.0190   10.5329 N   0  0  0  0  0  0  0  0  0  0  0  0
   38.7931   -1.3210    8.1104 N   0  0  0  0  0  0  0  0  0  0  0  0
   39.5815    5.4589    8.1124 O   0  0  0  0  0  0  0  0  0  0  0  0
   38.5101    3.5870    9.2244 O   0  0  0  0  0  0  0  0  0  0  0  0
   41.3377    1.1490    9.5101 O   0  0  0  0  0  0  0  0  0  0  0  0
   38.0277    0.7333    9.9501 O   0  0  0  0  0  0  0  0  0  0  0  0
   41.6383   -1.1101    9.0267 O   0  0  0  0  0  0  0  0  0  0  0  0
   41.1777   -2.4680    9.2208 C   0  0  2  0  0  0  0  0  0  0  0  0
   41.5777   -3.0580   10.5830 C   0  0  1  0  0  0  0  0  0  0  0  0
   43.1089   -3.2979   10.6613 C   0  0  2  0  0  0  0  0  0  0  0  0
   43.5443   -4.2123    9.5392 C   0  0  1  0  0  0  0  0  0  0  0  0
   43.1548   -3.5781    8.1829 C   0  0  1  0  0  0  0  0  0  0  0  0
   43.5157   -4.4612    6.9906 C   0  0  0  0  0  0  0  0  0  0  0  0
   45.0043   -4.4177    9.6374 N   0  0  0  0  0  0  0  0  0  0  0  0
   41.6999   -3.3450    8.1471 O   0  0  0  0  0  0  0  0  0  0  0  0
   41.1138   -2.1728   11.6127 O   0  0  0  0  0  0  0  0  0  0  0  0
   43.4370   -3.9169   11.9127 O   0  0  0  0  0  0  0  0  0  0  0  0
   44.9107   -4.5111    6.8522 O   0  0  0  0  0  0  0  0  0  0  0  0
   38.6326    6.1515    7.1458 C   0  0  1  0  0  0  0  0  0  0  0  0
   38.0687    7.3926    7.8723 C   0  0  1  0  0  0  0  0  0  0  0  0
   37.1373    8.2092    6.9440 C   0  0  2  0  0  0  0  0  0  0  0  0
   37.9028    8.6506    5.6909 C   0  0  1  0  0  0  0  0  0  0  0  0
   38.4434    7.4123    4.9313 C   0  0  0  0  0  0  0  0  0  0  0  0
   39.3746    6.6284    5.8621 C   0  0  2  0  0  0  0  0  0  0  0  0
   37.0037    9.4210    4.8030 N   0  0  0  0  0  0  0  0  0  0  0  0
   39.8755    5.4834    5.1066 N   0  0  0  0  0  0  0  0  0  0  0  0
   37.3104    6.9610    9.0232 O   0  0  0  0  0  0  0  0  0  0  0  0
   36.6603    9.3664    7.6637 O   0  0  0  0  0  0  0  0  0  0  0  0
  1  2  1  0  0  0  0
  1 12  1  6  0  0  0
  1 13  1  0  0  0  0
  2  3  1  0  0  0  0
  2 10  1  6  0  0  0
  4  3  1  6  0  0  0
  4  5  1  0  0  0  0
  4 14  1  0  0  0  0
  5  6  1  0  0  0  0
  5 13  1  1  0  0  0
  6  7  1  0  0  0  0
  6 15  1  1  0  0  0
  7  8  1  0  0  0  0
  7 11  1  1  0  0  0
  8 14  1  0  0  0  0
  8 16  1  6  0  0  0
  9 11  1  0  0  0  0
 17 16  1  6  0  0  0
 17 18  1  0  0  0  0
 17 24  1  0  0  0  0
 18 19  1  0  0  0  0
 18 25  1  1  0  0  0
 19 20  1  0  0  0  0
 19 26  1  1  0  0  0
 20 21  1  0  0  0  0
 20 23  1  6  0  0  0
 21 22  1  6  0  0  0
 21 24  1  0  0  0  0
 22 27  1  0  0  0  0
 28 12  1  1  0  0  0
 28 29  1  0  0  0  0
 28 33  1  0  0  0  0
 29 30  1  0  0  0  0
 29 36  1  1  0  0  0
 30 31  1  0  0  0  0
 30 37  1  1  0  0  0
 31 32  1  0  0  0  0
 31 34  1  6  0  0  0
 32 33  1  0  0  0  0
 33 35  1  6  0  0  0
M  END
>  <CHROM.1>
-157.09659388,80.17214801,-74.41328602,-95.40423899,-69.28308123,62.50551806
40.25124961,1.79701815,8.52230810,3.03831839,1.17383030,-1.65616213

>  <Name>
1yrj_lig

>  <RI>
0

>  <Rbt.Current_Directory>
/home/itssahil/PROJECTS/Mol_Feturizer/New_Systems/rnas/1yrj

>  <Rbt.Executable>
rbdock ($Id: //depot/dev/client3/rdock/2013.1/src/exe/rbdock.cxx#4 $)

>  <Rbt.Library>
libRbt.so (2013.1, Build901 2013/11/27)

>  <Rbt.Parameter_File>
/export/apps/rDock/src/rDock_2013.1_src/data/scripts/dock_solv.prm

>  <Rbt.Receptor>
prm/pocket_docking_7.prm

>  <SCORE>
-22.8768

>  <SCORE.INTER>
-19.9231

>  <SCORE.INTER.CONST>
1

>  <SCORE.INTER.POLAR>
-2.28114

>  <SCORE.INTER.ROT>
6

>  <SCORE.INTER.SOLV>
20.7972

>  <SCORE.INTER.VDW>
-20.2107

>  <SCORE.INTER.norm>
-0.538463

>  <SCORE.INTRA>
-2.95364

>  <SCORE.INTRA.DIHEDRAL>
-7.0818

>  <SCORE.INTRA.DIHEDRAL.0>
15.6389

>  <SCORE.INTRA.POLAR>
0

>  <SCORE.INTRA.POLAR.0>
0

>  <SCORE.INTRA.REPUL>
0

>  <SCORE.INTRA.REPUL.0>
0

>  <SCORE.INTRA.SOLV>
-0.60464

>  <SCORE.INTRA.SOLV.lig_0>
-90.9181

>  <SCORE.INTRA.VDW>
0.889586

>  <SCORE.INTRA.VDW.0>
-3.14158

>  <SCORE.INTRA.norm>
-0.079828

>  <SCORE.RESTR>
0

>  <SCORE.RESTR.CAVITY>
0

>  <SCORE.RESTR.norm>
0

>  <SCORE.SYSTEM>
0

>  <SCORE.SYSTEM.CONST>
0

>  <SCORE.SYSTEM.DIHEDRAL>
0

>  <SCORE.SYSTEM.SOLV>
0

>  <SCORE.SYSTEM.norm>
0

>  <SCORE.heavy>
37

>  <SCORE.norm>
-0.618291

>  <RMSD>
2.475

$$$$
1yrj_lig
 OpenBabel11021811423D
libRbt.so/2013.1/901 2013/11/27
 37 40  0  0  0  0  0  0  0  0999 V2000
   39.1719    5.3318    9.5789 C   0  0  1  0  0  0  0  0  0  0  0  0
   40.2088    5.3465   10.7190 C   0  0  1  0  0  0  0  0  0  0  0  0
   41.3042    4.2889   10.5089 C   0  0  0  0  0  0  0  0  0  0  0  0
   40.6634    2.8879   10.3295 C   0  0  1  0  0  0  0  0  0  0  0  0
   39.6736    2.9076    9.1492 C   0  0  1  0  0  0  0  0  0  0  0  0
   39.0431    1.4613    8.9796 C   0  0  1  0  0  0  0  0  0  0  0  0
   40.1597    0.4369    8.7204 C   0  0  1  0  0  0  0  0  0  0  0  0
   41.1506    0.4918    9.9084 C   0  0  2  0  0  0  0  0  0  0  0  0
   39.0341   -1.2237    7.1450 C   0  0  0  0  0  0  0  0  0  0  0  0
   40.8132    6.6772   10.8953 N   0  0  0  0  0  0  0  0  0  0  0  0
   39.5696   -0.9212    8.5091 N   0  0  0  0  0  0  0  0  0  0  0  0
   39.6577    5.9019    8.3491 O   0  0  0  0  0  0  0  0  0  0  0  0
   38.6657    3.9561    9.4063 O   0  0  0  0  0  0  0  0  0  0  0  0
   41.6776    1.8373   10.0845 O   0  0  0  0  0  0  0  0  0  0  0  0
   38.3989    1.0865   10.1792 O   0  0  0  0  0  0  0  0  0  0  0  0
   42.2587   -0.3890    9.7191 O   0  0  0  0  0  0  0  0  0  0  0  0
   41.8955   -1.7877    9.7914 C   0  0  2  0  0  0  0  0  0  0  0  0
   42.4603   -2.5004   11.0311 C   0  0  1  0  0  0  0  0  0  0  0  0
   44.0027   -2.6453   10.9394 C   0  0  2  0  0  0  0  0  0  0  0  0
   44.3750   -3.3955    9.6811 C   0  0  1  0  0  0  0  0  0  0  0  0
   43.8188   -2.6390    8.4517 C   0  0  1  0  0  0  0  0  0  0  0  0
   44.1084   -3.3552    7.1345 C   0  0  0  0  0  0  0  0  0  0  0  0
   45.8467   -3.5131    9.6198 N   0  0  0  0  0  0  0  0  0  0  0  0
   42.3568   -2.5007    8.5774 O   0  0  0  0  0  0  0  0  0  0  0  0
   42.0522   -1.7705   12.1972 O   0  0  0  0  0  0  0  0  0  0  0  0
   44.4867   -3.3789   12.0728 O   0  0  0  0  0  0  0  0  0  0  0  0
   45.4914   -3.3586    6.8994 O   0  0  0  0  0  0  0  0  0  0  0  0
   38.8344    5.9951    7.0733 C   0  0  1  0  0  0  0  0  0  0  0  0
   39.3259    7.2414    6.3045 C   0  0  1  0  0  0  0  0  0  0  0  0
   38.5919    7.3885    4.9495 C   0  0  2  0  0  0  0  0  0  0  0  0
   38.8152    6.1357    4.0943 C   0  0  1  0  0  0  0  0  0  0  0  0
   38.2924    4.8805    4.8387 C   0  0  0  0  0  0  0  0  0  0  0  0
   39.0429    4.7452    6.1677 C   0  0  2  0  0  0  0  0  0  0  0  0
   38.1019    6.2783    2.8053 N   0  0  0  0  0  0  0  0  0  0  0  0
   38.5364    3.5454    6.8286 N   0  0  0  0  0  0  0  0  0  0  0  0
   39.0666    8.4187    7.1000 O   0  0  0  0  0  0  0  0  0  0  0  0
   39.1062    8.5511    4.2649 O   0  0  0  0  0  0  0  0  0  0  0  0
  1  2  1  0  0  0  0
  1 12  1  6  0  0  0
  1 13  1  0  0  0  0
  2  3  1  0  0  0  0
  2 10  1  6  0  0  0
  4  3  1  6  0  0  0
  4  5  1  0  0  0  0
  4 14  1  0  0  0  0
  5  6  1  0  0  0  0
  5 13  1  1  0  0  0
  6  7  1  0  0  0  0
  6 15  1  1  0  0  0
  7  8  1  0  0  0  0
  7 11  1  1  0  0  0
  8 14  1  0  0  0  0
  8 16  1  6  0  0  0
  9 11  1  0  0  0  0
 17 16  1  6  0  0  0
 17 18  1  0  0  0  0
 17 24  1  0  0  0  0
 18 19  1  0  0  0  0
 18 25  1  1  0  0  0
 19 20  1  0  0  0  0
 19 26  1  1  0  0  0
 20 21  1  0  0  0  0
 20 23  1  6  0  0  0
 21 22  1  6  0  0  0
 21 24  1  0  0  0  0
 22 27  1  0  0  0  0
 28 12  1  1  0  0  0
 28 29  1  0  0  0  0
 28 33  1  0  0  0  0
 29 30  1  0  0  0  0
 29 36  1  1  0  0  0
 30 31  1  0  0  0  0
 30 37  1  6  0  0  0
 31 32  1  0  0  0  0
 31 34  1  6  0  0  0
 32 33  1  0  0  0  0
 33 35  1  1  0  0  0
M  END
>  <CHROM.1>
179.44832219,81.29111635,-69.11367134,-111.38567696,-66.15229432,150.10251081
40.83010441,1.93102921,8.47503156,2.97518448,1.12775489,-1.74082134

>  <Name>
1yrj_lig

>  <RI>
0

>  <Rbt.Current_Directory>
/home/itssahil/PROJECTS/Mol_Feturizer/New_Systems/rnas/1yrj

>  <Rbt.Executable>
rbdock ($Id: //depot/dev/client3/rdock/2013.1/src/exe/rbdock.cxx#4 $)

>  <Rbt.Library>
libRbt.so (2013.1, Build901 2013/11/27)

>  <Rbt.Parameter_File>
/export/apps/rDock/src/rDock_2013.1_src/data/scripts/dock_solv.prm

>  <Rbt.Receptor>
prm/pocket_docking_5.prm

>  <SCORE>
-22.7354

>  <SCORE.INTER>
-23.2553

>  <SCORE.INTER.CONST>
1

>  <SCORE.INTER.POLAR>
-1.85359

>  <SCORE.INTER.ROT>
6

>  <SCORE.INTER.SOLV>
15.1656

>  <SCORE.INTER.VDW>
-21.9801

>  <SCORE.INTER.norm>
-0.628522

>  <SCORE.INTRA>
0.519939

>  <SCORE.INTRA.DIHEDRAL>
-4.2732

>  <SCORE.INTRA.DIHEDRAL.0>
15.6389

>  <SCORE.INTRA.POLAR>
0

>  <SCORE.INTRA.POLAR.0>
0

>  <SCORE.INTRA.REPUL>
0

>  <SCORE.INTRA.REPUL.0>
0

>  <SCORE.INTRA.SOLV>
3.14244

>  <SCORE.INTRA.SOLV.lig_0>
-90.9181

>  <SCORE.INTRA.VDW>
1.08532

>  <SCORE.INTRA.VDW.0>
-3.14158

>  <SCORE.INTRA.norm>
0.0140524

>  <SCORE.RESTR>
0

>  <SCORE.RESTR.CAVITY>
0

>  <SCORE.RESTR.norm>
0

>  <SCORE.SYSTEM>
0

>  <SCORE.SYSTEM.CONST>
0

>  <SCORE.SYSTEM.DIHEDRAL>
0

>  <SCORE.SYSTEM.SOLV>
0

>  <SCORE.SYSTEM.norm>
0

>  <SCORE.heavy>
37

>  <SCORE.norm>
-0.61447

>  <RMSD>
2.523

$$$$
1yrj_lig
 OpenBabel11021811423D
libRbt.so/2013.1/901 2013/11/27
 37 40  0  0  0  0  0  0  0  0999 V2000
   39.2416    5.0894    9.5731 C   0  0  1  0  0  0  0  0  0  0  0  0
   40.3164    4.9852   10.6728 C   0  0  1  0  0  0  0  0  0  0  0  0
   41.3301    3.8684   10.3770 C   0  0  0  0  0  0  0  0  0  0  0  0
   40.5907    2.5219   10.1631 C   0  0  1  0  0  0  0  0  0  0  0  0
   39.5639    2.6591    9.0230 C   0  0  1  0  0  0  0  0  0  0  0  0
   38.8321    1.2663    8.8165 C   0  0  1  0  0  0  0  0  0  0  0  0
   39.8676    0.1833    8.4724 C   0  0  1  0  0  0  0  0  0  0  0  0
   40.9009    0.1201    9.6233 C   0  0  2  0  0  0  0  0  0  0  0  0
   38.6037   -1.3394    6.8630 C   0  0  0  0  0  0  0  0  0  0  0  0
   41.0146    6.2641   10.8820 N   0  0  0  0  0  0  0  0  0  0  0  0
   39.1805   -1.1224    8.2265 N   0  0  0  0  0  0  0  0  0  0  0  0
   39.7213    5.6806    8.3510 O   0  0  0  0  0  0  0  0  0  0  0  0
   38.6384    3.7589    9.3620 O   0  0  0  0  0  0  0  0  0  0  0  0
   41.5229    1.4189    9.8359 O   0  0  0  0  0  0  0  0  0  0  0  0
   38.2065    0.8814   10.0228 O   0  0  0  0  0  0  0  0  0  0  0  0
   41.9400   -0.8222    9.3552 O   0  0  0  0  0  0  0  0  0  0  0  0
   41.4759   -2.1925    9.3297 C   0  0  2  0  0  0  0  0  0  0  0  0
   41.7075   -2.9387   10.6538 C   0  0  1  0  0  0  0  0  0  0  0  0
   43.2193   -3.1895   10.8981 C   0  0  2  0  0  0  0  0  0  0  0  0
   43.8053   -3.9671    9.7419 C   0  0  1  0  0  0  0  0  0  0  0  0
   43.5828   -3.1776    8.4302 C   0  0  1  0  0  0  0  0  0  0  0  0
   44.1032   -3.9159    7.1990 C   0  0  0  0  0  0  0  0  0  0  0  0
   45.2435   -4.1858   10.0008 N   0  0  0  0  0  0  0  0  0  0  0  0
   42.1413   -2.9389    8.2366 O   0  0  0  0  0  0  0  0  0  0  0  0
   41.1055   -2.1791   11.7120 O   0  0  0  0  0  0  0  0  0  0  0  0
   43.3940   -3.9514   12.1006 O   0  0  0  0  0  0  0  0  0  0  0  0
   43.9401   -3.1057    6.0655 O   0  0  0  0  0  0  0  0  0  0  0  0
   38.8691    5.8611    7.1038 C   0  0  1  0  0  0  0  0  0  0  0  0
   39.3432    7.1585    6.4124 C   0  0  1  0  0  0  0  0  0  0  0  0
   38.5786    7.3983    5.0880 C   0  0  2  0  0  0  0  0  0  0  0  0
   38.7821    6.2082    4.1429 C   0  0  1  0  0  0  0  0  0  0  0  0
   38.2762    4.9037    4.8100 C   0  0  0  0  0  0  0  0  0  0  0  0
   39.0567    4.6774    6.1091 C   0  0  2  0  0  0  0  0  0  0  0  0
   38.0396    6.4390    2.8836 N   0  0  0  0  0  0  0  0  0  0  0  0
   38.5652    3.4339    6.6964 N   0  0  0  0  0  0  0  0  0  0  0  0
   39.1024    8.2772    7.2935 O   0  0  0  0  0  0  0  0  0  0  0  0
   39.0773    8.6063    4.4743 O   0  0  0  0  0  0  0  0  0  0  0  0
  1  2  1  0  0  0  0
  1 12  1  6  0  0  0
  1 13  1  0  0  0  0
  2  3  1  0  0  0  0
  2 10  1  6  0  0  0
  4  3  1  6  0  0  0
  4  5  1  0  0  0  0
  4 14  1  0  0  0  0
  5  6  1  0  0  0  0
  5 13  1  1  0  0  0
  6  7  1  0  0  0  0
  6 15  1  1  0  0  0
  7  8  1  0  0  0  0
  7 11  1  1  0  0  0
  8 14  1  0  0  0  0
  8 16  1  6  0  0  0
  9 11  1  0  0  0  0
 17 16  1  1  0  0  0
 17 18  1  0  0  0  0
 17 24  1  0  0  0  0
 18 19  1  0  0  0  0
 18 25  1  1  0  0  0
 19 20  1  0  0  0  0
 19 26  1  1  0  0  0
 20 21  1  0  0  0  0
 20 23  1  1  0  0  0
 21 22  1  6  0  0  0
 21 24  1  0  0  0  0
 22 27  1  0  0  0  0
 28 12  1  1  0  0  0
 28 29  1  0  0  0  0
 28 33  1  0  0  0  0
 29 30  1  0  0  0  0
 29 36  1  1  0  0  0
 30 31  1  0  0  0  0
 30 37  1  6  0  0  0
 31 32  1  0  0  0  0
 31 34  1  6  0  0  0
 32 33  1  0  0  0  0
 33 35  1  1  0  0  0
M  END
>  <CHROM.1>
178.27541455,82.54042293,-66.80234447,-97.61414658,-176.44026097,146.67254286
40.57387026,1.66819065,8.36287054,3.11134685,1.20302509,-1.86453079

>  <Name>
1yrj_lig

>  <RI>
0

>  <Rbt.Current_Directory>
/home/itssahil/PROJECTS/Mol_Feturizer/New_Systems/rnas/1yrj

>  <Rbt.Executable>
rbdock ($Id: //depot/dev/client3/rdock/2013.1/src/exe/rbdock.cxx#4 $)

>  <Rbt.Library>
libRbt.so (2013.1, Build901 2013/11/27)

>  <Rbt.Parameter_File>
/export/apps/rDock/src/rDock_2013.1_src/data/scripts/dock_solv.prm

>  <Rbt.Receptor>
prm/pocket_docking_6.prm

>  <SCORE>
-23.2582

>  <SCORE.INTER>
-22.6066

>  <SCORE.INTER.CONST>
1

>  <SCORE.INTER.POLAR>
-1.85359

>  <SCORE.INTER.ROT>
6

>  <SCORE.INTER.SOLV>
15.7968

>  <SCORE.INTER.VDW>
-21.758

>  <SCORE.INTER.norm>
-0.610989

>  <SCORE.INTRA>
-0.651634

>  <SCORE.INTRA.DIHEDRAL>
-5.67806

>  <SCORE.INTRA.DIHEDRAL.0>
15.6389

>  <SCORE.INTRA.POLAR>
0

>  <SCORE.INTRA.POLAR.0>
0

>  <SCORE.INTRA.REPUL>
0

>  <SCORE.INTRA.REPUL.0>
0

>  <SCORE.INTRA.SOLV>
2.22009

>  <SCORE.INTRA.SOLV.lig_0>
-90.9181

>  <SCORE.INTRA.VDW>
1.07735

>  <SCORE.INTRA.VDW.0>
-3.14158

>  <SCORE.INTRA.norm>
-0.0176117

>  <SCORE.RESTR>
0

>  <SCORE.RESTR.CAVITY>
0

>  <SCORE.RESTR.norm>
0

>  <SCORE.SYSTEM>
0

>  <SCORE.SYSTEM.CONST>
0

>  <SCORE.SYSTEM.DIHEDRAL>
0

>  <SCORE.SYSTEM.SOLV>
0

>  <SCORE.SYSTEM.norm>
0

>  <SCORE.heavy>
37

>  <SCORE.norm>
-0.628601

>  <RMSD>
2.635

$$$$
1yrj_lig
 OpenBabel11021811423D
libRbt.so/2013.1/901 2013/11/27
 37 40  0  0  0  0  0  0  0  0999 V2000
   39.5752    4.6362    9.7200 C   0  0  1  0  0  0  0  0  0  0  0  0
   40.7584    4.1876   10.5998 C   0  0  1  0  0  0  0  0  0  0  0  0
   41.4757    2.9622   10.0112 C   0  0  0  0  0  0  0  0  0  0  0  0
   40.4608    1.8126    9.7789 C   0  0  1  0  0  0  0  0  0  0  0  0
   39.3245    2.2905    8.8551 C   0  0  1  0  0  0  0  0  0  0  0  0
   38.3089    1.0935    8.6236 C   0  0  1  0  0  0  0  0  0  0  0  0
   39.0467   -0.0959    7.9878 C   0  0  1  0  0  0  0  0  0  0  0  0
   40.2055   -0.5045    8.9294 C   0  0  2  0  0  0  0  0  0  0  0  0
   37.6011   -1.3649    6.3125 C   0  0  0  0  0  0  0  0  0  0  0  0
   41.7194    5.2794   10.8270 N   0  0  0  0  0  0  0  0  0  0  0  0
   38.0859   -1.2105    7.7198 N   0  0  0  0  0  0  0  0  0  0  0  0
   39.9765    5.3006    8.5073 O   0  0  0  0  0  0  0  0  0  0  0  0
   38.6958    3.4776    9.4689 O   0  0  0  0  0  0  0  0  0  0  0  0
   41.0971    0.6196    9.1752 O   0  0  0  0  0  0  0  0  0  0  0  0
   37.8047    0.6583    9.8690 O   0  0  0  0  0  0  0  0  0  0  0  0
   40.9860   -1.5685    8.3831 O   0  0  0  0  0  0  0  0  0  0  0  0
   41.8989   -2.1566    9.3393 C   0  0  2  0  0  0  0  0  0  0  0  0
   42.8014   -3.2427    8.7314 C   0  0  1  0  0  0  0  0  0  0  0  0
   41.9819   -4.5059    8.3559 C   0  0  2  0  0  0  0  0  0  0  0  0
   41.2643   -5.0351    9.5765 C   0  0  1  0  0  0  0  0  0  0  0  0
   40.3434   -3.9305   10.1467 C   0  0  1  0  0  0  0  0  0  0  0  0
   39.6128   -4.3649   11.4153 C   0  0  0  0  0  0  0  0  0  0  0  0
   40.4908   -6.2324    9.1871 N   0  0  0  0  0  0  0  0  0  0  0  0
   41.1468   -2.7392   10.4749 O   0  0  0  0  0  0  0  0  0  0  0  0
   43.4835   -2.6824    7.6001 O   0  0  0  0  0  0  0  0  0  0  0  0
   42.8635   -5.5241    7.8630 O   0  0  0  0  0  0  0  0  0  0  0  0
   40.5512   -4.7128   12.3983 O   0  0  0  0  0  0  0  0  0  0  0  0
   39.3045    6.5520    7.9627 C   0  0  1  0  0  0  0  0  0  0  0  0
   37.9713    6.1097    7.3200 C   0  0  1  0  0  0  0  0  0  0  0  0
   37.1740    7.3267    6.7915 C   0  0  2  0  0  0  0  0  0  0  0  0
   36.8925    8.3060    7.9372 C   0  0  1  0  0  0  0  0  0  0  0  0
   38.2242    8.7871    8.5681 C   0  0  0  0  0  0  0  0  0  0  0  0
   38.9887    7.5697    9.0985 C   0  0  2  0  0  0  0  0  0  0  0  0
   36.1399    9.4720    7.4230 N   0  0  0  0  0  0  0  0  0  0  0  0
   40.2245    8.0647    9.6990 N   0  0  0  0  0  0  0  0  0  0  0  0
   38.2521    5.2258    6.2128 O   0  0  0  0  0  0  0  0  0  0  0  0
   35.9307    6.8591    6.2258 O   0  0  0  0  0  0  0  0  0  0  0  0
  1  2  1  0  0  0  0
  1 12  1  6  0  0  0
  1 13  1  0  0  0  0
  2  3  1  0  0  0  0
  2 10  1  6  0  0  0
  4  3  1  6  0  0  0
  4  5  1  0  0  0  0
  4 14  1  0  0  0  0
  5  6  1  0  0  0  0
  5 13  1  1  0  0  0
  6  7  1  0  0  0  0
  6 15  1  1  0  0  0
  7  8  1  0  0  0  0
  7 11  1  1  0  0  0
  8 14  1  0  0  0  0
  8 16  1  6  0  0  0
  9 11  1  0  0  0  0
 17 16  1  6  0  0  0
 17 18  1  0  0  0  0
 17 24  1  0  0  0  0
 18 19  1  0  0  0  0
 18 25  1  6  0  0  0
 19 20  1  0  0  0  0
 19 26  1  1  0  0  0
 20 21  1  0  0  0  0
 20 23  1  6  0  0  0
 21 22  1  1  0  0  0
 21 24  1  0  0  0  0
 22 27  1  0  0  0  0
 28 12  1  1  0  0  0
 28 29  1  0  0  0  0
 28 33  1  0  0  0  0
 29 30  1  0  0  0  0
 29 36  1  6  0  0  0
 30 31  1  0  0  0  0
 30 37  1  1  0  0  0
 31 32  1  0  0  0  0
 31 34  1  6  0  0  0
 32 33  1  0  0  0  0
 33 35  1  6  0  0  0
M  END
>  <CHROM.1>
-137.35528341,100.88096404,-168.14956345,-176.42140277,59.12501525,-76.38532104
39.75587090,1.47378953,8.83255705,-1.91025251,0.66848704,-3.03836921

>  <Name>
1yrj_lig

>  <RI>
0

>  <Rbt.Current_Directory>
/home/itssahil/PROJECTS/Mol_Feturizer/New_Systems/rnas/1yrj

>  <Rbt.Executable>
rbdock ($Id: //depot/dev/client3/rdock/2013.1/src/exe/rbdock.cxx#4 $)

>  <Rbt.Library>
libRbt.so (2013.1, Build901 2013/11/27)

>  <Rbt.Parameter_File>
/export/apps/rDock/src/rDock_2013.1_src/data/scripts/dock_solv.prm

>  <Rbt.Receptor>
prm/pocket_docking_7.prm

>  <SCORE>
-17.6327

>  <SCORE.INTER>
-14.6406

>  <SCORE.INTER.CONST>
1

>  <SCORE.INTER.POLAR>
-1.33687

>  <SCORE.INTER.ROT>
6

>  <SCORE.INTER.SOLV>
21.1929

>  <SCORE.INTER.VDW>
-19.9685

>  <SCORE.INTER.norm>
-0.395693

>  <SCORE.INTRA>
-2.99208

>  <SCORE.INTRA.DIHEDRAL>
-6.92471

>  <SCORE.INTRA.DIHEDRAL.0>
15.6389

>  <SCORE.INTRA.POLAR>
0

>  <SCORE.INTRA.POLAR.0>
0

>  <SCORE.INTRA.REPUL>
0

>  <SCORE.INTRA.REPUL.0>
0

>  <SCORE.INTRA.SOLV>
0.523362

>  <SCORE.INTRA.SOLV.lig_0>
-90.9181

>  <SCORE.INTRA.VDW>
0.208594

>  <SCORE.INTRA.VDW.0>
-3.14158

>  <SCORE.INTRA.norm>
-0.0808671

>  <SCORE.RESTR>
0

>  <SCORE.RESTR.CAVITY>
0

>  <SCORE.RESTR.norm>
0

>  <SCORE.SYSTEM>
0

>  <SCORE.SYSTEM.CONST>
0

>  <SCORE.SYSTEM.DIHEDRAL>
0

>  <SCORE.SYSTEM.SOLV>
0

>  <SCORE.SYSTEM.norm>
0

>  <SCORE.heavy>
37

>  <SCORE.norm>
-0.47656

>  <RMSD>
2.695

$$$$
1yrj_lig
 OpenBabel11021811423D
libRbt.so/2013.1/901 2013/11/27
 37 40  0  0  0  0  0  0  0  0999 V2000
   39.3114    5.7763   10.4925 C   0  0  1  0  0  0  0  0  0  0  0  0
   40.6647    5.5818   11.2040 C   0  0  1  0  0  0  0  0  0  0  0  0
   41.5455    4.5484   10.4839 C   0  0  0  0  0  0  0  0  0  0  0  0
   40.7770    3.2100   10.3293 C   0  0  1  0  0  0  0  0  0  0  0  0
   39.4576    3.4439    9.5695 C   0  0  1  0  0  0  0  0  0  0  0  0
   38.6985    2.0591    9.4139 C   0  0  1  0  0  0  0  0  0  0  0  0
   39.5857    1.0659    8.6459 C   0  0  1  0  0  0  0  0  0  0  0  0
   40.9146    0.9043    9.4234 C   0  0  2  0  0  0  0  0  0  0  0  0
   37.9965   -0.3424    7.2326 C   0  0  0  0  0  0  0  0  0  0  0  0
   41.3925    6.8521   11.3578 N   0  0  0  0  0  0  0  0  0  0  0  0
   38.8577   -0.2261    8.4507 N   0  0  0  0  0  0  0  0  0  0  0  0
   39.4056    6.5282    9.2681 O   0  0  0  0  0  0  0  0  0  0  0  0
   38.6738    4.4588   10.3024 O   0  0  0  0  0  0  0  0  0  0  0  0
   41.5706    2.1909    9.6053 O   0  0  0  0  0  0  0  0  0  0  0  0
   38.4602    1.5083   10.6923 O   0  0  0  0  0  0  0  0  0  0  0  0
   41.8277    0.0415    8.7441 O   0  0  0  0  0  0  0  0  0  0  0  0
   41.4557   -1.3549    8.8166 C   0  0  2  0  0  0  0  0  0  0  0  0
   42.0380   -2.0775   10.0423 C   0  0  1  0  0  0  0  0  0  0  0  0
   43.5773   -2.2330    9.9215 C   0  0  2  0  0  0  0  0  0  0  0  0
   43.9210   -2.9799    8.6531 C   0  0  1  0  0  0  0  0  0  0  0  0
   43.3478   -2.2134    7.4377 C   0  0  1  0  0  0  0  0  0  0  0  0
   43.6079   -2.9255    6.1121 C   0  0  0  0  0  0  0  0  0  0  0  0
   45.3904   -3.1078    8.5642 N   0  0  0  0  0  0  0  0  0  0  0  0
   41.8894   -2.0653    7.5910 O   0  0  0  0  0  0  0  0  0  0  0  0
   41.6567   -1.3503   11.2191 O   0  0  0  0  0  0  0  0  0  0  0  0
   44.0768   -2.9755   11.0423 O   0  0  0  0  0  0  0  0  0  0  0  0
   44.9868   -2.9435    5.8548 O   0  0  0  0  0  0  0  0  0  0  0  0
   38.7720    7.8957    9.0610 C   0  0  1  0  0  0  0  0  0  0  0  0
   39.4255    8.8587   10.0766 C   0  0  1  0  0  0  0  0  0  0  0  0
   38.8938   10.3019    9.9013 C   0  0  2  0  0  0  0  0  0  0  0  0
   39.1713   10.7926    8.4754 C   0  0  1  0  0  0  0  0  0  0  0  0
   38.4899    9.8555    7.4458 C   0  0  0  0  0  0  0  0  0  0  0  0
   39.0420    8.4376    7.6260 C   0  0  2  0  0  0  0  0  0  0  0  0
   38.6507   12.1683    8.3114 N   0  0  0  0  0  0  0  0  0  0  0  0
   38.3908    7.5914    6.6296 N   0  0  0  0  0  0  0  0  0  0  0  0
   39.1169    8.4125   11.4151 O   0  0  0  0  0  0  0  0  0  0  0  0
   39.5541   11.1608   10.8557 O   0  0  0  0  0  0  0  0  0  0  0  0
  1  2  1  0  0  0  0
  1 12  1  6  0  0  0
  1 13  1  0  0  0  0
  2  3  1  0  0  0  0
  2 10  1  6  0  0  0
  4  3  1  6  0  0  0
  4  5  1  0  0  0  0
  4 14  1  0  0  0  0
  5  6  1  0  0  0  0
  5 13  1  1  0  0  0
  6  7  1  0  0  0  0
  6 15  1  1  0  0  0
  7  8  1  0  0  0  0
  7 11  1  1  0  0  0
  8 14  1  0  0  0  0
  8 16  1  6  0  0  0
  9 11  1  0  0  0  0
 17 16  1  6  0  0  0
 17 18  1  0  0  0  0
 17 24  1  0  0  0  0
 18 19  1  0  0  0  0
 18 25  1  1  0  0  0
 19 20  1  0  0  0  0
 19 26  1  1  0  0  0
 20 21  1  0  0  0  0
 20 23  1  6  0  0  0
 21 22  1  6  0  0  0
 21 24  1  0  0  0  0
 22 27  1  0  0  0  0
 28 12  1  6  0  0  0
 28 29  1  0  0  0  0
 28 33  1  0  0  0  0
 29 30  1  0  0  0  0
 29 36  1  1  0  0  0
 30 31  1  0  0  0  0
 30 37  1  1  0  0  0
 31 32  1  0  0  0  0
 31 34  1  1  0  0  0
 32 33  1  0  0  0  0
 33 35  1  6  0  0  0
M  END
>  <CHROM.1>
-114.75027398,87.91768685,-73.50510731,-89.35428123,-65.85947171,62.16784933
40.67863345,3.10705155,9.20790558,-2.35624413,1.10841648,-2.33782092

>  <Name>
1yrj_lig

>  <RI>
0

>  <Rbt.Current_Directory>
/home/itssahil/PROJECTS/Mol_Feturizer/New_Systems/rnas/1yrj

>  <Rbt.Executable>
rbdock ($Id: //depot/dev/client3/rdock/2013.1/src/exe/rbdock.cxx#4 $)

>  <Rbt.Library>
libRbt.so (2013.1, Build901 2013/11/27)

>  <Rbt.Parameter_File>
/export/apps/rDock/src/rDock_2013.1_src/data/scripts/dock_solv.prm

>  <Rbt.Receptor>
prm/pocket_docking_7.prm

>  <SCORE>
-20.6619

>  <SCORE.INTER>
-20.5146

>  <SCORE.INTER.CONST>
1

>  <SCORE.INTER.POLAR>
-1.85359

>  <SCORE.INTER.ROT>
6

>  <SCORE.INTER.SOLV>
12.5175

>  <SCORE.INTER.VDW>
-19.2703

>  <SCORE.INTER.norm>
-0.554449

>  <SCORE.INTRA>
-0.147315

>  <SCORE.INTRA.DIHEDRAL>
-3.59699

>  <SCORE.INTRA.DIHEDRAL.0>
15.6389

>  <SCORE.INTRA.POLAR>
0

>  <SCORE.INTRA.POLAR.0>
0

>  <SCORE.INTRA.REPUL>
0

>  <SCORE.INTRA.REPUL.0>
0

>  <SCORE.INTRA.SOLV>
1.64052

>  <SCORE.INTRA.SOLV.lig_0>
-90.9181

>  <SCORE.INTRA.VDW>
0.830922

>  <SCORE.INTRA.VDW.0>
-3.14158

>  <SCORE.INTRA.norm>
-0.00398148

>  <SCORE.RESTR>
0

>  <SCORE.RESTR.CAVITY>
0

>  <SCORE.RESTR.norm>
0

>  <SCORE.SYSTEM>
0

>  <SCORE.SYSTEM.CONST>
0

>  <SCORE.SYSTEM.DIHEDRAL>
0

>  <SCORE.SYSTEM.SOLV>
0

>  <SCORE.SYSTEM.norm>
0

>  <SCORE.heavy>
37

>  <SCORE.norm>
-0.558431

>  <RMSD>
2.698

$$$$
1yrj_lig
 OpenBabel11021811423D
libRbt.so/2013.1/901 2013/11/27
 37 40  0  0  0  0  0  0  0  0999 V2000
   39.0589    5.8069   10.5156 C   0  0  1  0  0  0  0  0  0  0  0  0
   40.4066    5.7166   11.2577 C   0  0  1  0  0  0  0  0  0  0  0  0
   41.3764    4.7460   10.5652 C   0  0  0  0  0  0  0  0  0  0  0  0
   40.7115    3.3539   10.4048 C   0  0  1  0  0  0  0  0  0  0  0  0
   39.3956    3.4855    9.6148 C   0  0  1  0  0  0  0  0  0  0  0  0
   38.7435    2.0478    9.4541 C   0  0  1  0  0  0  0  0  0  0  0  0
   39.7178    1.1174    8.7134 C   0  0  1  0  0  0  0  0  0  0  0  0
   41.0373    1.0586    9.5207 C   0  0  2  0  0  0  0  0  0  0  0  0
   38.0877   -0.3485    7.4093 C   0  0  0  0  0  0  0  0  0  0  0  0
   41.0360    7.0378   11.4169 N   0  0  0  0  0  0  0  0  0  0  0  0
   39.0907   -0.2257    8.5130 N   0  0  0  0  0  0  0  0  0  0  0  0
   39.1249    6.5557    9.2875 O   0  0  0  0  0  0  0  0  0  0  0  0
   38.5237    4.4449   10.3224 O   0  0  0  0  0  0  0  0  0  0  0  0
   41.5934    2.3911    9.7063 O   0  0  0  0  0  0  0  0  0  0  0  0
   38.5179    1.4893   10.7314 O   0  0  0  0  0  0  0  0  0  0  0  0
   42.0260    0.2608    8.8683 O   0  0  0  0  0  0  0  0  0  0  0  0
   41.7208   -1.1535    8.8849 C   0  0  2  0  0  0  0  0  0  0  0  0
   42.2587   -1.8781   10.1295 C   0  0  1  0  0  0  0  0  0  0  0  0
   43.8084   -1.9553   10.1063 C   0  0  2  0  0  0  0  0  0  0  0  0
   44.2701   -2.6518    8.8467 C   0  0  1  0  0  0  0  0  0  0  0  0
   43.7383   -1.8832    7.6138 C   0  0  1  0  0  0  0  0  0  0  0  0
   44.1186   -2.5474    6.2925 C   0  0  0  0  0  0  0  0  0  0  0  0
   45.7467   -2.7056    8.8513 N   0  0  0  0  0  0  0  0  0  0  0  0
   42.2675   -1.8103    7.6746 O   0  0  0  0  0  0  0  0  0  0  0  0
   41.7665   -1.2008   11.2949 O   0  0  0  0  0  0  0  0  0  0  0  0
   44.2715   -2.7011   11.2405 O   0  0  0  0  0  0  0  0  0  0  0  0
   43.5591   -3.8327    6.2383 O   0  0  0  0  0  0  0  0  0  0  0  0
   39.3884    8.0524    9.2192 C   0  0  1  0  0  0  0  0  0  0  0  0
   39.6742    8.3972    7.7408 C   0  0  1  0  0  0  0  0  0  0  0  0
   39.8906    9.9184    7.5528 C   0  0  2  0  0  0  0  0  0  0  0  0
   38.6523   10.6864    8.0298 C   0  0  1  0  0  0  0  0  0  0  0  0
   38.3750   10.3783    9.5234 C   0  0  0  0  0  0  0  0  0  0  0  0
   38.1479    8.8715    9.6838 C   0  0  2  0  0  0  0  0  0  0  0  0
   38.8703   12.1402    7.8576 N   0  0  0  0  0  0  0  0  0  0  0  0
   37.8731    8.6249   11.0968 N   0  0  0  0  0  0  0  0  0  0  0  0
   40.8693    7.7052    7.3179 O   0  0  0  0  0  0  0  0  0  0  0  0
   40.1283   10.1858    6.1540 O   0  0  0  0  0  0  0  0  0  0  0  0
  1  2  1  0  0  0  0
  1 12  1  6  0  0  0
  1 13  1  0  0  0  0
  2  3  1  0  0  0  0
  2 10  1  6  0  0  0
  4  3  1  6  0  0  0
  4  5  1  0  0  0  0
  4 14  1  0  0  0  0
  5  6  1  0  0  0  0
  5 13  1  1  0  0  0
  6  7  1  0  0  0  0
  6 15  1  1  0  0  0
  7  8  1  0  0  0  0
  7 11  1  1  0  0  0
  8 14  1  0  0  0  0
  8 16  1  6  0  0  0
  9 11  1  0  0  0  0
 17 16  1  1  0  0  0
 17 18  1  0  0  0  0
 17 24  1  0  0  0  0
 18 19  1  0  0  0  0
 18 25  1  1  0  0  0
 19 20  1  0  0  0  0
 19 26  1  1  0  0  0
 20 21  1  0  0  0  0
 20 23  1  6  0  0  0
 21 22  1  6  0  0  0
 21 24  1  0  0  0  0
 22 27  1  0  0  0  0
 28 12  1  6  0  0  0
 28 29  1  0  0  0  0
 28 33  1  0  0  0  0
 29 30  1  0  0  0  0
 29 36  1  1  0  0  0
 30 31  1  0  0  0  0
 30 37  1  6  0  0  0
 31 32  1  0  0  0  0
 31 34  1  1  0  0  0
 32 33  1  0  0  0  0
 33 35  1  1  0  0  0
M  END
>  <CHROM.1>
-67.08361043,77.93768184,-70.53960786,-88.59089921,61.38035262,168.25083057
40.76805801,3.17147706,9.11237018,2.09069198,0.86464543,-0.40416798

>  <Name>
1yrj_lig

>  <RI>
0

>  <Rbt.Current_Directory>
/home/itssahil/PROJECTS/Mol_Feturizer/New_Systems/rnas/1yrj

>  <Rbt.Executable>
rbdock ($Id: //depot/dev/client3/rdock/2013.1/src/exe/rbdock.cxx#4 $)

>  <Rbt.Library>
libRbt.so (2013.1, Build901 2013/11/27)

>  <Rbt.Parameter_File>
/export/apps/rDock/src/rDock_2013.1_src/data/scripts/dock_solv.prm

>  <Rbt.Receptor>
prm/pocket_docking_6.prm

>  <SCORE>
-24.567

>  <SCORE.INTER>
-21.2447

>  <SCORE.INTER.CONST>
1

>  <SCORE.INTER.POLAR>
-1.84723

>  <SCORE.INTER.ROT>
6

>  <SCORE.INTER.SOLV>
11.5516

>  <SCORE.INTER.VDW>
-19.4562

>  <SCORE.INTER.norm>
-0.574182

>  <SCORE.INTRA>
-3.32233

>  <SCORE.INTRA.DIHEDRAL>
-10.5214

>  <SCORE.INTRA.DIHEDRAL.0>
15.6389

>  <SCORE.INTRA.POLAR>
0

>  <SCORE.INTRA.POLAR.0>
0

>  <SCORE.INTRA.REPUL>
0

>  <SCORE.INTRA.REPUL.0>
0

>  <SCORE.INTRA.SOLV>
2.56156

>  <SCORE.INTRA.SOLV.lig_0>
-90.9181

>  <SCORE.INTRA.VDW>
0.657601

>  <SCORE.INTRA.VDW.0>
-3.14158

>  <SCORE.INTRA.norm>
-0.0897926

>  <SCORE.RESTR>
0

>  <SCORE.RESTR.CAVITY>
0

>  <SCORE.RESTR.norm>
0

>  <SCORE.SYSTEM>
0

>  <SCORE.SYSTEM.CONST>
0

>  <SCORE.SYSTEM.DIHEDRAL>
0

>  <SCORE.SYSTEM.SOLV>
0

>  <SCORE.SYSTEM.norm>
0

>  <SCORE.heavy>
37

>  <SCORE.norm>
-0.663974

>  <RMSD>
2.726

$$$$
1yrj_lig
 OpenBabel11021811423D
libRbt.so/2013.1/901 2013/11/27
 37 40  0  0  0  0  0  0  0  0999 V2000
   38.4216    4.5682    8.7532 C   0  0  1  0  0  0  0  0  0  0  0  0
   39.7732    4.8295    9.4464 C   0  0  1  0  0  0  0  0  0  0  0  0
   40.8145    3.7564    9.0908 C   0  0  0  0  0  0  0  0  0  0  0  0
   40.2594    2.3464    9.4213 C   0  0  1  0  0  0  0  0  0  0  0  0
   38.9363    2.1104    8.6684 C   0  0  1  0  0  0  0  0  0  0  0  0
   38.3976    0.6582    9.0134 C   0  0  1  0  0  0  0  0  0  0  0  0
   39.4402   -0.3928    8.5990 C   0  0  1  0  0  0  0  0  0  0  0  0
   40.7612   -0.0823    9.3438 C   0  0  2  0  0  0  0  0  0  0  0  0
   38.0316   -2.3776    7.8354 C   0  0  0  0  0  0  0  0  0  0  0  0
   40.2984    6.1700    9.1393 N   0  0  0  0  0  0  0  0  0  0  0  0
   38.9189   -1.7675    8.8745 N   0  0  0  0  0  0  0  0  0  0  0  0
   38.4279    4.8663    7.3446 O   0  0  0  0  0  0  0  0  0  0  0  0
   37.9934    3.1849    9.0393 O   0  0  0  0  0  0  0  0  0  0  0  0
   41.2125    1.2723    9.0599 O   0  0  0  0  0  0  0  0  0  0  0  0
   38.2174    0.5438   10.4095 O   0  0  0  0  0  0  0  0  0  0  0  0
   41.8080   -0.9782    8.9680 O   0  0  0  0  0  0  0  0  0  0  0  0
   41.5995   -2.3302    9.4393 C   0  0  2  0  0  0  0  0  0  0  0  0
   42.2793   -2.6166   10.7882 C   0  0  1  0  0  0  0  0  0  0  0  0
   43.8243   -2.6358   10.6436 C   0  0  2  0  0  0  0  0  0  0  0  0
   44.2319   -3.6661    9.6154 C   0  0  1  0  0  0  0  0  0  0  0  0
   43.5563   -3.3340    8.2639 C   0  0  1  0  0  0  0  0  0  0  0  0
   43.8760   -4.3558    7.1750 C   0  0  0  0  0  0  0  0  0  0  0  0
   45.7048   -3.6575    9.4970 N   0  0  0  0  0  0  0  0  0  0  0  0
   42.0930   -3.3041    8.4380 O   0  0  0  0  0  0  0  0  0  0  0  0
   41.8352   -1.6346   11.7357 O   0  0  0  0  0  0  0  0  0  0  0  0
   44.4224   -2.9792   11.9011 O   0  0  0  0  0  0  0  0  0  0  0  0
   45.2494   -4.3208    6.8911 O   0  0  0  0  0  0  0  0  0  0  0  0
   38.4544    6.2769    6.7756 C   0  0  1  0  0  0  0  0  0  0  0  0
   38.5397    6.1463    5.2388 C   0  0  1  0  0  0  0  0  0  0  0  0
   38.5046    7.5353    4.5564 C   0  0  2  0  0  0  0  0  0  0  0  0
   37.2167    8.2743    4.9389 C   0  0  1  0  0  0  0  0  0  0  0  0
   37.1358    8.4452    6.4774 C   0  0  0  0  0  0  0  0  0  0  0  0
   37.1556    7.0595    7.1309 C   0  0  2  0  0  0  0  0  0  0  0  0
   37.1949    9.6053    4.2922 N   0  0  0  0  0  0  0  0  0  0  0  0
   37.0599    7.2620    8.5741 N   0  0  0  0  0  0  0  0  0  0  0  0
   39.7788    5.4916    4.8894 O   0  0  0  0  0  0  0  0  0  0  0  0
   38.5619    7.3528    3.1253 O   0  0  0  0  0  0  0  0  0  0  0  0
  1  2  1  0  0  0  0
  1 12  1  6  0  0  0
  1 13  1  0  0  0  0
  2  3  1  0  0  0  0
  2 10  1  6  0  0  0
  4  3  1  6  0  0  0
  4  5  1  0  0  0  0
  4 14  1  0  0  0  0
  5  6  1  0  0  0  0
  5 13  1  1  0  0  0
  6  7  1  0  0  0  0
  6 15  1  1  0  0  0
  7  8  1  0  0  0  0
  7 11  1  1  0  0  0
  8 14  1  0  0  0  0
  8 16  1  6  0  0  0
  9 11  1  0  0  0  0
 17 16  1  6  0  0  0
 17 18  1  0  0  0  0
 17 24  1  0  0  0  0
 18 19  1  0  0  0  0
 18 25  1  1  0  0  0
 19 20  1  0  0  0  0
 19 26  1  1  0  0  0
 20 21  1  0  0  0  0
 20 23  1  6  0  0  0
 21 22  1  6  0  0  0
 21 24  1  0  0  0  0
 22 27  1  0  0  0  0
 28 12  1  1  0  0  0
 28 29  1  0  0  0  0
 28 33  1  0  0  0  0
 29 30  1  0  0  0  0
 29 36  1  1  0  0  0
 30 31  1  0  0  0  0
 30 37  1  6  0  0  0
 31 32  1  0  0  0  0
 31 34  1  6  0  0  0
 32 33  1  0  0  0  0
 33 35  1  1  0  0  0
M  END
>  <CHROM.1>
-72.54588256,83.73082863,-69.32729694,-93.64397947,-64.48615914,176.62579479
40.29684882,1.76422871,8.20281601,2.27170233,0.84052682,-0.87647640

>  <Name>
1yrj_lig

>  <RI>
0

>  <Rbt.Current_Directory>
/home/itssahil/PROJECTS/Mol_Feturizer/New_Systems/rnas/1yrj

>  <Rbt.Executable>
rbdock ($Id: //depot/dev/client3/rdock/2013.1/src/exe/rbdock.cxx#4 $)

>  <Rbt.Library>
libRbt.so (2013.1, Build901 2013/11/27)

>  <Rbt.Parameter_File>
/export/apps/rDock/src/rDock_2013.1_src/data/scripts/dock_solv.prm

>  <Rbt.Receptor>
prm/pocket_docking_5.prm

>  <SCORE>
-21.8149

>  <SCORE.INTER>
-19.1421

>  <SCORE.INTER.CONST>
1

>  <SCORE.INTER.POLAR>
-2.06249

>  <SCORE.INTER.ROT>
6

>  <SCORE.INTER.SOLV>
17.0666

>  <SCORE.INTER.VDW>
-19.1753

>  <SCORE.INTER.norm>
-0.517353

>  <SCORE.INTRA>
-2.67287

>  <SCORE.INTRA.DIHEDRAL>
-9.57493

>  <SCORE.INTRA.DIHEDRAL.0>
15.6389

>  <SCORE.INTRA.POLAR>
0

>  <SCORE.INTRA.POLAR.0>
0

>  <SCORE.INTRA.REPUL>
0

>  <SCORE.INTRA.REPUL.0>
0

>  <SCORE.INTRA.SOLV>
2.89648

>  <SCORE.INTRA.SOLV.lig_0>
-90.9181

>  <SCORE.INTRA.VDW>
0.666354

>  <SCORE.INTRA.VDW.0>
-3.14158

>  <SCORE.INTRA.norm>
-0.0722396

>  <SCORE.RESTR>
0

>  <SCORE.RESTR.CAVITY>
0

>  <SCORE.RESTR.norm>
0

>  <SCORE.SYSTEM>
0

>  <SCORE.SYSTEM.CONST>
0

>  <SCORE.SYSTEM.DIHEDRAL>
0

>  <SCORE.SYSTEM.SOLV>
0

>  <SCORE.SYSTEM.norm>
0

>  <SCORE.heavy>
37

>  <SCORE.norm>
-0.589593

>  <RMSD>
2.791

$$$$
1yrj_lig
 OpenBabel11021811423D
libRbt.so/2013.1/901 2013/11/27
 37 40  0  0  0  0  0  0  0  0999 V2000
   39.4511    4.1763   10.0333 C   0  0  1  0  0  0  0  0  0  0  0  0
   40.8387    3.8684   10.6293 C   0  0  1  0  0  0  0  0  0  0  0  0
   41.5706    2.7734    9.8370 C   0  0  0  0  0  0  0  0  0  0  0  0
   40.6867    1.5022    9.7456 C   0  0  1  0  0  0  0  0  0  0  0  0
   39.3318    1.8470    9.0988 C   0  0  1  0  0  0  0  0  0  0  0  0
   38.4535    0.5288    9.0055 C   0  0  1  0  0  0  0  0  0  0  0  0
   39.1909   -0.5263    8.1650 C   0  0  1  0  0  0  0  0  0  0  0  0
   40.5624   -0.8000    8.8287 C   0  0  2  0  0  0  0  0  0  0  0  0
   37.2610   -1.7213    7.0015 C   0  0  0  0  0  0  0  0  0  0  0  0
   41.6767    5.0750   10.7232 N   0  0  0  0  0  0  0  0  0  0  0  0
   38.3475   -1.7542    8.0298 N   0  0  0  0  0  0  0  0  0  0  0  0
   39.5035    4.9278    8.8063 O   0  0  0  0  0  0  0  0  0  0  0  0
   38.6959    2.9156    9.8957 O   0  0  0  0  0  0  0  0  0  0  0  0
   41.3328    0.4285    8.9567 O   0  0  0  0  0  0  0  0  0  0  0  0
   38.2786   -0.0112   10.2987 O   0  0  0  0  0  0  0  0  0  0  0  0
   41.3435   -1.7278    8.0747 O   0  0  0  0  0  0  0  0  0  0  0  0
   42.6170   -2.0346    8.6894 C   0  0  2  0  0  0  0  0  0  0  0  0
   43.8086   -1.3583    7.9922 C   0  0  1  0  0  0  0  0  0  0  0  0
   44.0544   -1.9679    6.5864 C   0  0  2  0  0  0  0  0  0  0  0  0
   44.2849   -3.4571    6.7046 C   0  0  1  0  0  0  0  0  0  0  0  0
   43.0579   -4.1119    7.3821 C   0  0  1  0  0  0  0  0  0  0  0  0
   43.2263   -5.6158    7.5863 C   0  0  0  0  0  0  0  0  0  0  0  0
   44.5108   -4.0085    5.3524 N   0  0  0  0  0  0  0  0  0  0  0  0
   42.8393   -3.4993    8.7047 O   0  0  0  0  0  0  0  0  0  0  0  0
   43.5572    0.0533    7.9351 O   0  0  0  0  0  0  0  0  0  0  0  0
   45.2158   -1.3679    5.9965 O   0  0  0  0  0  0  0  0  0  0  0  0
   43.3827   -6.2412    6.3404 O   0  0  0  0  0  0  0  0  0  0  0  0
   38.3280    5.7091    8.2386 C   0  0  1  0  0  0  0  0  0  0  0  0
   38.0087    6.8419    9.2391 C   0  0  1  0  0  0  0  0  0  0  0  0
   36.8624    7.7421    8.7179 C   0  0  2  0  0  0  0  0  0  0  0  0
   37.2463    8.3466    7.3621 C   0  0  1  0  0  0  0  0  0  0  0  0
   37.5339    7.2199    6.3370 C   0  0  0  0  0  0  0  0  0  0  0  0
   38.6811    6.3520    6.8646 C   0  0  2  0  0  0  0  0  0  0  0  0
   36.1418    9.1968    6.8646 N   0  0  0  0  0  0  0  0  0  0  0  0
   38.9330    5.3166    5.8659 N   0  0  0  0  0  0  0  0  0  0  0  0
   37.6028    6.2594   10.4968 O   0  0  0  0  0  0  0  0  0  0  0  0
   36.6235    8.7944    9.6771 O   0  0  0  0  0  0  0  0  0  0  0  0
  1  2  1  0  0  0  0
  1 12  1  6  0  0  0
  1 13  1  0  0  0  0
  2  3  1  0  0  0  0
  2 10  1  6  0  0  0
  4  3  1  6  0  0  0
  4  5  1  0  0  0  0
  4 14  1  0  0  0  0
  5  6  1  0  0  0  0
  5 13  1  1  0  0  0
  6  7  1  0  0  0  0
  6 15  1  1  0  0  0
  7  8  1  0  0  0  0
  7 11  1  1  0  0  0
  8 14  1  0  0  0  0
  8 16  1  6  0  0  0
  9 11  1  0  0  0  0
 17 16  1  6  0  0  0
 17 18  1  0  0  0  0
 17 24  1  0  0  0  0
 18 19  1  0  0  0  0
 18 25  1  6  0  0  0
 19 20  1  0  0  0  0
 19 26  1  1  0  0  0
 20 21  1  0  0  0  0
 20 23  1  6  0  0  0
 21 22  1  1  0  0  0
 21 24  1  0  0  0  0
 22 27  1  0  0  0  0
 28 12  1  1  0  0  0
 28 29  1  0  0  0  0
 28 33  1  0  0  0  0
 29 30  1  0  0  0  0
 29 36  1  1  0  0  0
 30 31  1  0  0  0  0
 30 37  1  1  0  0  0
 31 32  1  0  0  0  0
 31 34  1  6  0  0  0
 32 33  1  0  0  0  0
 33 35  1  6  0  0  0
M  END
>  <CHROM.1>
-160.99408810,80.17166932,-178.31431937,-105.20166902,-61.27934925,64.52190936
40.36454791,1.56894133,8.28037552,2.06604366,0.28095233,-0.02810782

>  <Name>
1yrj_lig

>  <RI>
0

>  <Rbt.Current_Directory>
/home/itssahil/PROJECTS/Mol_Feturizer/New_Systems/rnas/1yrj

>  <Rbt.Executable>
rbdock ($Id: //depot/dev/client3/rdock/2013.1/src/exe/rbdock.cxx#4 $)

>  <Rbt.Library>
libRbt.so (2013.1, Build901 2013/11/27)

>  <Rbt.Parameter_File>
/export/apps/rDock/src/rDock_2013.1_src/data/scripts/dock_solv.prm

>  <Rbt.Receptor>
prm/pocket_docking_7.prm

>  <SCORE>
-18.3609

>  <SCORE.INTER>
-15.6468

>  <SCORE.INTER.CONST>
1

>  <SCORE.INTER.POLAR>
-0.959166

>  <SCORE.INTER.ROT>
6

>  <SCORE.INTER.SOLV>
25.5637

>  <SCORE.INTER.VDW>
-23.3553

>  <SCORE.INTER.norm>
-0.422888

>  <SCORE.INTRA>
-2.7141

>  <SCORE.INTRA.DIHEDRAL>
-7.34865

>  <SCORE.INTRA.DIHEDRAL.0>
15.6389

>  <SCORE.INTRA.POLAR>
0

>  <SCORE.INTRA.POLAR.0>
0

>  <SCORE.INTRA.REPUL>
0

>  <SCORE.INTRA.REPUL.0>
0

>  <SCORE.INTRA.SOLV>
-1.11047

>  <SCORE.INTRA.SOLV.lig_0>
-90.9181

>  <SCORE.INTRA.VDW>
1.51546

>  <SCORE.INTRA.VDW.0>
-3.14158

>  <SCORE.INTRA.norm>
-0.0733541

>  <SCORE.RESTR>
0

>  <SCORE.RESTR.CAVITY>
0

>  <SCORE.RESTR.norm>
0

>  <SCORE.SYSTEM>
0

>  <SCORE.SYSTEM.CONST>
0

>  <SCORE.SYSTEM.DIHEDRAL>
0

>  <SCORE.SYSTEM.SOLV>
0

>  <SCORE.SYSTEM.norm>
0

>  <SCORE.heavy>
37

>  <SCORE.norm>
-0.496242

>  <RMSD>
2.804

$$$$
1yrj_lig
 OpenBabel11021811423D
libRbt.so/2013.1/901 2013/11/27
 37 40  0  0  0  0  0  0  0  0999 V2000
   39.5317    4.6584   10.1432 C   0  0  1  0  0  0  0  0  0  0  0  0
   40.9339    4.2375   10.6248 C   0  0  1  0  0  0  0  0  0  0  0  0
   41.5329    3.1308    9.7423 C   0  0  0  0  0  0  0  0  0  0  0  0
   40.5612    1.9241    9.6699 C   0  0  1  0  0  0  0  0  0  0  0  0
   39.1904    2.3817    9.1366 C   0  0  1  0  0  0  0  0  0  0  0  0
   38.2210    1.1277    9.0602 C   0  0  1  0  0  0  0  0  0  0  0  0
   38.8247    0.0624    8.1307 C   0  0  1  0  0  0  0  0  0  0  0  0
   40.2181   -0.3260    8.6822 C   0  0  2  0  0  0  0  0  0  0  0  0
   37.7156   -1.6943    6.6507 C   0  0  0  0  0  0  0  0  0  0  0  0
   41.8557    5.3828   10.7006 N   0  0  0  0  0  0  0  0  0  0  0  0
   37.8933   -1.1021    8.0133 N   0  0  0  0  0  0  0  0  0  0  0  0
   39.5478    5.4543    8.9434 O   0  0  0  0  0  0  0  0  0  0  0  0
   38.6855    3.4557   10.0157 O   0  0  0  0  0  0  0  0  0  0  0  0
   41.0764    0.8440    8.7978 O   0  0  0  0  0  0  0  0  0  0  0  0
   38.1018    0.5479   10.3425 O   0  0  0  0  0  0  0  0  0  0  0  0
   40.8799   -1.2707    7.8402 O   0  0  0  0  0  0  0  0  0  0  0  0
   42.1549   -1.7092    8.3655 C   0  0  2  0  0  0  0  0  0  0  0  0
   42.7658   -2.8820    7.5813 C   0  0  1  0  0  0  0  0  0  0  0  0
   41.9463   -4.1831    7.7910 C   0  0  2  0  0  0  0  0  0  0  0  0
   41.8718   -4.5123    9.2644 C   0  0  1  0  0  0  0  0  0  0  0  0
   41.2266   -3.3269   10.0207 C   0  0  1  0  0  0  0  0  0  0  0  0
   41.1554   -3.5549   11.5289 C   0  0  0  0  0  0  0  0  0  0  0  0
   41.0831   -5.7505    9.4320 N   0  0  0  0  0  0  0  0  0  0  0  0
   42.0155   -2.1042    9.7865 O   0  0  0  0  0  0  0  0  0  0  0  0
   42.8458   -2.5081    6.1982 O   0  0  0  0  0  0  0  0  0  0  0  0
   42.5847   -5.2708    7.1082 O   0  0  0  0  0  0  0  0  0  0  0  0
   40.2344   -4.5767   11.8035 O   0  0  0  0  0  0  0  0  0  0  0  0
   40.3456    6.7404    8.7888 C   0  0  1  0  0  0  0  0  0  0  0  0
   40.0968    7.2608    7.3558 C   0  0  1  0  0  0  0  0  0  0  0  0
   40.8160    8.6107    7.1180 C   0  0  2  0  0  0  0  0  0  0  0  0
   40.3285    9.6501    8.1343 C   0  0  1  0  0  0  0  0  0  0  0  0
   40.6057    9.1569    9.5775 C   0  0  0  0  0  0  0  0  0  0  0  0
   39.8720    7.8296    9.7963 C   0  0  2  0  0  0  0  0  0  0  0  0
   41.0281   10.9346    7.9084 N   0  0  0  0  0  0  0  0  0  0  0  0
   40.1425    7.4085   11.1683 N   0  0  0  0  0  0  0  0  0  0  0  0
   40.6031    6.2949    6.4090 O   0  0  0  0  0  0  0  0  0  0  0  0
   40.5299    9.0610    5.7763 O   0  0  0  0  0  0  0  0  0  0  0  0
  1  2  1  0  0  0  0
  1 12  1  6  0  0  0
  1 13  1  0  0  0  0
  2  3  1  0  0  0  0
  2 10  1  6  0  0  0
  4  3  1  6  0  0  0
  4  5  1  0  0  0  0
  4 14  1  0  0  0  0
  5  6  1  0  0  0  0
  5 13  1  1  0  0  0
  6  7  1  0  0  0  0
  6 15  1  1  0  0  0
  7  8  1  0  0  0  0
  7 11  1  1  0  0  0
  8 14  1  0  0  0  0
  8 16  1  6  0  0  0
  9 11  1  0  0  0  0
 17 16  1  6  0  0  0
 17 18  1  0  0  0  0
 17 24  1  0  0  0  0
 18 19  1  0  0  0  0
 18 25  1  6  0  0  0
 19 20  1  0  0  0  0
 19 26  1  6  0  0  0
 20 21  1  0  0  0  0
 20 23  1  6  0  0  0
 21 22  1  1  0  0  0
 21 24  1  0  0  0  0
 22 27  1  0  0  0  0
 28 12  1  1  0  0  0
 28 29  1  0  0  0  0
 28 33  1  0  0  0  0
 29 30  1  0  0  0  0
 29 36  1  6  0  0  0
 30 31  1  0  0  0  0
 30 37  1  6  0  0  0
 31 32  1  0  0  0  0
 31 34  1  6  0  0  0
 32 33  1  0  0  0  0
 33 35  1  1  0  0  0
M  END
>  <CHROM.1>
-54.79541704,138.07045714,-176.85474372,170.96140802,-68.56685150,179.35987986
40.51390702,1.87040938,8.82973982,1.74671491,1.16904974,-0.19603416

>  <Name>
1yrj_lig

>  <RI>
0

>  <Rbt.Current_Directory>
/home/itssahil/PROJECTS/Mol_Feturizer/New_Systems/rnas/1yrj

>  <Rbt.Executable>
rbdock ($Id: //depot/dev/client3/rdock/2013.1/src/exe/rbdock.cxx#4 $)

>  <Rbt.Library>
libRbt.so (2013.1, Build901 2013/11/27)

>  <Rbt.Parameter_File>
/export/apps/rDock/src/rDock_2013.1_src/data/scripts/dock_solv.prm

>  <Rbt.Receptor>
prm/pocket_docking_4.prm

>  <SCORE>
-19.4308

>  <SCORE.INTER>
-15.2981

>  <SCORE.INTER.CONST>
1

>  <SCORE.INTER.POLAR>
-0.959166

>  <SCORE.INTER.ROT>
6

>  <SCORE.INTER.SOLV>
12.5228

>  <SCORE.INTER.VDW>
-18.7758

>  <SCORE.INTER.norm>
-0.413461

>  <SCORE.INTRA>
-4.13272

>  <SCORE.INTRA.DIHEDRAL>
-13.741

>  <SCORE.INTRA.DIHEDRAL.0>
15.6389

>  <SCORE.INTRA.POLAR>
0

>  <SCORE.INTRA.POLAR.0>
0

>  <SCORE.INTRA.REPUL>
0

>  <SCORE.INTRA.REPUL.0>
0

>  <SCORE.INTRA.SOLV>
3.65803

>  <SCORE.INTRA.SOLV.lig_0>
-90.9181

>  <SCORE.INTRA.VDW>
0.908762

>  <SCORE.INTRA.VDW.0>
-3.14158

>  <SCORE.INTRA.norm>
-0.111695

>  <SCORE.RESTR>
0

>  <SCORE.RESTR.CAVITY>
0

>  <SCORE.RESTR.norm>
0

>  <SCORE.SYSTEM>
0

>  <SCORE.SYSTEM.CONST>
0

>  <SCORE.SYSTEM.DIHEDRAL>
0

>  <SCORE.SYSTEM.SOLV>
0

>  <SCORE.SYSTEM.norm>
0

>  <SCORE.heavy>
37

>  <SCORE.norm>
-0.525156

>  <RMSD>
2.827

$$$$
1yrj_lig
 OpenBabel11021811423D
libRbt.so/2013.1/901 2013/11/27
 37 40  0  0  0  0  0  0  0  0999 V2000
   39.3284    5.8061   10.3880 C   0  0  1  0  0  0  0  0  0  0  0  0
   40.6792    5.5645   11.0897 C   0  0  1  0  0  0  0  0  0  0  0  0
   41.4897    4.4542   10.4023 C   0  0  0  0  0  0  0  0  0  0  0  0
   40.6451    3.1563   10.3137 C   0  0  1  0  0  0  0  0  0  0  0  0
   39.3295    3.4332    9.5617 C   0  0  1  0  0  0  0  0  0  0  0  0
   38.4917    2.0884    9.4739 C   0  0  1  0  0  0  0  0  0  0  0  0
   39.3101    1.0158    8.7369 C   0  0  1  0  0  0  0  0  0  0  0  0
   40.6394    0.8112    9.5035 C   0  0  2  0  0  0  0  0  0  0  0  0
   37.5456   -0.3136    7.4618 C   0  0  0  0  0  0  0  0  0  0  0  0
   41.4793    6.7968   11.1808 N   0  0  0  0  0  0  0  0  0  0  0  0
   38.5079   -0.2398    8.6054 N   0  0  0  0  0  0  0  0  0  0  0  0
   39.4461    6.5005    9.1321 O   0  0  0  0  0  0  0  0  0  0  0  0
   38.6150    4.5200   10.2614 O   0  0  0  0  0  0  0  0  0  0  0  0
   41.3693    2.0650    9.6229 O   0  0  0  0  0  0  0  0  0  0  0  0
   38.2422    1.6049   10.7773 O   0  0  0  0  0  0  0  0  0  0  0  0
   41.4923   -0.1291    8.8493 O   0  0  0  0  0  0  0  0  0  0  0  0
   40.9884   -1.4847    8.8936 C   0  0  2  0  0  0  0  0  0  0  0  0
   41.7549   -2.3878    9.8736 C   0  0  1  0  0  0  0  0  0  0  0  0
   43.1938   -2.6706    9.3658 C   0  0  2  0  0  0  0  0  0  0  0  0
   43.1402   -3.3027    7.9938 C   0  0  1  0  0  0  0  0  0  0  0  0
   42.3899   -2.3583    7.0251 C   0  0  1  0  0  0  0  0  0  0  0  0
   42.2462   -2.9419    5.6214 C   0  0  0  0  0  0  0  0  0  0  0  0
   44.5223   -3.5552    7.5362 N   0  0  0  0  0  0  0  0  0  0  0  0
   41.0359   -2.0938    7.5439 O   0  0  0  0  0  0  0  0  0  0  0  0
   41.7484   -1.7616   11.1647 O   0  0  0  0  0  0  0  0  0  0  0  0
   43.8534   -3.5742   10.2633 O   0  0  0  0  0  0  0  0  0  0  0  0
   41.4416   -2.0955    4.8442 O   0  0  0  0  0  0  0  0  0  0  0  0
   39.7381    7.9884    9.0091 C   0  0  1  0  0  0  0  0  0  0  0  0
   40.0160    8.2758    7.5171 C   0  0  1  0  0  0  0  0  0  0  0  0
   40.2602    9.7849    7.2739 C   0  0  2  0  0  0  0  0  0  0  0  0
   39.0418   10.5935    7.7350 C   0  0  1  0  0  0  0  0  0  0  0  0
   38.7732   10.3431    9.2410 C   0  0  0  0  0  0  0  0  0  0  0  0
   38.5184    8.8476    9.4561 C   0  0  2  0  0  0  0  0  0  0  0  0
   39.2864   12.0357    7.5101 N   0  0  0  0  0  0  0  0  0  0  0  0
   38.2527    8.6558   10.8793 N   0  0  0  0  0  0  0  0  0  0  0  0
   41.1932    7.5459    7.1077 O   0  0  0  0  0  0  0  0  0  0  0  0
   40.4893    9.9987    5.8645 O   0  0  0  0  0  0  0  0  0  0  0  0
  1  2  1  0  0  0  0
  1 12  1  6  0  0  0
  1 13  1  0  0  0  0
  2  3  1  0  0  0  0
  2 10  1  6  0  0  0
  4  3  1  6  0  0  0
  4  5  1  0  0  0  0
  4 14  1  0  0  0  0
  5  6  1  0  0  0  0
  5 13  1  1  0  0  0
  6  7  1  0  0  0  0
  6 15  1  1  0  0  0
  7  8  1  0  0  0  0
  7 11  1  1  0  0  0
  8 14  1  0  0  0  0
  8 16  1  6  0  0  0
  9 11  1  0  0  0  0
 17 16  1  6  0  0  0
 17 18  1  0  0  0  0
 17 24  1  0  0  0  0
 18 19  1  0  0  0  0
 18 25  1  1  0  0  0
 19 20  1  0  0  0  0
 19 26  1  1  0  0  0
 20 21  1  0  0  0  0
 20 23  1  6  0  0  0
 21 22  1  6  0  0  0
 21 24  1  0  0  0  0
 22 27  1  0  0  0  0
 28 12  1  6  0  0  0
 28 29  1  0  0  0  0
 28 33  1  0  0  0  0
 29 30  1  0  0  0  0
 29 36  1  1  0  0  0
 30 31  1  0  0  0  0
 30 37  1  6  0  0  0
 31 32  1  0  0  0  0
 31 34  1  1  0  0  0
 32 33  1  0  0  0  0
 33 35  1  1  0  0  0
M  END
>  <CHROM.1>
-74.59995328,83.36319985,-68.86449081,-106.25321287,173.97781549,170.65527655
40.50908160,2.99898813,8.82486516,2.14172730,1.17113186,-0.51112202

>  <Name>
1yrj_lig

>  <RI>
0

>  <Rbt.Current_Directory>
/home/itssahil/PROJECTS/Mol_Feturizer/New_Systems/rnas/1yrj

>  <Rbt.Executable>
rbdock ($Id: //depot/dev/client3/rdock/2013.1/src/exe/rbdock.cxx#4 $)

>  <Rbt.Library>
libRbt.so (2013.1, Build901 2013/11/27)

>  <Rbt.Parameter_File>
/export/apps/rDock/src/rDock_2013.1_src/data/scripts/dock_solv.prm

>  <Rbt.Receptor>
prm/pocket_docking_8.prm

>  <SCORE>
-23.6112

>  <SCORE.INTER>
-21.3292

>  <SCORE.INTER.CONST>
1

>  <SCORE.INTER.POLAR>
-1.85359

>  <SCORE.INTER.ROT>
6

>  <SCORE.INTER.SOLV>
12.5232

>  <SCORE.INTER.VDW>
-19.8152

>  <SCORE.INTER.norm>
-0.576465

>  <SCORE.INTRA>
-2.28199

>  <SCORE.INTRA.DIHEDRAL>
-6.94102

>  <SCORE.INTRA.DIHEDRAL.0>
15.6389

>  <SCORE.INTRA.POLAR>
0

>  <SCORE.INTRA.POLAR.0>
0

>  <SCORE.INTRA.REPUL>
0

>  <SCORE.INTRA.REPUL.0>
0

>  <SCORE.INTRA.SOLV>
1.31805

>  <SCORE.INTRA.SOLV.lig_0>
-90.9181

>  <SCORE.INTRA.VDW>
0.52949

>  <SCORE.INTRA.VDW.0>
-3.14158

>  <SCORE.INTRA.norm>
-0.0616755

>  <SCORE.RESTR>
0

>  <SCORE.RESTR.CAVITY>
0

>  <SCORE.RESTR.norm>
0

>  <SCORE.SYSTEM>
0

>  <SCORE.SYSTEM.CONST>
0

>  <SCORE.SYSTEM.DIHEDRAL>
0

>  <SCORE.SYSTEM.SOLV>
0

>  <SCORE.SYSTEM.norm>
0

>  <SCORE.heavy>
37

>  <SCORE.norm>
-0.63814

>  <RMSD>
2.839

$$$$
1yrj_lig
 OpenBabel11021811423D
libRbt.so/2013.1/901 2013/11/27
 37 40  0  0  0  0  0  0  0  0999 V2000
   38.7021    4.4883    8.9406 C   0  0  1  0  0  0  0  0  0  0  0  0
   40.0737    4.5928    9.6357 C   0  0  1  0  0  0  0  0  0  0  0  0
   40.9991    3.4273    9.2517 C   0  0  0  0  0  0  0  0  0  0  0  0
   40.3023    2.0742    9.5503 C   0  0  1  0  0  0  0  0  0  0  0  0
   38.9616    1.9933    8.7959 C   0  0  1  0  0  0  0  0  0  0  0  0
   38.2767    0.5963    9.1079 C   0  0  1  0  0  0  0  0  0  0  0  0
   39.2056   -0.5459    8.6656 C   0  0  1  0  0  0  0  0  0  0  0  0
   40.5520   -0.3906    9.4137 C   0  0  2  0  0  0  0  0  0  0  0  0
   37.4644   -2.2706    7.9583 C   0  0  0  0  0  0  0  0  0  0  0  0
   40.7336    5.8792    9.3590 N   0  0  0  0  0  0  0  0  0  0  0  0
   38.5461   -1.8660    8.9099 N   0  0  0  0  0  0  0  0  0  0  0  0
   38.7383    4.8178    7.5394 O   0  0  0  0  0  0  0  0  0  0  0  0
   38.1342    3.1499    9.1950 O   0  0  0  0  0  0  0  0  0  0  0  0
   41.1398    0.9169    9.1607 O   0  0  0  0  0  0  0  0  0  0  0  0
   38.0864    0.4677   10.5014 O   0  0  0  0  0  0  0  0  0  0  0  0
   41.5010   -1.3800    9.0136 O   0  0  0  0  0  0  0  0  0  0  0  0
   41.1241   -2.7224    9.4000 C   0  0  2  0  0  0  0  0  0  0  0  0
   41.6304   -3.1191   10.7964 C   0  0  1  0  0  0  0  0  0  0  0  0
   43.1741   -3.2780   10.8079 C   0  0  2  0  0  0  0  0  0  0  0  0
   43.5933   -4.3046    9.7807 C   0  0  1  0  0  0  0  0  0  0  0  0
   43.0954   -3.8627    8.3841 C   0  0  1  0  0  0  0  0  0  0  0  0
   43.4346   -4.8705    7.2882 C   0  0  0  0  0  0  0  0  0  0  0  0
   45.0652   -4.4299    9.8121 N   0  0  0  0  0  0  0  0  0  0  0  0
   41.6305   -3.7021    8.4107 O   0  0  0  0  0  0  0  0  0  0  0  0
   41.1793   -2.1342   11.7374 O   0  0  0  0  0  0  0  0  0  0  0  0
   43.6041   -3.7204   12.1026 O   0  0  0  0  0  0  0  0  0  0  0  0
   42.7993   -6.0906    7.5632 O   0  0  0  0  0  0  0  0  0  0  0  0
   38.6956    6.2398    7.0004 C   0  0  1  0  0  0  0  0  0  0  0  0
   38.6441    6.1412    5.4597 C   0  0  1  0  0  0  0  0  0  0  0  0
   38.5302    7.5429    4.8129 C   0  0  2  0  0  0  0  0  0  0  0  0
   37.2726    8.2553    5.3249 C   0  0  1  0  0  0  0  0  0  0  0  0
   37.3281    8.3942    6.8677 C   0  0  0  0  0  0  0  0  0  0  0  0
   37.4242    6.9961    7.4873 C   0  0  2  0  0  0  0  0  0  0  0  0
   37.1758    9.5986    4.7112 N   0  0  0  0  0  0  0  0  0  0  0  0
   37.4560    7.1682    8.9371 N   0  0  0  0  0  0  0  0  0  0  0  0
   39.8549    5.5117    4.9869 O   0  0  0  0  0  0  0  0  0  0  0  0
   38.4609    7.3900    3.3788 O   0  0  0  0  0  0  0  0  0  0  0  0
  1  2  1  0  0  0  0
  1 12  1  6  0  0  0
  1 13  1  0  0  0  0
  2  3  1  0  0  0  0
  2 10  1  6  0  0  0
  4  3  1  6  0  0  0
  4  5  1  0  0  0  0
  4 14  1  0  0  0  0
  5  6  1  0  0  0  0
  5 13  1  1  0  0  0
  6  7  1  0  0  0  0
  6 15  1  1  0  0  0
  7  8  1  0  0  0  0
  7 11  1  1  0  0  0
  8 14  1  0  0  0  0
  8 16  1  6  0  0  0
  9 11  1  0  0  0  0
 17 16  1  6  0  0  0
 17 18  1  0  0  0  0
 17 24  1  0  0  0  0
 18 19  1  0  0  0  0
 18 25  1  1  0  0  0
 19 20  1  0  0  0  0
 19 26  1  1  0  0  0
 20 21  1  0  0  0  0
 20 23  1  6  0  0  0
 21 22  1  6  0  0  0
 21 24  1  0  0  0  0
 22 27  1  0  0  0  0
 28 12  1  1  0  0  0
 28 29  1  0  0  0  0
 28 33  1  0  0  0  0
 29 30  1  0  0  0  0
 29 36  1  6  0  0  0
 30 31  1  0  0  0  0
 30 37  1  6  0  0  0
 31 32  1  0  0  0  0
 31 34  1  6  0  0  0
 32 33  1  0  0  0  0
 33 35  1  1  0  0  0
M  END
>  <CHROM.1>
-82.26083971,75.60975940,-66.64791865,-89.10117381,61.95780249,-175.67699526
40.08514159,1.47890709,8.38246269,2.51872355,1.12555176,-1.18755448

>  <Name>
1yrj_lig

>  <RI>
0

>  <Rbt.Current_Directory>
/home/itssahil/PROJECTS/Mol_Feturizer/New_Systems/rnas/1yrj

>  <Rbt.Executable>
rbdock ($Id: //depot/dev/client3/rdock/2013.1/src/exe/rbdock.cxx#4 $)

>  <Rbt.Library>
libRbt.so (2013.1, Build901 2013/11/27)

>  <Rbt.Parameter_File>
/export/apps/rDock/src/rDock_2013.1_src/data/scripts/dock_solv.prm

>  <Rbt.Receptor>
prm/pocket_docking_8.prm

>  <SCORE>
-21.9676

>  <SCORE.INTER>
-19.4146

>  <SCORE.INTER.CONST>
1

>  <SCORE.INTER.POLAR>
-2.1392

>  <SCORE.INTER.ROT>
6

>  <SCORE.INTER.SOLV>
16.6674

>  <SCORE.INTER.VDW>
-18.9681

>  <SCORE.INTER.norm>
-0.524718

>  <SCORE.INTRA>
-2.55304

>  <SCORE.INTRA.DIHEDRAL>
-9.46053

>  <SCORE.INTRA.DIHEDRAL.0>
15.6389

>  <SCORE.INTRA.POLAR>
0

>  <SCORE.INTRA.POLAR.0>
0

>  <SCORE.INTRA.REPUL>
0

>  <SCORE.INTRA.REPUL.0>
0

>  <SCORE.INTRA.SOLV>
2.41491

>  <SCORE.INTRA.SOLV.lig_0>
-90.9181

>  <SCORE.INTRA.VDW>
0.969775

>  <SCORE.INTRA.VDW.0>
-3.14158

>  <SCORE.INTRA.norm>
-0.069001

>  <SCORE.RESTR>
0

>  <SCORE.RESTR.CAVITY>
0

>  <SCORE.RESTR.norm>
0

>  <SCORE.SYSTEM>
0

>  <SCORE.SYSTEM.CONST>
0

>  <SCORE.SYSTEM.DIHEDRAL>
0

>  <SCORE.SYSTEM.SOLV>
0

>  <SCORE.SYSTEM.norm>
0

>  <SCORE.heavy>
37

>  <SCORE.norm>
-0.593719

>  <RMSD>
2.839

$$$$
1yrj_lig
 OpenBabel11021811423D
libRbt.so/2013.1/901 2013/11/27
 37 40  0  0  0  0  0  0  0  0999 V2000
   39.5570    4.0773   10.0021 C   0  0  1  0  0  0  0  0  0  0  0  0
   40.9336    3.5985   10.5032 C   0  0  1  0  0  0  0  0  0  0  0  0
   41.5306    2.5177    9.5878 C   0  0  0  0  0  0  0  0  0  0  0  0
   40.5318    1.3413    9.4324 C   0  0  1  0  0  0  0  0  0  0  0  0
   39.1890    1.8583    8.8822 C   0  0  1  0  0  0  0  0  0  0  0  0
   38.1914    0.6349    8.7208 C   0  0  1  0  0  0  0  0  0  0  0  0
   38.7956   -0.4025    7.7605 C   0  0  1  0  0  0  0  0  0  0  0  0
   40.1620   -0.8519    8.3327 C   0  0  2  0  0  0  0  0  0  0  0  0
   37.7513   -2.1177    6.1875 C   0  0  0  0  0  0  0  0  0  0  0  0
   41.8809    4.7146   10.6578 N   0  0  0  0  0  0  0  0  0  0  0  0
   37.8393   -1.5357    7.5633 N   0  0  0  0  0  0  0  0  0  0  0  0
   39.6283    4.9262    8.8413 O   0  0  0  0  0  0  0  0  0  0  0  0
   38.6853    2.9042    9.7954 O   0  0  0  0  0  0  0  0  0  0  0  0
   41.0454    0.2888    8.5263 O   0  0  0  0  0  0  0  0  0  0  0  0
   38.0201    0.0008    9.9710 O   0  0  0  0  0  0  0  0  0  0  0  0
   40.8247   -1.7744    7.4670 O   0  0  0  0  0  0  0  0  0  0  0  0
   41.9718   -2.4092    8.0792 C   0  0  2  0  0  0  0  0  0  0  0  0
   42.9716   -2.9759    7.0580 C   0  0  1  0  0  0  0  0  0  0  0  0
   42.3761   -4.1988    6.3108 C   0  0  2  0  0  0  0  0  0  0  0  0
   41.9738   -5.2634    7.3055 C   0  0  1  0  0  0  0  0  0  0  0  0
   40.9467   -4.6717    8.2997 C   0  0  1  0  0  0  0  0  0  0  0  0
   40.5199   -5.6693    9.3742 C   0  0  0  0  0  0  0  0  0  0  0  0
   41.4073   -6.4104    6.5659 N   0  0  0  0  0  0  0  0  0  0  0  0
   41.5339   -3.5024    8.9781 O   0  0  0  0  0  0  0  0  0  0  0  0
   43.3469   -1.9214    6.1600 O   0  0  0  0  0  0  0  0  0  0  0  0
   43.3594   -4.7472    5.4224 O   0  0  0  0  0  0  0  0  0  0  0  0
   41.6169   -5.9674   10.1962 O   0  0  0  0  0  0  0  0  0  0  0  0
   38.4354    5.6688    8.2583 C   0  0  1  0  0  0  0  0  0  0  0  0
   37.9352    6.6488    9.3424 C   0  0  1  0  0  0  0  0  0  0  0  0
   36.7566    7.5062    8.8209 C   0  0  2  0  0  0  0  0  0  0  0  0
   37.1906    8.2923    7.5780 C   0  0  1  0  0  0  0  0  0  0  0  0
   37.6607    7.3186    6.4673 C   0  0  0  0  0  0  0  0  0  0  0  0
   38.8367    6.4924    6.9988 C   0  0  2  0  0  0  0  0  0  0  0  0
   36.0563    9.1009    7.0783 N   0  0  0  0  0  0  0  0  0  0  0  0
   39.2609    5.6031    5.9208 N   0  0  0  0  0  0  0  0  0  0  0  0
   37.4852    5.8941   10.4887 O   0  0  0  0  0  0  0  0  0  0  0  0
   36.3469    8.4180    9.8628 O   0  0  0  0  0  0  0  0  0  0  0  0
  1  2  1  0  0  0  0
  1 12  1  6  0  0  0
  1 13  1  0  0  0  0
  2  3  1  0  0  0  0
  2 10  1  6  0  0  0
  4  3  1  6  0  0  0
  4  5  1  0  0  0  0
  4 14  1  0  0  0  0
  5  6  1  0  0  0  0
  5 13  1  1  0  0  0
  6  7  1  0  0  0  0
  6 15  1  1  0  0  0
  7  8  1  0  0  0  0
  7 11  1  1  0  0  0
  8 14  1  0  0  0  0
  8 16  1  6  0  0  0
  9 11  1  0  0  0  0
 17 16  1  6  0  0  0
 17 18  1  0  0  0  0
 17 24  1  0  0  0  0
 18 19  1  0  0  0  0
 18 25  1  6  0  0  0
 19 20  1  0  0  0  0
 19 26  1  6  0  0  0
 20 21  1  0  0  0  0
 20 23  1  6  0  0  0
 21 22  1  1  0  0  0
 21 24  1  0  0  0  0
 22 27  1  0  0  0  0
 28 12  1  1  0  0  0
 28 29  1  0  0  0  0
 28 33  1  0  0  0  0
 29 30  1  0  0  0  0
 29 36  1  1  0  0  0
 30 31  1  0  0  0  0
 30 37  1  1  0  0  0
 31 32  1  0  0  0  0
 31 34  1  6  0  0  0
 32 33  1  0  0  0  0
 33 35  1  6  0  0  0
M  END
>  <CHROM.1>
-172.01530438,141.83377672,-168.81104677,-158.72114788,66.04705170,62.00504179
39.81005578,1.12413819,8.30345738,3.03709098,1.24471578,-1.37762510

>  <Name>
1yrj_lig

>  <RI>
0

>  <Rbt.Current_Directory>
/home/itssahil/PROJECTS/Mol_Feturizer/New_Systems/rnas/1yrj

>  <Rbt.Executable>
rbdock ($Id: //depot/dev/client3/rdock/2013.1/src/exe/rbdock.cxx#4 $)

>  <Rbt.Library>
libRbt.so (2013.1, Build901 2013/11/27)

>  <Rbt.Parameter_File>
/export/apps/rDock/src/rDock_2013.1_src/data/scripts/dock_solv.prm

>  <Rbt.Receptor>
prm/pocket_docking_6.prm

>  <SCORE>
-21.6988

>  <SCORE.INTER>
-15.1787

>  <SCORE.INTER.CONST>
1

>  <SCORE.INTER.POLAR>
-1.08427

>  <SCORE.INTER.ROT>
6

>  <SCORE.INTER.SOLV>
25.0524

>  <SCORE.INTER.VDW>
-22.4557

>  <SCORE.INTER.norm>
-0.410235

>  <SCORE.INTRA>
-6.52011

>  <SCORE.INTRA.DIHEDRAL>
-11.6179

>  <SCORE.INTRA.DIHEDRAL.0>
15.6389

>  <SCORE.INTRA.POLAR>
0

>  <SCORE.INTRA.POLAR.0>
0

>  <SCORE.INTRA.REPUL>
0

>  <SCORE.INTRA.REPUL.0>
0

>  <SCORE.INTRA.SOLV>
-2.32667

>  <SCORE.INTRA.SOLV.lig_0>
-90.9181

>  <SCORE.INTRA.VDW>
0.452154

>  <SCORE.INTRA.VDW.0>
-3.14158

>  <SCORE.INTRA.norm>
-0.176219

>  <SCORE.RESTR>
0

>  <SCORE.RESTR.CAVITY>
0

>  <SCORE.RESTR.norm>
0

>  <SCORE.SYSTEM>
0

>  <SCORE.SYSTEM.CONST>
0

>  <SCORE.SYSTEM.DIHEDRAL>
0

>  <SCORE.SYSTEM.SOLV>
0

>  <SCORE.SYSTEM.norm>
0

>  <SCORE.heavy>
37

>  <SCORE.norm>
-0.586454

>  <RMSD>
2.898

$$$$
1yrj_lig
 OpenBabel11021811423D
libRbt.so/2013.1/901 2013/11/27
 37 40  0  0  0  0  0  0  0  0999 V2000
   39.4996    4.3362   10.1530 C   0  0  1  0  0  0  0  0  0  0  0  0
   40.9247    4.0084   10.6397 C   0  0  1  0  0  0  0  0  0  0  0  0
   41.6100    2.9667    9.7411 C   0  0  0  0  0  0  0  0  0  0  0  0
   40.7294    1.6943    9.6350 C   0  0  1  0  0  0  0  0  0  0  0  0
   39.3334    2.0621    9.0976 C   0  0  1  0  0  0  0  0  0  0  0  0
   38.4585    0.7429    8.9866 C   0  0  1  0  0  0  0  0  0  0  0  0
   39.1459   -0.2563    8.0418 C   0  0  1  0  0  0  0  0  0  0  0  0
   40.5592   -0.5538    8.5991 C   0  0  2  0  0  0  0  0  0  0  0  0
   37.0789   -1.3646    7.0390 C   0  0  0  0  0  0  0  0  0  0  0  0
   41.7600    5.2158   10.7476 N   0  0  0  0  0  0  0  0  0  0  0  0
   38.3027   -1.4826    7.8920 N   0  0  0  0  0  0  0  0  0  0  0  0
   39.4677    5.1559    8.9697 O   0  0  0  0  0  0  0  0  0  0  0  0
   38.7443    3.0781    9.9931 O   0  0  0  0  0  0  0  0  0  0  0  0
   41.3291    0.6728    8.7465 O   0  0  0  0  0  0  0  0  0  0  0  0
   38.3712    0.1295   10.2557 O   0  0  0  0  0  0  0  0  0  0  0  0
   41.2951   -1.4303    7.7448 O   0  0  0  0  0  0  0  0  0  0  0  0
   42.5240   -1.9092    8.3398 C   0  0  2  0  0  0  0  0  0  0  0  0
   43.4458   -2.6263    7.3399 C   0  0  1  0  0  0  0  0  0  0  0  0
   42.8383   -3.9820    6.8913 C   0  0  2  0  0  0  0  0  0  0  0  0
   42.5834   -4.8559    8.0979 C   0  0  1  0  0  0  0  0  0  0  0  0
   41.6307   -4.1201    9.0696 C   0  0  1  0  0  0  0  0  0  0  0  0
   41.3561   -4.9140   10.3447 C   0  0  0  0  0  0  0  0  0  0  0  0
   42.0020   -6.1349    7.6400 N   0  0  0  0  0  0  0  0  0  0  0  0
   42.2258   -2.8299    9.4615 O   0  0  0  0  0  0  0  0  0  0  0  0
   43.6837   -1.7453    6.2325 O   0  0  0  0  0  0  0  0  0  0  0  0
   43.7558   -4.6571    6.0198 O   0  0  0  0  0  0  0  0  0  0  0  0
   42.5557   -5.0955   11.0489 O   0  0  0  0  0  0  0  0  0  0  0  0
   39.0805    6.6271    8.9664 C   0  0  1  0  0  0  0  0  0  0  0  0
   37.8088    6.7649    9.8323 C   0  0  1  0  0  0  0  0  0  0  0  0
   37.3686    8.2444    9.9485 C   0  0  2  0  0  0  0  0  0  0  0  0
   38.4994    9.0809   10.5589 C   0  0  1  0  0  0  0  0  0  0  0  0
   39.7720    8.9814    9.6795 C   0  0  0  0  0  0  0  0  0  0  0  0
   40.1990    7.5124    9.5915 C   0  0  2  0  0  0  0  0  0  0  0  0
   38.0761   10.4957   10.6568 N   0  0  0  0  0  0  0  0  0  0  0  0
   41.4072    7.4629    8.7725 N   0  0  0  0  0  0  0  0  0  0  0  0
   36.7386    6.0116    9.2215 O   0  0  0  0  0  0  0  0  0  0  0  0
   36.1945    8.3168   10.7857 O   0  0  0  0  0  0  0  0  0  0  0  0
  1  2  1  0  0  0  0
  1 12  1  6  0  0  0
  1 13  1  0  0  0  0
  2  3  1  0  0  0  0
  2 10  1  6  0  0  0
  4  3  1  6  0  0  0
  4  5  1  0  0  0  0
  4 14  1  0  0  0  0
  5  6  1  0  0  0  0
  5 13  1  1  0  0  0
  6  7  1  0  0  0  0
  6 15  1  1  0  0  0
  7  8  1  0  0  0  0
  7 11  1  1  0  0  0
  8 14  1  0  0  0  0
  8 16  1  6  0  0  0
  9 11  1  0  0  0  0
 17 16  1  6  0  0  0
 17 18  1  0  0  0  0
 17 24  1  0  0  0  0
 18 19  1  0  0  0  0
 18 25  1  6  0  0  0
 19 20  1  0  0  0  0
 19 26  1  6  0  0  0
 20 21  1  0  0  0  0
 20 23  1  6  0  0  0
 21 22  1  1  0  0  0
 21 24  1  0  0  0  0
 22 27  1  0  0  0  0
 28 12  1  1  0  0  0
 28 29  1  0  0  0  0
 28 33  1  0  0  0  0
 29 30  1  0  0  0  0
 29 36  1  6  0  0  0
 30 31  1  0  0  0  0
 30 37  1  1  0  0  0
 31 32  1  0  0  0  0
 31 34  1  6  0  0  0
 32 33  1  0  0  0  0
 33 35  1  6  0  0  0
M  END
>  <CHROM.1>
-106.66083776,74.63625535,-170.10139594,-168.90396407,62.45781190,-45.47437623
40.27880085,1.60998066,9.04037722,1.86700462,0.13150319,0.11722586

>  <Name>
1yrj_lig

>  <RI>
0

>  <Rbt.Current_Directory>
/home/itssahil/PROJECTS/Mol_Feturizer/New_Systems/rnas/1yrj

>  <Rbt.Executable>
rbdock ($Id: //depot/dev/client3/rdock/2013.1/src/exe/rbdock.cxx#4 $)

>  <Rbt.Library>
libRbt.so (2013.1, Build901 2013/11/27)

>  <Rbt.Parameter_File>
/export/apps/rDock/src/rDock_2013.1_src/data/scripts/dock_solv.prm

>  <Rbt.Receptor>
prm/pocket_docking_7.prm

>  <SCORE>
-20.8533

>  <SCORE.INTER>
-18.9008

>  <SCORE.INTER.CONST>
1

>  <SCORE.INTER.POLAR>
-1.8938

>  <SCORE.INTER.ROT>
6

>  <SCORE.INTER.SOLV>
15.2049

>  <SCORE.INTER.VDW>
-18.9562

>  <SCORE.INTER.norm>
-0.510834

>  <SCORE.INTRA>
-1.95244

>  <SCORE.INTRA.DIHEDRAL>
-7.05147

>  <SCORE.INTRA.DIHEDRAL.0>
15.6389

>  <SCORE.INTRA.POLAR>
0

>  <SCORE.INTRA.POLAR.0>
0

>  <SCORE.INTRA.REPUL>
0

>  <SCORE.INTRA.REPUL.0>
0

>  <SCORE.INTRA.SOLV>
1.86214

>  <SCORE.INTRA.SOLV.lig_0>
-90.9181

>  <SCORE.INTRA.VDW>
0.642224

>  <SCORE.INTRA.VDW.0>
-3.14158

>  <SCORE.INTRA.norm>
-0.0527687

>  <SCORE.RESTR>
0

>  <SCORE.RESTR.CAVITY>
0

>  <SCORE.RESTR.norm>
0

>  <SCORE.SYSTEM>
0

>  <SCORE.SYSTEM.CONST>
0

>  <SCORE.SYSTEM.DIHEDRAL>
0

>  <SCORE.SYSTEM.SOLV>
0

>  <SCORE.SYSTEM.norm>
0

>  <SCORE.heavy>
37

>  <SCORE.norm>
-0.563602

>  <RMSD>
3.107

$$$$
1yrj_lig
 OpenBabel11021811423D
libRbt.so/2013.1/901 2013/11/27
 37 40  0  0  0  0  0  0  0  0999 V2000
   40.3782    8.3940   11.4968 C   0  0  1  0  0  0  0  0  0  0  0  0
   41.6520    7.9093   12.2166 C   0  0  1  0  0  0  0  0  0  0  0  0
   42.3764    6.8128   11.4196 C   0  0  0  0  0  0  0  0  0  0  0  0
   41.4031    5.6432   11.1185 C   0  0  1  0  0  0  0  0  0  0  0  0
   40.1710    6.1652   10.3554 C   0  0  1  0  0  0  0  0  0  0  0  0
   39.1995    4.9486   10.0490 C   0  0  1  0  0  0  0  0  0  0  0  0
   39.9386    3.8948    9.2084 C   0  0  1  0  0  0  0  0  0  0  0  0
   41.1913    3.4405    9.9963 C   0  0  2  0  0  0  0  0  0  0  0  0
   38.1652    2.9276    7.6508 C   0  0  0  0  0  0  0  0  0  0  0  0
   42.5739    9.0190   12.5093 N   0  0  0  0  0  0  0  0  0  0  0  0
   39.0145    2.7676    8.8724 N   0  0  0  0  0  0  0  0  0  0  0  0
   40.6428    9.2285   10.3537 O   0  0  0  0  0  0  0  0  0  0  0  0
   39.5387    7.2260   11.1654 O   0  0  0  0  0  0  0  0  0  0  0  0
   42.0441    4.5758   10.3171 O   0  0  0  0  0  0  0  0  0  0  0  0
   38.8240    4.3307   11.2622 O   0  0  0  0  0  0  0  0  0  0  0  0
   41.9742    2.5022    9.2574 O   0  0  0  0  0  0  0  0  0  0  0  0
   42.1352    1.2337    9.9345 C   0  0  2  0  0  0  0  0  0  0  0  0
   42.9506    0.2110    9.1265 C   0  0  1  0  0  0  0  0  0  0  0  0
   42.1657   -0.2687    7.8766 C   0  0  2  0  0  0  0  0  0  0  0  0
   40.8404   -0.8612    8.2974 C   0  0  1  0  0  0  0  0  0  0  0  0
   40.0324    0.1999    9.0814 C   0  0  1  0  0  0  0  0  0  0  0  0
   38.6935   -0.3309    9.5889 C   0  0  0  0  0  0  0  0  0  0  0  0
   40.1158   -1.3036    7.0880 N   0  0  0  0  0  0  0  0  0  0  0  0
   40.8109    0.6489   10.2496 O   0  0  0  0  0  0  0  0  0  0  0  0
   44.2089    0.8078    8.7810 O   0  0  0  0  0  0  0  0  0  0  0  0
   42.9218   -1.2749    7.1888 O   0  0  0  0  0  0  0  0  0  0  0  0
   38.9121   -1.4687   10.3798 O   0  0  0  0  0  0  0  0  0  0  0  0
   39.6371    9.4900    9.2426 C   0  0  1  0  0  0  0  0  0  0  0  0
   39.5569    8.2047    8.3896 C   0  0  1  0  0  0  0  0  0  0  0  0
   38.5037    8.3451    7.2639 C   0  0  2  0  0  0  0  0  0  0  0  0
   37.1276    8.6474    7.8690 C   0  0  1  0  0  0  0  0  0  0  0  0
   37.1844    9.9557    8.6983 C   0  0  0  0  0  0  0  0  0  0  0  0
   38.2200    9.7890    9.8152 C   0  0  2  0  0  0  0  0  0  0  0  0
   36.1280    8.7913    6.7871 N   0  0  0  0  0  0  0  0  0  0  0  0
   38.2308   11.0318   10.5822 N   0  0  0  0  0  0  0  0  0  0  0  0
   40.8461    7.9575    7.7872 O   0  0  0  0  0  0  0  0  0  0  0  0
   38.4533    7.1108    6.5164 O   0  0  0  0  0  0  0  0  0  0  0  0
  1  2  1  0  0  0  0
  1 12  1  6  0  0  0
  1 13  1  0  0  0  0
  2  3  1  0  0  0  0
  2 10  1  6  0  0  0
  4  3  1  6  0  0  0
  4  5  1  0  0  0  0
  4 14  1  0  0  0  0
  5  6  1  0  0  0  0
  5 13  1  1  0  0  0
  6  7  1  0  0  0  0
  6 15  1  1  0  0  0
  7  8  1  0  0  0  0
  7 11  1  1  0  0  0
  8 14  1  0  0  0  0
  8 16  1  6  0  0  0
  9 11  1  0  0  0  0
 17 16  1  6  0  0  0
 17 18  1  0  0  0  0
 17 24  1  0  0  0  0
 18 19  1  0  0  0  0
 18 25  1  6  0  0  0
 19 20  1  0  0  0  0
 19 26  1  1  0  0  0
 20 21  1  0  0  0  0
 20 23  1  6  0  0  0
 21 22  1  1  0  0  0
 21 24  1  0  0  0  0
 22 27  1  0  0  0  0
 28 12  1  1  0  0  0
 28 29  1  0  0  0  0
 28 33  1  0  0  0  0
 29 30  1  0  0  0  0
 29 36  1  6  0  0  0
 30 31  1  0  0  0  0
 30 37  1  1  0  0  0
 31 32  1  0  0  0  0
 31 34  1  6  0  0  0
 32 33  1  0  0  0  0
 33 35  1  6  0  0  0
M  END
>  <CHROM.1>
160.74794304,86.23097520,-120.93682141,178.67425206,56.40060998,-74.06164321
40.20220484,4.72291529,9.39299862,-1.85062390,0.64355433,-2.89017713

>  <Name>
1yrj_lig

>  <RI>
0

>  <Rbt.Current_Directory>
/home/itssahil/PROJECTS/Mol_Feturizer/New_Systems/rnas/1yrj

>  <Rbt.Executable>
rbdock ($Id: //depot/dev/client3/rdock/2013.1/src/exe/rbdock.cxx#4 $)

>  <Rbt.Library>
libRbt.so (2013.1, Build901 2013/11/27)

>  <Rbt.Parameter_File>
/export/apps/rDock/src/rDock_2013.1_src/data/scripts/dock_solv.prm

>  <Rbt.Receptor>
prm/pocket_docking_3.prm

>  <SCORE>
-17.8128

>  <SCORE.INTER>
-14.9559

>  <SCORE.INTER.CONST>
1

>  <SCORE.INTER.POLAR>
0

>  <SCORE.INTER.ROT>
6

>  <SCORE.INTER.SOLV>
19.1687

>  <SCORE.INTER.VDW>
-23.9602

>  <SCORE.INTER.norm>
-0.404214

>  <SCORE.INTRA>
-2.85684

>  <SCORE.INTRA.DIHEDRAL>
-5.24734

>  <SCORE.INTRA.DIHEDRAL.0>
15.6389

>  <SCORE.INTRA.POLAR>
0

>  <SCORE.INTRA.POLAR.0>
0

>  <SCORE.INTRA.REPUL>
0

>  <SCORE.INTRA.REPUL.0>
0

>  <SCORE.INTRA.SOLV>
0.920413

>  <SCORE.INTRA.SOLV.lig_0>
-90.9181

>  <SCORE.INTRA.VDW>
-0.693378

>  <SCORE.INTRA.VDW.0>
-3.14158

>  <SCORE.INTRA.norm>
-0.0772119

>  <SCORE.RESTR>
0

>  <SCORE.RESTR.CAVITY>
0

>  <SCORE.RESTR.norm>
0

>  <SCORE.SYSTEM>
0

>  <SCORE.SYSTEM.CONST>
0

>  <SCORE.SYSTEM.DIHEDRAL>
0

>  <SCORE.SYSTEM.SOLV>
0

>  <SCORE.SYSTEM.norm>
0

>  <SCORE.heavy>
37

>  <SCORE.norm>
-0.481426

>  <RMSD>
3.200

$$$$
1yrj_lig
 OpenBabel11021811423D
libRbt.so/2013.1/901 2013/11/27
 37 40  0  0  0  0  0  0  0  0999 V2000
   38.5551    4.4671    8.6874 C   0  0  1  0  0  0  0  0  0  0  0  0
   39.9602    4.5857    9.3095 C   0  0  1  0  0  0  0  0  0  0  0  0
   40.8791    3.4350    8.8690 C   0  0  0  0  0  0  0  0  0  0  0  0
   40.2167    2.0709    9.1949 C   0  0  1  0  0  0  0  0  0  0  0  0
   38.8390    1.9768    8.5122 C   0  0  1  0  0  0  0  0  0  0  0  0
   38.1899    0.5689    8.8506 C   0  0  1  0  0  0  0  0  0  0  0  0
   39.1089   -0.5582    8.3518 C   0  0  1  0  0  0  0  0  0  0  0  0
   40.4909   -0.3894    9.0285 C   0  0  2  0  0  0  0  0  0  0  0  0
   37.3023   -2.2657    7.7800 C   0  0  0  0  0  0  0  0  0  0  0  0
   40.5877    5.8825    9.0070 N   0  0  0  0  0  0  0  0  0  0  0  0
   38.4805   -1.8884    8.6218 N   0  0  0  0  0  0  0  0  0  0  0  0
   38.5125    4.8056    7.2885 O   0  0  0  0  0  0  0  0  0  0  0  0
   38.0191    3.1197    8.9625 O   0  0  0  0  0  0  0  0  0  0  0  0
   41.0474    0.9273    8.7536 O   0  0  0  0  0  0  0  0  0  0  0  0
   38.0757    0.4292   10.2513 O   0  0  0  0  0  0  0  0  0  0  0  0
   41.4302   -1.3635    8.5719 O   0  0  0  0  0  0  0  0  0  0  0  0
   41.6736   -1.2985    7.1471 C   0  0  2  0  0  0  0  0  0  0  0  0
   42.3768   -2.5478    6.5917 C   0  0  1  0  0  0  0  0  0  0  0  0
   43.8426   -2.6349    7.0938 C   0  0  2  0  0  0  0  0  0  0  0  0
   44.5959   -1.3844    6.7018 C   0  0  1  0  0  0  0  0  0  0  0  0
   43.8814   -0.1492    7.2995 C   0  0  1  0  0  0  0  0  0  0  0  0
   44.5505    1.1675    6.9114 C   0  0  0  0  0  0  0  0  0  0  0  0
   45.9837   -1.4948    7.1967 N   0  0  0  0  0  0  0  0  0  0  0  0
   42.4883   -0.1051    6.8201 O   0  0  0  0  0  0  0  0  0  0  0  0
   41.6073   -3.7013    6.9609 O   0  0  0  0  0  0  0  0  0  0  0  0
   44.4901   -3.7677    6.4984 O   0  0  0  0  0  0  0  0  0  0  0  0
   43.8861    2.2314    7.5395 O   0  0  0  0  0  0  0  0  0  0  0  0
   38.5362    6.2316    6.7592 C   0  0  1  0  0  0  0  0  0  0  0  0
   38.5354    6.1447    5.2169 C   0  0  1  0  0  0  0  0  0  0  0  0
   38.4910    7.5535    4.5771 C   0  0  2  0  0  0  0  0  0  0  0  0
   37.2407    8.3045    5.0504 C   0  0  1  0  0  0  0  0  0  0  0  0
   37.2468    8.4316    6.5953 C   0  0  0  0  0  0  0  0  0  0  0  0
   37.2744    7.0271    7.2072 C   0  0  2  0  0  0  0  0  0  0  0  0
   37.2103    9.6541    4.4439 N   0  0  0  0  0  0  0  0  0  0  0  0
   37.2612    7.1888    8.6586 N   0  0  0  0  0  0  0  0  0  0  0  0
   39.7404    5.4779    4.7817 O   0  0  0  0  0  0  0  0  0  0  0  0
   38.4669    7.4122    3.1404 O   0  0  0  0  0  0  0  0  0  0  0  0
  1  2  1  0  0  0  0
  1 12  1  6  0  0  0
  1 13  1  0  0  0  0
  2  3  1  0  0  0  0
  2 10  1  6  0  0  0
  4  3  1  6  0  0  0
  4  5  1  0  0  0  0
  4 14  1  0  0  0  0
  5  6  1  0  0  0  0
  5 13  1  1  0  0  0
  6  7  1  0  0  0  0
  6 15  1  1  0  0  0
  7  8  1  0  0  0  0
  7 11  1  1  0  0  0
  8 14  1  0  0  0  0
  8 16  1  6  0  0  0
  9 11  1  0  0  0  0
 17 16  1  1  0  0  0
 17 18  1  0  0  0  0
 17 24  1  0  0  0  0
 18 19  1  0  0  0  0
 18 25  1  1  0  0  0
 19 20  1  0  0  0  0
 19 26  1  6  0  0  0
 20 21  1  0  0  0  0
 20 23  1  1  0  0  0
 21 22  1  6  0  0  0
 21 24  1  0  0  0  0
 22 27  1  0  0  0  0
 28 12  1  1  0  0  0
 28 29  1  0  0  0  0
 28 33  1  0  0  0  0
 29 30  1  0  0  0  0
 29 36  1  6  0  0  0
 30 31  1  0  0  0  0
 30 37  1  6  0  0  0
 31 32  1  0  0  0  0
 31 34  1  6  0  0  0
 32 33  1  0  0  0  0
 33 35  1  1  0  0  0
M  END
>  <CHROM.1>
-77.10925061,72.01812913,60.28057199,-164.81917590,-177.24801444,177.66292201
40.26326840,2.26415670,7.37904426,2.09501126,0.45129298,-0.39465035

>  <Name>
1yrj_lig

>  <RI>
0

>  <Rbt.Current_Directory>
/home/itssahil/PROJECTS/Mol_Feturizer/New_Systems/rnas/1yrj

>  <Rbt.Executable>
rbdock ($Id: //depot/dev/client3/rdock/2013.1/src/exe/rbdock.cxx#4 $)

>  <Rbt.Library>
libRbt.so (2013.1, Build901 2013/11/27)

>  <Rbt.Parameter_File>
/export/apps/rDock/src/rDock_2013.1_src/data/scripts/dock_solv.prm

>  <Rbt.Receptor>
prm/pocket_docking_8.prm

>  <SCORE>
-25.4777

>  <SCORE.INTER>
-20.2364

>  <SCORE.INTER.CONST>
1

>  <SCORE.INTER.POLAR>
-1.17221

>  <SCORE.INTER.ROT>
6

>  <SCORE.INTER.SOLV>
19.2875

>  <SCORE.INTER.VDW>
-23.6127

>  <SCORE.INTER.norm>
-0.54693

>  <SCORE.INTRA>
-5.24126

>  <SCORE.INTRA.DIHEDRAL>
-12.9553

>  <SCORE.INTRA.DIHEDRAL.0>
15.6389

>  <SCORE.INTRA.POLAR>
0

>  <SCORE.INTRA.POLAR.0>
0

>  <SCORE.INTRA.REPUL>
0

>  <SCORE.INTRA.REPUL.0>
0

>  <SCORE.INTRA.SOLV>
1.65325

>  <SCORE.INTRA.SOLV.lig_0>
-90.9181

>  <SCORE.INTRA.VDW>
0.40974

>  <SCORE.INTRA.VDW.0>
-3.14158

>  <SCORE.INTRA.norm>
-0.141656

>  <SCORE.RESTR>
0

>  <SCORE.RESTR.CAVITY>
0

>  <SCORE.RESTR.norm>
0

>  <SCORE.SYSTEM>
0

>  <SCORE.SYSTEM.CONST>
0

>  <SCORE.SYSTEM.DIHEDRAL>
0

>  <SCORE.SYSTEM.SOLV>
0

>  <SCORE.SYSTEM.norm>
0

>  <SCORE.heavy>
37

>  <SCORE.norm>
-0.688586

>  <RMSD>
3.332

$$$$
1yrj_lig
 OpenBabel11021811423D
libRbt.so/2013.1/901 2013/11/27
 37 40  0  0  0  0  0  0  0  0999 V2000
   38.6019    4.4037    8.7442 C   0  0  1  0  0  0  0  0  0  0  0  0
   40.0149    4.4826    9.3546 C   0  0  1  0  0  0  0  0  0  0  0  0
   40.9062    3.3222    8.8841 C   0  0  0  0  0  0  0  0  0  0  0  0
   40.2196    1.9658    9.1916 C   0  0  1  0  0  0  0  0  0  0  0  0
   38.8339    1.9118    8.5209 C   0  0  1  0  0  0  0  0  0  0  0  0
   38.1598    0.5111    8.8399 C   0  0  1  0  0  0  0  0  0  0  0  0
   39.0510   -0.6247    8.3117 C   0  0  1  0  0  0  0  0  0  0  0  0
   40.4425   -0.4960    8.9777 C   0  0  2  0  0  0  0  0  0  0  0  0
   38.2265   -2.8539    7.3858 C   0  0  0  0  0  0  0  0  0  0  0  0
   40.6655    5.7720    9.0695 N   0  0  0  0  0  0  0  0  0  0  0  0
   38.3985   -1.9469    8.5635 N   0  0  0  0  0  0  0  0  0  0  0  0
   38.5529    4.7686    7.3522 O   0  0  0  0  0  0  0  0  0  0  0  0
   38.0414    3.0623    8.9999 O   0  0  0  0  0  0  0  0  0  0  0  0
   41.0228    0.8142    8.7213 O   0  0  0  0  0  0  0  0  0  0  0  0
   38.0559    0.3480   10.2389 O   0  0  0  0  0  0  0  0  0  0  0  0
   41.3576   -1.4802    8.4942 O   0  0  0  0  0  0  0  0  0  0  0  0
   41.5773   -1.4033    7.0661 C   0  0  2  0  0  0  0  0  0  0  0  0
   42.2484   -2.6584    6.4847 C   0  0  1  0  0  0  0  0  0  0  0  0
   43.7209   -2.7770    6.9599 C   0  0  2  0  0  0  0  0  0  0  0  0
   44.4894   -1.5356    6.5685 C   0  0  1  0  0  0  0  0  0  0  0  0
   43.8075   -0.2948    7.1922 C   0  0  1  0  0  0  0  0  0  0  0  0
   44.4931    1.0142    6.8069 C   0  0  0  0  0  0  0  0  0  0  0  0
   45.8835   -1.6760    7.0377 N   0  0  0  0  0  0  0  0  0  0  0  0
   42.4073   -0.2208    6.7379 O   0  0  0  0  0  0  0  0  0  0  0  0
   41.4650   -3.8023    6.8547 O   0  0  0  0  0  0  0  0  0  0  0  0
   44.3377   -3.9142    6.3408 O   0  0  0  0  0  0  0  0  0  0  0  0
   43.7990    2.0905    7.3792 O   0  0  0  0  0  0  0  0  0  0  0  0
   38.5608    6.2048    6.8505 C   0  0  1  0  0  0  0  0  0  0  0  0
   38.5631    6.1476    5.3069 C   0  0  1  0  0  0  0  0  0  0  0  0
   38.5032    7.5680    4.6943 C   0  0  2  0  0  0  0  0  0  0  0  0
   37.2438    8.2952    5.1801 C   0  0  1  0  0  0  0  0  0  0  0  0
   37.2463    8.3925    6.7271 C   0  0  0  0  0  0  0  0  0  0  0  0
   37.2893    6.9769    7.3118 C   0  0  2  0  0  0  0  0  0  0  0  0
   37.1986    9.6559    4.5996 N   0  0  0  0  0  0  0  0  0  0  0  0
   37.2724    7.1104    8.7661 N   0  0  0  0  0  0  0  0  0  0  0  0
   39.7762    5.5033    4.8608 O   0  0  0  0  0  0  0  0  0  0  0  0
   38.4827    7.4541    3.2551 O   0  0  0  0  0  0  0  0  0  0  0  0
  1  2  1  0  0  0  0
  1 12  1  6  0  0  0
  1 13  1  0  0  0  0
  2  3  1  0  0  0  0
  2 10  1  6  0  0  0
  4  3  1  6  0  0  0
  4  5  1  0  0  0  0
  4 14  1  0  0  0  0
  5  6  1  0  0  0  0
  5 13  1  1  0  0  0
  6  7  1  0  0  0  0
  6 15  1  1  0  0  0
  7  8  1  0  0  0  0
  7 11  1  1  0  0  0
  8 14  1  0  0  0  0
  8 16  1  6  0  0  0
  9 11  1  0  0  0  0
 17 16  1  1  0  0  0
 17 18  1  0  0  0  0
 17 24  1  0  0  0  0
 18 19  1  0  0  0  0
 18 25  1  1  0  0  0
 19 20  1  0  0  0  0
 19 26  1  6  0  0  0
 20 21  1  0  0  0  0
 20 23  1  1  0  0  0
 21 22  1  6  0  0  0
 21 24  1  0  0  0  0
 22 27  1  0  0  0  0
 28 12  1  1  0  0  0
 28 29  1  0  0  0  0
 28 33  1  0  0  0  0
 29 30  1  0  0  0  0
 29 36  1  6  0  0  0
 30 31  1  0  0  0  0
 30 37  1  6  0  0  0
 31 32  1  0  0  0  0
 31 34  1  6  0  0  0
 32 33  1  0  0  0  0
 33 35  1  1  0  0  0
M  END
>  <CHROM.1>
-78.90353192,126.35105988,59.62822620,-164.73920868,178.44141484,177.45437384
40.25998834,2.17001065,7.36098533,2.08986831,0.49942191,-0.38653472

>  <Name>
1yrj_lig

>  <RI>
0

>  <Rbt.Current_Directory>
/home/itssahil/PROJECTS/Mol_Feturizer/New_Systems/rnas/1yrj

>  <Rbt.Executable>
rbdock ($Id: //depot/dev/client3/rdock/2013.1/src/exe/rbdock.cxx#4 $)

>  <Rbt.Library>
libRbt.so (2013.1, Build901 2013/11/27)

>  <Rbt.Parameter_File>
/export/apps/rDock/src/rDock_2013.1_src/data/scripts/dock_solv.prm

>  <Rbt.Receptor>
prm/pocket_docking_4.prm

>  <SCORE>
-24.6252

>  <SCORE.INTER>
-19.4241

>  <SCORE.INTER.CONST>
1

>  <SCORE.INTER.POLAR>
-1.17841

>  <SCORE.INTER.ROT>
6

>  <SCORE.INTER.SOLV>
19.4958

>  <SCORE.INTER.VDW>
-23.1199

>  <SCORE.INTER.norm>
-0.524975

>  <SCORE.INTRA>
-5.20109

>  <SCORE.INTRA.DIHEDRAL>
-11.6401

>  <SCORE.INTRA.DIHEDRAL.0>
15.6389

>  <SCORE.INTRA.POLAR>
0

>  <SCORE.INTRA.POLAR.0>
0

>  <SCORE.INTRA.REPUL>
0

>  <SCORE.INTRA.REPUL.0>
0

>  <SCORE.INTRA.SOLV>
1.66671

>  <SCORE.INTRA.SOLV.lig_0>
-90.9181

>  <SCORE.INTRA.VDW>
-0.214407

>  <SCORE.INTRA.VDW.0>
-3.14158

>  <SCORE.INTRA.norm>
-0.14057

>  <SCORE.RESTR>
0

>  <SCORE.RESTR.CAVITY>
0

>  <SCORE.RESTR.norm>
0

>  <SCORE.SYSTEM>
0

>  <SCORE.SYSTEM.CONST>
0

>  <SCORE.SYSTEM.DIHEDRAL>
0

>  <SCORE.SYSTEM.SOLV>
0

>  <SCORE.SYSTEM.norm>
0

>  <SCORE.heavy>
37

>  <SCORE.norm>
-0.665545

>  <RMSD>
3.362

$$$$
1yrj_lig
 OpenBabel11021811423D
libRbt.so/2013.1/901 2013/11/27
 37 40  0  0  0  0  0  0  0  0999 V2000
   38.5292    4.4742    8.6493 C   0  0  1  0  0  0  0  0  0  0  0  0
   39.9338    4.6270    9.2651 C   0  0  1  0  0  0  0  0  0  0  0  0
   40.8698    3.4829    8.8440 C   0  0  0  0  0  0  0  0  0  0  0  0
   40.2302    2.1149    9.1978 C   0  0  1  0  0  0  0  0  0  0  0  0
   38.8524    1.9858    8.5210 C   0  0  1  0  0  0  0  0  0  0  0  0
   38.2267    0.5745    8.8881 C   0  0  1  0  0  0  0  0  0  0  0  0
   39.1623   -0.5472    8.4083 C   0  0  1  0  0  0  0  0  0  0  0  0
   40.5432   -0.3435    9.0776 C   0  0  2  0  0  0  0  0  0  0  0  0
   38.6164   -2.3540   10.1241 C   0  0  0  0  0  0  0  0  0  0  0  0
   40.5398    5.9276    8.9359 N   0  0  0  0  0  0  0  0  0  0  0  0
   38.5559   -1.8818    8.7055 N   0  0  0  0  0  0  0  0  0  0  0  0
   38.4776    4.7851    7.2444 O   0  0  0  0  0  0  0  0  0  0  0  0
   38.0154    3.1239    8.9517 O   0  0  0  0  0  0  0  0  0  0  0  0
   41.0779    0.9764    8.7760 O   0  0  0  0  0  0  0  0  0  0  0  0
   38.1183    0.4599   10.2916 O   0  0  0  0  0  0  0  0  0  0  0  0
   41.4967   -1.3111    8.6371 O   0  0  0  0  0  0  0  0  0  0  0  0
   41.7328   -1.2719    7.2101 C   0  0  2  0  0  0  0  0  0  0  0  0
   42.4345   -2.5304    6.6740 C   0  0  1  0  0  0  0  0  0  0  0  0
   43.9029   -2.6068    7.1700 C   0  0  2  0  0  0  0  0  0  0  0  0
   44.6528   -1.3629    6.7514 C   0  0  1  0  0  0  0  0  0  0  0  0
   43.9400   -0.1177    7.3300 C   0  0  1  0  0  0  0  0  0  0  0  0
   44.6056    1.1923    6.9145 C   0  0  0  0  0  0  0  0  0  0  0  0
   46.0433   -1.4628    7.2411 N   0  0  0  0  0  0  0  0  0  0  0  0
   42.5444   -0.0838    6.8571 O   0  0  0  0  0  0  0  0  0  0  0  0
   41.6682   -3.6777    7.0682 O   0  0  0  0  0  0  0  0  0  0  0  0
   44.5487   -3.7496    6.5921 O   0  0  0  0  0  0  0  0  0  0  0  0
   43.8799    2.2717    7.4400 O   0  0  0  0  0  0  0  0  0  0  0  0
   38.4935    6.2006    6.6871 C   0  0  1  0  0  0  0  0  0  0  0  0
   38.5076    6.0832    5.1470 C   0  0  1  0  0  0  0  0  0  0  0  0
   38.4565    7.4787    4.4790 C   0  0  2  0  0  0  0  0  0  0  0  0
   37.1954    8.2275    4.9261 C   0  0  1  0  0  0  0  0  0  0  0  0
   37.1861    8.3851    6.4681 C   0  0  0  0  0  0  0  0  0  0  0  0
   37.2206    6.9932    7.1080 C   0  0  2  0  0  0  0  0  0  0  0  0
   37.1586    9.5646    4.2927 N   0  0  0  0  0  0  0  0  0  0  0  0
   37.1927    7.1834    8.5557 N   0  0  0  0  0  0  0  0  0  0  0  0
   39.7224    5.4189    4.7359 O   0  0  0  0  0  0  0  0  0  0  0  0
   38.4469    7.3088    3.0452 O   0  0  0  0  0  0  0  0  0  0  0  0
  1  2  1  0  0  0  0
  1 12  1  6  0  0  0
  1 13  1  0  0  0  0
  2  3  1  0  0  0  0
  2 10  1  6  0  0  0
  4  3  1  6  0  0  0
  4  5  1  0  0  0  0
  4 14  1  0  0  0  0
  5  6  1  0  0  0  0
  5 13  1  1  0  0  0
  6  7  1  0  0  0  0
  6 15  1  1  0  0  0
  7  8  1  0  0  0  0
  7 11  1  1  0  0  0
  8 14  1  0  0  0  0
  8 16  1  6  0  0  0
  9 11  1  0  0  0  0
 17 16  1  1  0  0  0
 17 18  1  0  0  0  0
 17 24  1  0  0  0  0
 18 19  1  0  0  0  0
 18 25  1  1  0  0  0
 19 20  1  0  0  0  0
 19 26  1  6  0  0  0
 20 21  1  0  0  0  0
 20 23  1  1  0  0  0
 21 22  1  6  0  0  0
 21 24  1  0  0  0  0
 22 27  1  0  0  0  0
 28 12  1  1  0  0  0
 28 29  1  0  0  0  0
 28 33  1  0  0  0  0
 29 30  1  0  0  0  0
 29 36  1  1  0  0  0
 30 31  1  0  0  0  0
 30 37  1  6  0  0  0
 31 32  1  0  0  0  0
 31 34  1  6  0  0  0
 32 33  1  0  0  0  0
 33 35  1  1  0  0  0
M  END
>  <CHROM.1>
-76.36608683,-76.44116821,60.12602196,-163.90572522,178.10201431,176.75880164
40.31185337,2.26402995,7.43690986,2.13207118,0.53621802,-0.49234885

>  <Name>
1yrj_lig

>  <RI>
0

>  <Rbt.Current_Directory>
/home/itssahil/PROJECTS/Mol_Feturizer/New_Systems/rnas/1yrj

>  <Rbt.Executable>
rbdock ($Id: //depot/dev/client3/rdock/2013.1/src/exe/rbdock.cxx#4 $)

>  <Rbt.Library>
libRbt.so (2013.1, Build901 2013/11/27)

>  <Rbt.Parameter_File>
/export/apps/rDock/src/rDock_2013.1_src/data/scripts/dock_solv.prm

>  <Rbt.Receptor>
prm/pocket_docking_5.prm

>  <SCORE>
-24.2376

>  <SCORE.INTER>
-20.8078

>  <SCORE.INTER.CONST>
1

>  <SCORE.INTER.POLAR>
-1.16743

>  <SCORE.INTER.ROT>
6

>  <SCORE.INTER.SOLV>
19.6671

>  <SCORE.INTER.VDW>
-24.1361

>  <SCORE.INTER.norm>
-0.562373

>  <SCORE.INTRA>
-3.42979

>  <SCORE.INTRA.DIHEDRAL>
-12.8333

>  <SCORE.INTRA.DIHEDRAL.0>
15.6389

>  <SCORE.INTRA.POLAR>
0

>  <SCORE.INTRA.POLAR.0>
0

>  <SCORE.INTRA.REPUL>
0

>  <SCORE.INTRA.REPUL.0>
0

>  <SCORE.INTRA.SOLV>
1.84783

>  <SCORE.INTRA.SOLV.lig_0>
-90.9181

>  <SCORE.INTRA.VDW>
2.06297

>  <SCORE.INTRA.VDW.0>
-3.14158

>  <SCORE.INTRA.norm>
-0.092697

>  <SCORE.RESTR>
0

>  <SCORE.RESTR.CAVITY>
0

>  <SCORE.RESTR.norm>
0

>  <SCORE.SYSTEM>
0

>  <SCORE.SYSTEM.CONST>
0

>  <SCORE.SYSTEM.DIHEDRAL>
0

>  <SCORE.SYSTEM.SOLV>
0

>  <SCORE.SYSTEM.norm>
0

>  <SCORE.heavy>
37

>  <SCORE.norm>
-0.65507

>  <RMSD>
3.372

$$$$
1yrj_lig
 OpenBabel11021811423D
libRbt.so/2013.1/901 2013/11/27
 37 40  0  0  0  0  0  0  0  0999 V2000
   39.5173    4.5693    9.6991 C   0  0  1  0  0  0  0  0  0  0  0  0
   40.7242    4.1537   10.5629 C   0  0  1  0  0  0  0  0  0  0  0  0
   41.4690    2.9505    9.9629 C   0  0  0  0  0  0  0  0  0  0  0  0
   40.4848    1.7724    9.7412 C   0  0  1  0  0  0  0  0  0  0  0  0
   39.3236    2.2188    8.8327 C   0  0  1  0  0  0  0  0  0  0  0  0
   38.3400    0.9932    8.6118 C   0  0  1  0  0  0  0  0  0  0  0  0
   39.1038   -0.1733    7.9643 C   0  0  1  0  0  0  0  0  0  0  0  0
   40.2858   -0.5498    8.8904 C   0  0  2  0  0  0  0  0  0  0  0  0
   37.5763   -1.4082    6.3368 C   0  0  0  0  0  0  0  0  0  0  0  0
   41.6560    5.2724   10.7801 N   0  0  0  0  0  0  0  0  0  0  0  0
   38.1722   -1.3148    7.7063 N   0  0  0  0  0  0  0  0  0  0  0  0
   39.8839    5.2469    8.4827 O   0  0  0  0  0  0  0  0  0  0  0  0
   38.6686    3.3862    9.4568 O   0  0  0  0  0  0  0  0  0  0  0  0
   41.1476    0.5992    9.1271 O   0  0  0  0  0  0  0  0  0  0  0  0
   37.8645    0.5416    9.8626 O   0  0  0  0  0  0  0  0  0  0  0  0
   41.0896   -1.5899    8.3321 O   0  0  0  0  0  0  0  0  0  0  0  0
   41.5021   -1.3248    6.9708 C   0  0  2  0  0  0  0  0  0  0  0  0
   42.3378   -2.4592    6.3557 C   0  0  1  0  0  0  0  0  0  0  0  0
   43.7335   -2.5540    7.0277 C   0  0  2  0  0  0  0  0  0  0  0  0
   44.4570   -1.2330    6.8993 C   0  0  1  0  0  0  0  0  0  0  0  0
   43.6057   -0.1187    7.5526 C   0  0  1  0  0  0  0  0  0  0  0  0
   44.2415    1.2638    7.4257 C   0  0  0  0  0  0  0  0  0  0  0  0
   45.7776   -1.3530    7.5511 N   0  0  0  0  0  0  0  0  0  0  0  0
   42.2817   -0.0667    6.9069 O   0  0  0  0  0  0  0  0  0  0  0  0
   41.5955   -3.6817    6.4720 O   0  0  0  0  0  0  0  0  0  0  0  0
   44.5124   -3.5699    6.3810 O   0  0  0  0  0  0  0  0  0  0  0  0
   45.4687    1.2773    8.1053 O   0  0  0  0  0  0  0  0  0  0  0  0
   39.2319    6.5331    7.9979 C   0  0  1  0  0  0  0  0  0  0  0  0
   37.9079    6.1396    7.3064 C   0  0  1  0  0  0  0  0  0  0  0  0
   37.1301    7.3916    6.8334 C   0  0  2  0  0  0  0  0  0  0  0  0
   36.8342    8.3065    8.0278 C   0  0  1  0  0  0  0  0  0  0  0  0
   38.1572    8.7394    8.7097 C   0  0  0  0  0  0  0  0  0  0  0  0
   38.9022    7.4872    9.1839 C   0  0  2  0  0  0  0  0  0  0  0  0
   36.1004    9.5063    7.5670 N   0  0  0  0  0  0  0  0  0  0  0  0
   40.1301    7.9366    9.8345 N   0  0  0  0  0  0  0  0  0  0  0  0
   38.2030    5.3177    6.1560 O   0  0  0  0  0  0  0  0  0  0  0  0
   35.8942    6.9677    6.2189 O   0  0  0  0  0  0  0  0  0  0  0  0
  1  2  1  0  0  0  0
  1 12  1  6  0  0  0
  1 13  1  0  0  0  0
  2  3  1  0  0  0  0
  2 10  1  6  0  0  0
  4  3  1  6  0  0  0
  4  5  1  0  0  0  0
  4 14  1  0  0  0  0
  5  6  1  0  0  0  0
  5 13  1  1  0  0  0
  6  7  1  0  0  0  0
  6 15  1  1  0  0  0
  7  8  1  0  0  0  0
  7 11  1  1  0  0  0
  8 14  1  0  0  0  0
  8 16  1  6  0  0  0
  9 11  1  0  0  0  0
 17 16  1  1  0  0  0
 17 18  1  0  0  0  0
 17 24  1  0  0  0  0
 18 19  1  0  0  0  0
 18 25  1  1  0  0  0
 19 20  1  0  0  0  0
 19 26  1  6  0  0  0
 20 21  1  0  0  0  0
 20 23  1  1  0  0  0
 21 22  1  6  0  0  0
 21 24  1  0  0  0  0
 22 27  1  0  0  0  0
 28 12  1  1  0  0  0
 28 29  1  0  0  0  0
 28 33  1  0  0  0  0
 29 30  1  0  0  0  0
 29 36  1  6  0  0  0
 30 31  1  0  0  0  0
 30 37  1  1  0  0  0
 31 32  1  0  0  0  0
 31 34  1  6  0  0  0
 32 33  1  0  0  0  0
 33 35  1  6  0  0  0
M  END
>  <CHROM.1>
-132.99657956,95.46233128,50.95029034,-178.54408994,-62.67983407,-80.98432447
40.36959254,2.30317339,8.08507138,-2.07798784,0.16709493,-2.94704381

>  <Name>
1yrj_lig

>  <RI>
0

>  <Rbt.Current_Directory>
/home/itssahil/PROJECTS/Mol_Feturizer/New_Systems/rnas/1yrj

>  <Rbt.Executable>
rbdock ($Id: //depot/dev/client3/rdock/2013.1/src/exe/rbdock.cxx#4 $)

>  <Rbt.Library>
libRbt.so (2013.1, Build901 2013/11/27)

>  <Rbt.Parameter_File>
/export/apps/rDock/src/rDock_2013.1_src/data/scripts/dock_solv.prm

>  <Rbt.Receptor>
prm/pocket_docking_5.prm

>  <SCORE>
-21.1789

>  <SCORE.INTER>
-19.7722

>  <SCORE.INTER.CONST>
1

>  <SCORE.INTER.POLAR>
-1.38331

>  <SCORE.INTER.ROT>
6

>  <SCORE.INTER.SOLV>
22.0419

>  <SCORE.INTER.VDW>
-23.5178

>  <SCORE.INTER.norm>
-0.534385

>  <SCORE.INTRA>
-1.40663

>  <SCORE.INTRA.DIHEDRAL>
-6.09246

>  <SCORE.INTRA.DIHEDRAL.0>
15.6389

>  <SCORE.INTRA.POLAR>
0

>  <SCORE.INTRA.POLAR.0>
0

>  <SCORE.INTRA.REPUL>
0

>  <SCORE.INTRA.REPUL.0>
0

>  <SCORE.INTRA.SOLV>
1.98754

>  <SCORE.INTRA.SOLV.lig_0>
-90.9181

>  <SCORE.INTRA.VDW>
0.645826

>  <SCORE.INTRA.VDW.0>
-3.14158

>  <SCORE.INTRA.norm>
-0.0380171

>  <SCORE.RESTR>
0

>  <SCORE.RESTR.CAVITY>
0

>  <SCORE.RESTR.norm>
0

>  <SCORE.SYSTEM>
0

>  <SCORE.SYSTEM.CONST>
0

>  <SCORE.SYSTEM.DIHEDRAL>
0

>  <SCORE.SYSTEM.SOLV>
0

>  <SCORE.SYSTEM.norm>
0

>  <SCORE.heavy>
37

>  <SCORE.norm>
-0.572402

>  <RMSD>
3.403

$$$$
1yrj_lig
 OpenBabel11021811423D
libRbt.so/2013.1/901 2013/11/27
 37 40  0  0  0  0  0  0  0  0999 V2000
   40.4963    8.5638   11.0566 C   0  0  1  0  0  0  0  0  0  0  0  0
   41.2137    7.7139   12.1235 C   0  0  1  0  0  0  0  0  0  0  0  0
   41.9248    6.5002   11.5040 C   0  0  0  0  0  0  0  0  0  0  0  0
   40.9179    5.6589   10.6771 C   0  0  1  0  0  0  0  0  0  0  0  0
   40.2636    6.5353    9.5923 C   0  0  1  0  0  0  0  0  0  0  0  0
   39.2494    5.6484    8.7539 C   0  0  1  0  0  0  0  0  0  0  0  0
   40.0012    4.4739    8.1069 C   0  0  1  0  0  0  0  0  0  0  0  0
   40.6791    3.6557    9.2327 C   0  0  2  0  0  0  0  0  0  0  0  0
   38.5494    4.2931    6.0174 C   0  0  0  0  0  0  0  0  0  0  0  0
   42.1650    8.5123   12.9140 N   0  0  0  0  0  0  0  0  0  0  0  0
   39.0618    3.6614    7.2735 N   0  0  0  0  0  0  0  0  0  0  0  0
   41.3910    9.3476   10.2452 O   0  0  0  0  0  0  0  0  0  0  0  0
   39.6202    7.6887   10.2534 O   0  0  0  0  0  0  0  0  0  0  0  0
   41.5639    4.4963   10.0262 O   0  0  0  0  0  0  0  0  0  0  0  0
   38.2785    5.0998    9.6204 O   0  0  0  0  0  0  0  0  0  0  0  0
   41.4549    2.5751    8.7128 O   0  0  0  0  0  0  0  0  0  0  0  0
   41.7191    1.5402    9.6889 C   0  0  2  0  0  0  0  0  0  0  0  0
   42.5934    0.3987    9.1448 C   0  0  1  0  0  0  0  0  0  0  0  0
   41.8251   -0.4408    8.0896 C   0  0  2  0  0  0  0  0  0  0  0  0
   40.5537   -0.9895    8.6954 C   0  0  1  0  0  0  0  0  0  0  0  0
   39.6835    0.1832    9.2061 C   0  0  1  0  0  0  0  0  0  0  0  0
   38.3955   -0.2846    9.8800 C   0  0  0  0  0  0  0  0  0  0  0  0
   39.8434   -1.7785    7.6676 N   0  0  0  0  0  0  0  0  0  0  0  0
   40.4465    0.9714   10.1905 O   0  0  0  0  0  0  0  0  0  0  0  0
   43.7990    0.9668    8.6130 O   0  0  0  0  0  0  0  0  0  0  0  0
   42.6411   -1.5390    7.6594 O   0  0  0  0  0  0  0  0  0  0  0  0
   37.5616   -0.8864    8.9259 O   0  0  0  0  0  0  0  0  0  0  0  0
   40.9699   10.0747    8.9770 C   0  0  1  0  0  0  0  0  0  0  0  0
   40.7684    9.0027    7.8833 C   0  0  1  0  0  0  0  0  0  0  0  0
   40.2706    9.6378    6.5623 C   0  0  2  0  0  0  0  0  0  0  0  0
   38.9512   10.3810    6.8031 C   0  0  1  0  0  0  0  0  0  0  0  0
   39.1478   11.4854    7.8729 C   0  0  0  0  0  0  0  0  0  0  0  0
   39.6244   10.8336    9.1751 C   0  0  2  0  0  0  0  0  0  0  0  0
   38.4869   10.9949    5.5390 N   0  0  0  0  0  0  0  0  0  0  0  0
   39.7801   11.9010   10.1597 N   0  0  0  0  0  0  0  0  0  0  0  0
   42.0283    8.3429    7.6321 O   0  0  0  0  0  0  0  0  0  0  0  0
   40.0761    8.5915    5.5865 O   0  0  0  0  0  0  0  0  0  0  0  0
  1  2  1  0  0  0  0
  1 12  1  6  0  0  0
  1 13  1  0  0  0  0
  2  3  1  0  0  0  0
  2 10  1  6  0  0  0
  4  3  1  6  0  0  0
  4  5  1  0  0  0  0
  4 14  1  0  0  0  0
  5  6  1  0  0  0  0
  5 13  1  1  0  0  0
  6  7  1  0  0  0  0
  6 15  1  1  0  0  0
  7  8  1  0  0  0  0
  7 11  1  1  0  0  0
  8 14  1  0  0  0  0
  8 16  1  6  0  0  0
  9 11  1  0  0  0  0
 17 16  1  6  0  0  0
 17 18  1  0  0  0  0
 17 24  1  0  0  0  0
 18 19  1  0  0  0  0
 18 25  1  6  0  0  0
 19 20  1  0  0  0  0
 19 26  1  1  0  0  0
 20 21  1  0  0  0  0
 20 23  1  6  0  0  0
 21 22  1  1  0  0  0
 21 24  1  0  0  0  0
 22 27  1  0  0  0  0
 28 12  1  1  0  0  0
 28 29  1  0  0  0  0
 28 33  1  0  0  0  0
 29 30  1  0  0  0  0
 29 36  1  6  0  0  0
 30 31  1  0  0  0  0
 30 37  1  6  0  0  0
 31 32  1  0  0  0  0
 31 34  1  6  0  0  0
 32 33  1  0  0  0  0
 33 35  1  1  0  0  0
M  END
>  <CHROM.1>
168.80561386,69.59997469,-160.05937048,-178.07855786,-66.65363181,-73.57805080
40.43959922,5.18370484,8.90849969,-1.68494595,1.05555136,-3.04617125

>  <Name>
1yrj_lig

>  <RI>
0

>  <Rbt.Current_Directory>
/home/itssahil/PROJECTS/Mol_Feturizer/New_Systems/rnas/1yrj

>  <Rbt.Executable>
rbdock ($Id: //depot/dev/client3/rdock/2013.1/src/exe/rbdock.cxx#4 $)

>  <Rbt.Library>
libRbt.so (2013.1, Build901 2013/11/27)

>  <Rbt.Parameter_File>
/export/apps/rDock/src/rDock_2013.1_src/data/scripts/dock_solv.prm

>  <Rbt.Receptor>
prm/pocket_docking_4.prm

>  <SCORE>
-23.0764

>  <SCORE.INTER>
-16.7481

>  <SCORE.INTER.CONST>
1

>  <SCORE.INTER.POLAR>
-0.798727

>  <SCORE.INTER.ROT>
6

>  <SCORE.INTER.SOLV>
17.464

>  <SCORE.INTER.VDW>
-21.9243

>  <SCORE.INTER.norm>
-0.452651

>  <SCORE.INTRA>
-6.32831

>  <SCORE.INTRA.DIHEDRAL>
-12.0333

>  <SCORE.INTRA.DIHEDRAL.0>
15.6389

>  <SCORE.INTRA.POLAR>
0

>  <SCORE.INTRA.POLAR.0>
0

>  <SCORE.INTRA.REPUL>
0

>  <SCORE.INTRA.REPUL.0>
0

>  <SCORE.INTRA.SOLV>
-0.633544

>  <SCORE.INTRA.SOLV.lig_0>
-90.9181

>  <SCORE.INTRA.VDW>
0.00512778

>  <SCORE.INTRA.VDW.0>
-3.14158

>  <SCORE.INTRA.norm>
-0.171035

>  <SCORE.RESTR>
0

>  <SCORE.RESTR.CAVITY>
0

>  <SCORE.RESTR.norm>
0

>  <SCORE.SYSTEM>
0

>  <SCORE.SYSTEM.CONST>
0

>  <SCORE.SYSTEM.DIHEDRAL>
0

>  <SCORE.SYSTEM.SOLV>
0

>  <SCORE.SYSTEM.norm>
0

>  <SCORE.heavy>
37

>  <SCORE.norm>
-0.623686

>  <RMSD>
3.503

$$$$
1yrj_lig
 OpenBabel11021811423D
libRbt.so/2013.1/901 2013/11/27
 37 40  0  0  0  0  0  0  0  0999 V2000
   40.3981    8.6309   11.1112 C   0  0  1  0  0  0  0  0  0  0  0  0
   41.1346    7.7745   12.1598 C   0  0  1  0  0  0  0  0  0  0  0  0
   41.8598    6.5819   11.5163 C   0  0  0  0  0  0  0  0  0  0  0  0
   40.8604    5.7391   10.6818 C   0  0  1  0  0  0  0  0  0  0  0  0
   40.1865    6.6232    9.6153 C   0  0  1  0  0  0  0  0  0  0  0  0
   39.1804    5.7350    8.7686 C   0  0  1  0  0  0  0  0  0  0  0  0
   39.9456    4.5825    8.0980 C   0  0  1  0  0  0  0  0  0  0  0  0
   40.6425    3.7563    9.2062 C   0  0  2  0  0  0  0  0  0  0  0  0
   38.5562    4.3783    5.9686 C   0  0  0  0  0  0  0  0  0  0  0  0
   42.0787    8.5741   12.9575 N   0  0  0  0  0  0  0  0  0  0  0  0
   39.0132    3.7698    7.2570 N   0  0  0  0  0  0  0  0  0  0  0  0
   41.2760    9.4410   10.3074 O   0  0  0  0  0  0  0  0  0  0  0  0
   39.5301    7.7559   10.2990 O   0  0  0  0  0  0  0  0  0  0  0  0
   41.5196    4.5971   10.0081 O   0  0  0  0  0  0  0  0  0  0  0  0
   38.2232    5.1579    9.6318 O   0  0  0  0  0  0  0  0  0  0  0  0
   41.4310    2.6961    8.6641 O   0  0  0  0  0  0  0  0  0  0  0  0
   41.7303    1.6574    9.6259 C   0  0  2  0  0  0  0  0  0  0  0  0
   42.6353    0.5491    9.0637 C   0  0  1  0  0  0  0  0  0  0  0  0
   41.8873   -0.2995    8.0014 C   0  0  2  0  0  0  0  0  0  0  0  0
   40.6354   -0.8931    8.6056 C   0  0  1  0  0  0  0  0  0  0  0  0
   39.7333    0.2469    9.1348 C   0  0  1  0  0  0  0  0  0  0  0  0
   38.4629   -0.2671    9.8082 C   0  0  0  0  0  0  0  0  0  0  0  0
   39.9440   -1.6899    7.5710 N   0  0  0  0  0  0  0  0  0  0  0  0
   40.4773    1.0450   10.1258 O   0  0  0  0  0  0  0  0  0  0  0  0
   43.8212    1.1592    8.5340 O   0  0  0  0  0  0  0  0  0  0  0  0
   42.7333   -1.3676    7.5539 O   0  0  0  0  0  0  0  0  0  0  0  0
   37.6409   -0.8779    8.8495 O   0  0  0  0  0  0  0  0  0  0  0  0
   40.8492   10.1401    9.0254 C   0  0  1  0  0  0  0  0  0  0  0  0
   40.7619    9.0594    7.9251 C   0  0  1  0  0  0  0  0  0  0  0  0
   40.2670    9.6613    6.5876 C   0  0  2  0  0  0  0  0  0  0  0  0
   38.8910   10.3093    6.7823 C   0  0  1  0  0  0  0  0  0  0  0  0
   38.9719   11.4220    7.8584 C   0  0  0  0  0  0  0  0  0  0  0  0
   39.4475   10.8020    9.1764 C   0  0  2  0  0  0  0  0  0  0  0  0
   38.4290   10.8923    5.5028 N   0  0  0  0  0  0  0  0  0  0  0  0
   39.4934   11.8751   10.1660 N   0  0  0  0  0  0  0  0  0  0  0  0
   42.0731    8.4904    7.7181 O   0  0  0  0  0  0  0  0  0  0  0  0
   40.1808    8.6065    5.6055 O   0  0  0  0  0  0  0  0  0  0  0  0
  1  2  1  0  0  0  0
  1 12  1  6  0  0  0
  1 13  1  0  0  0  0
  2  3  1  0  0  0  0
  2 10  1  6  0  0  0
  4  3  1  6  0  0  0
  4  5  1  0  0  0  0
  4 14  1  0  0  0  0
  5  6  1  0  0  0  0
  5 13  1  1  0  0  0
  6  7  1  0  0  0  0
  6 15  1  1  0  0  0
  7  8  1  0  0  0  0
  7 11  1  1  0  0  0
  8 14  1  0  0  0  0
  8 16  1  6  0  0  0
  9 11  1  0  0  0  0
 17 16  1  6  0  0  0
 17 18  1  0  0  0  0
 17 24  1  0  0  0  0
 18 19  1  0  0  0  0
 18 25  1  6  0  0  0
 19 20  1  0  0  0  0
 19 26  1  1  0  0  0
 20 21  1  0  0  0  0
 20 23  1  6  0  0  0
 21 22  1  1  0  0  0
 21 24  1  0  0  0  0
 22 27  1  0  0  0  0
 28 12  1  1  0  0  0
 28 29  1  0  0  0  0
 28 33  1  0  0  0  0
 29 30  1  0  0  0  0
 29 36  1  6  0  0  0
 30 31  1  0  0  0  0
 30 37  1  6  0  0  0
 31 32  1  0  0  0  0
 31 34  1  6  0  0  0
 32 33  1  0  0  0  0
 33 35  1  1  0  0  0
M  END
>  <CHROM.1>
166.41963814,73.59197866,-160.76036848,-177.21662917,-66.82570229,-75.77398209
40.41165494,5.25244643,8.89237836,-1.71835159,1.07621643,-3.00253741

>  <Name>
1yrj_lig

>  <RI>
0

>  <Rbt.Current_Directory>
/home/itssahil/PROJECTS/Mol_Feturizer/New_Systems/rnas/1yrj

>  <Rbt.Executable>
rbdock ($Id: //depot/dev/client3/rdock/2013.1/src/exe/rbdock.cxx#4 $)

>  <Rbt.Library>
libRbt.so (2013.1, Build901 2013/11/27)

>  <Rbt.Parameter_File>
/export/apps/rDock/src/rDock_2013.1_src/data/scripts/dock_solv.prm

>  <Rbt.Receptor>
prm/pocket_docking_6.prm

>  <SCORE>
-23.0832

>  <SCORE.INTER>
-16.956

>  <SCORE.INTER.CONST>
1

>  <SCORE.INTER.POLAR>
-0.757585

>  <SCORE.INTER.ROT>
6

>  <SCORE.INTER.SOLV>
17.2904

>  <SCORE.INTER.VDW>
-22.1422

>  <SCORE.INTER.norm>
-0.458272

>  <SCORE.INTRA>
-6.12717

>  <SCORE.INTRA.DIHEDRAL>
-11.4934

>  <SCORE.INTRA.DIHEDRAL.0>
15.6389

>  <SCORE.INTRA.POLAR>
0

>  <SCORE.INTRA.POLAR.0>
0

>  <SCORE.INTRA.REPUL>
0

>  <SCORE.INTRA.REPUL.0>
0

>  <SCORE.INTRA.SOLV>
-0.594285

>  <SCORE.INTRA.SOLV.lig_0>
-90.9181

>  <SCORE.INTRA.VDW>
-0.0833474

>  <SCORE.INTRA.VDW.0>
-3.14158

>  <SCORE.INTRA.norm>
-0.165599

>  <SCORE.RESTR>
0

>  <SCORE.RESTR.CAVITY>
0

>  <SCORE.RESTR.norm>
0

>  <SCORE.SYSTEM>
0

>  <SCORE.SYSTEM.CONST>
0

>  <SCORE.SYSTEM.DIHEDRAL>
0

>  <SCORE.SYSTEM.SOLV>
0

>  <SCORE.SYSTEM.norm>
0

>  <SCORE.heavy>
37

>  <SCORE.norm>
-0.623871

>  <RMSD>
3.523

$$$$
1yrj_lig
 OpenBabel11021811423D
libRbt.so/2013.1/901 2013/11/27
 37 40  0  0  0  0  0  0  0  0999 V2000
   38.7516    4.0286    8.9718 C   0  0  1  0  0  0  0  0  0  0  0  0
   39.8136    3.5781    9.9939 C   0  0  1  0  0  0  0  0  0  0  0  0
   40.7031    2.4554    9.4364 C   0  0  0  0  0  0  0  0  0  0  0  0
   39.8252    1.2704    8.9559 C   0  0  1  0  0  0  0  0  0  0  0  0
   38.8142    1.7568    7.9003 C   0  0  1  0  0  0  0  0  0  0  0  0
   37.9391    0.5245    7.4169 C   0  0  1  0  0  0  0  0  0  0  0  0
   38.8535   -0.5570    6.8190 C   0  0  1  0  0  0  0  0  0  0  0  0
   39.8788   -0.9747    7.9010 C   0  0  2  0  0  0  0  0  0  0  0  0
   38.2481   -2.1170    4.8938 C   0  0  0  0  0  0  0  0  0  0  0  0
   40.6434    4.7027   10.4563 N   0  0  0  0  0  0  0  0  0  0  0  0
   38.0319   -1.7007    6.3147 N   0  0  0  0  0  0  0  0  0  0  0  0
   39.2862    4.8200    7.8943 O   0  0  0  0  0  0  0  0  0  0  0  0
   38.0109    2.8447    8.4939 O   0  0  0  0  0  0  0  0  0  0  0  0
   40.6349    0.1762    8.3730 O   0  0  0  0  0  0  0  0  0  0  0  0
   37.2811   -0.0483    8.5275 O   0  0  0  0  0  0  0  0  0  0  0  0
   40.8119   -1.9367    7.4077 O   0  0  0  0  0  0  0  0  0  0  0  0
   41.4982   -1.5046    6.2094 C   0  0  2  0  0  0  0  0  0  0  0  0
   42.4458   -2.5692    5.6328 C   0  0  1  0  0  0  0  0  0  0  0  0
   43.6712   -2.7887    6.5594 C   0  0  2  0  0  0  0  0  0  0  0  0
   44.4031   -1.4819    6.7628 C   0  0  1  0  0  0  0  0  0  0  0  0
   43.4323   -0.4419    7.3705 C   0  0  1  0  0  0  0  0  0  0  0  0
   44.0781    0.9281    7.5655 C   0  0  0  0  0  0  0  0  0  0  0  0
   45.5594   -1.7218    7.6509 N   0  0  0  0  0  0  0  0  0  0  0  0
   42.2717   -0.2701    6.4784 O   0  0  0  0  0  0  0  0  0  0  0  0
   41.6978   -3.7763    5.4272 O   0  0  0  0  0  0  0  0  0  0  0  0
   44.5696   -3.7302    5.9565 O   0  0  0  0  0  0  0  0  0  0  0  0
   44.4801    1.4358    6.3211 O   0  0  0  0  0  0  0  0  0  0  0  0
   38.8387    6.2399    7.5809 C   0  0  1  0  0  0  0  0  0  0  0  0
   37.4911    6.1377    6.8329 C   0  0  1  0  0  0  0  0  0  0  0  0
   36.9139    7.5407    6.5257 C   0  0  2  0  0  0  0  0  0  0  0  0
   36.7202    8.3243    7.8293 C   0  0  1  0  0  0  0  0  0  0  0  0
   38.0727    8.4666    8.5731 C   0  0  0  0  0  0  0  0  0  0  0  0
   38.6174    7.0679    8.8813 C   0  0  2  0  0  0  0  0  0  0  0  0
   36.1788    9.6683    7.5275 N   0  0  0  0  0  0  0  0  0  0  0  0
   39.8790    7.2443    9.5955 N   0  0  0  0  0  0  0  0  0  0  0  0
   37.6962    5.4396    5.5853 O   0  0  0  0  0  0  0  0  0  0  0  0
   35.6470    7.3858    5.8506 O   0  0  0  0  0  0  0  0  0  0  0  0
  1  2  1  0  0  0  0
  1 12  1  6  0  0  0
  1 13  1  0  0  0  0
  2  3  1  0  0  0  0
  2 10  1  6  0  0  0
  4  3  1  6  0  0  0
  4  5  1  0  0  0  0
  4 14  1  0  0  0  0
  5  6  1  0  0  0  0
  5 13  1  1  0  0  0
  6  7  1  0  0  0  0
  6 15  1  1  0  0  0
  7  8  1  0  0  0  0
  7 11  1  1  0  0  0
  8 14  1  0  0  0  0
  8 16  1  6  0  0  0
  9 11  1  0  0  0  0
 17 16  1  1  0  0  0
 17 18  1  0  0  0  0
 17 24  1  0  0  0  0
 18 19  1  0  0  0  0
 18 25  1  1  0  0  0
 19 20  1  0  0  0  0
 19 26  1  6  0  0  0
 20 21  1  0  0  0  0
 20 23  1  1  0  0  0
 21 22  1  6  0  0  0
 21 24  1  0  0  0  0
 22 27  1  0  0  0  0
 28 12  1  1  0  0  0
 28 29  1  0  0  0  0
 28 33  1  0  0  0  0
 29 30  1  0  0  0  0
 29 36  1  6  0  0  0
 30 31  1  0  0  0  0
 30 37  1  1  0  0  0
 31 32  1  0  0  0  0
 31 34  1  6  0  0  0
 32 33  1  0  0  0  0
 33 35  1  6  0  0  0
M  END
>  <CHROM.1>
-120.71810205,126.29621031,54.70039595,-176.81892855,61.55864864,-78.19167722
40.05481088,2.01595276,7.44286835,-2.08314539,0.21725075,-2.88779701

>  <Name>
1yrj_lig

>  <RI>
0

>  <Rbt.Current_Directory>
/home/itssahil/PROJECTS/Mol_Feturizer/New_Systems/rnas/1yrj

>  <Rbt.Executable>
rbdock ($Id: //depot/dev/client3/rdock/2013.1/src/exe/rbdock.cxx#4 $)

>  <Rbt.Library>
libRbt.so (2013.1, Build901 2013/11/27)

>  <Rbt.Parameter_File>
/export/apps/rDock/src/rDock_2013.1_src/data/scripts/dock_solv.prm

>  <Rbt.Receptor>
prm/pocket_docking_6.prm

>  <SCORE>
-19.4267

>  <SCORE.INTER>
-18.223

>  <SCORE.INTER.CONST>
1

>  <SCORE.INTER.POLAR>
-1.40748

>  <SCORE.INTER.ROT>
6

>  <SCORE.INTER.SOLV>
21.6008

>  <SCORE.INTER.VDW>
-22.2573

>  <SCORE.INTER.norm>
-0.492513

>  <SCORE.INTRA>
-1.20376

>  <SCORE.INTRA.DIHEDRAL>
-5.59361

>  <SCORE.INTRA.DIHEDRAL.0>
15.6389

>  <SCORE.INTRA.POLAR>
0

>  <SCORE.INTRA.POLAR.0>
0

>  <SCORE.INTRA.REPUL>
0

>  <SCORE.INTRA.REPUL.0>
0

>  <SCORE.INTRA.SOLV>
2.51845

>  <SCORE.INTRA.SOLV.lig_0>
-90.9181

>  <SCORE.INTRA.VDW>
0.33382

>  <SCORE.INTRA.VDW.0>
-3.14158

>  <SCORE.INTRA.norm>
-0.0325341

>  <SCORE.RESTR>
0

>  <SCORE.RESTR.CAVITY>
0

>  <SCORE.RESTR.norm>
0

>  <SCORE.SYSTEM>
0

>  <SCORE.SYSTEM.CONST>
0

>  <SCORE.SYSTEM.DIHEDRAL>
0

>  <SCORE.SYSTEM.SOLV>
0

>  <SCORE.SYSTEM.norm>
0

>  <SCORE.heavy>
37

>  <SCORE.norm>
-0.525047

>  <RMSD>
3.712

$$$$
1yrj_lig
 OpenBabel11021811423D
libRbt.so/2013.1/901 2013/11/27
 37 40  0  0  0  0  0  0  0  0999 V2000
   39.3341    3.5146   10.6205 C   0  0  1  0  0  0  0  0  0  0  0  0
   40.8255    3.2415   10.3437 C   0  0  1  0  0  0  0  0  0  0  0  0
   41.0257    2.3948    9.0767 C   0  0  0  0  0  0  0  0  0  0  0  0
   40.2079    1.0810    9.1802 C   0  0  1  0  0  0  0  0  0  0  0  0
   38.7184    1.4030    9.4059 C   0  0  1  0  0  0  0  0  0  0  0  0
   37.9038    0.0441    9.4950 C   0  0  1  0  0  0  0  0  0  0  0  0
   38.0842   -0.7540    8.1935 C   0  0  1  0  0  0  0  0  0  0  0  0
   39.5975   -1.0080    7.9886 C   0  0  2  0  0  0  0  0  0  0  0  0
   36.6438   -2.4695    6.9734 C   0  0  0  0  0  0  0  0  0  0  0  0
   41.6046    4.4871   10.2518 N   0  0  0  0  0  0  0  0  0  0  0  0
   37.2788   -2.0132    8.2492 N   0  0  0  0  0  0  0  0  0  0  0  0
   38.7500    4.4851    9.7316 O   0  0  0  0  0  0  0  0  0  0  0  0
   38.6023    2.2327   10.6222 O   0  0  0  0  0  0  0  0  0  0  0  0
   40.3368    0.2457    7.9643 O   0  0  0  0  0  0  0  0  0  0  0  0
   38.4202   -0.7445   10.5467 O   0  0  0  0  0  0  0  0  0  0  0  0
   39.8616   -1.6936    6.7640 O   0  0  0  0  0  0  0  0  0  0  0  0
   41.2539   -2.0509    6.5982 C   0  0  2  0  0  0  0  0  0  0  0  0
   41.5220   -2.8869    5.3361 C   0  0  1  0  0  0  0  0  0  0  0  0
   40.9113   -4.3077    5.4656 C   0  0  2  0  0  0  0  0  0  0  0  0
   41.4708   -4.9988    6.6879 C   0  0  1  0  0  0  0  0  0  0  0  0
   41.1595   -4.1490    7.9426 C   0  0  1  0  0  0  0  0  0  0  0  0
   41.7331   -4.7513    9.2232 C   0  0  0  0  0  0  0  0  0  0  0  0
   40.8683   -6.3444    6.7865 N   0  0  0  0  0  0  0  0  0  0  0  0
   41.7350   -2.8017    7.7812 O   0  0  0  0  0  0  0  0  0  0  0  0
   41.0036   -2.1746    4.2035 O   0  0  0  0  0  0  0  0  0  0  0  0
   41.2437   -5.0834    4.3059 O   0  0  0  0  0  0  0  0  0  0  0  0
   43.1257   -4.8679    9.1010 O   0  0  0  0  0  0  0  0  0  0  0  0
   39.2340    5.9220    9.6075 C   0  0  1  0  0  0  0  0  0  0  0  0
   38.4990    6.5472    8.4013 C   0  0  1  0  0  0  0  0  0  0  0  0
   38.8742    8.0392    8.2295 C   0  0  2  0  0  0  0  0  0  0  0  0
   38.5251    8.8170    9.5039 C   0  0  1  0  0  0  0  0  0  0  0  0
   39.2851    8.2230   10.7174 C   0  0  0  0  0  0  0  0  0  0  0  0
   38.8870    6.7522   10.8787 C   0  0  2  0  0  0  0  0  0  0  0  0
   38.8965   10.2399    9.3369 N   0  0  0  0  0  0  0  0  0  0  0  0
   39.6077    6.2352   12.0389 N   0  0  0  0  0  0  0  0  0  0  0  0
   38.8729    5.8361    7.2011 O   0  0  0  0  0  0  0  0  0  0  0  0
   38.1423    8.5774    7.1073 O   0  0  0  0  0  0  0  0  0  0  0  0
  1  2  1  0  0  0  0
  1 12  1  6  0  0  0
  1 13  1  0  0  0  0
  2  3  1  0  0  0  0
  2 10  1  6  0  0  0
  4  3  1  6  0  0  0
  4  5  1  0  0  0  0
  4 14  1  0  0  0  0
  5  6  1  0  0  0  0
  5 13  1  1  0  0  0
  6  7  1  0  0  0  0
  6 15  1  1  0  0  0
  7  8  1  0  0  0  0
  7 11  1  1  0  0  0
  8 14  1  0  0  0  0
  8 16  1  6  0  0  0
  9 11  1  0  0  0  0
 17 16  1  1  0  0  0
 17 18  1  0  0  0  0
 17 24  1  0  0  0  0
 18 19  1  0  0  0  0
 18 25  1  6  0  0  0
 19 20  1  0  0  0  0
 19 26  1  6  0  0  0
 20 21  1  0  0  0  0
 20 23  1  1  0  0  0
 21 22  1  1  0  0  0
 21 24  1  0  0  0  0
 22 27  1  0  0  0  0
 28 12  1  1  0  0  0
 28 29  1  0  0  0  0
 28 33  1  0  0  0  0
 29 30  1  0  0  0  0
 29 36  1  6  0  0  0
 30 31  1  0  0  0  0
 30 37  1  6  0  0  0
 31 32  1  0  0  0  0
 31 34  1  6  0  0  0
 32 33  1  0  0  0  0
 33 35  1  1  0  0  0
M  END
>  <CHROM.1>
-60.10543386,143.72137564,-174.86122553,175.36756464,59.20167307,171.12083361
39.79083123,1.17080860,8.39679388,-2.67832627,1.39015542,-1.80700917

>  <Name>
1yrj_lig

>  <RI>
0

>  <Rbt.Current_Directory>
/home/itssahil/PROJECTS/Mol_Feturizer/New_Systems/rnas/1yrj

>  <Rbt.Executable>
rbdock ($Id: //depot/dev/client3/rdock/2013.1/src/exe/rbdock.cxx#4 $)

>  <Rbt.Library>
libRbt.so (2013.1, Build901 2013/11/27)

>  <Rbt.Parameter_File>
/export/apps/rDock/src/rDock_2013.1_src/data/scripts/dock_solv.prm

>  <Rbt.Receptor>
prm/pocket_docking_7.prm

>  <SCORE>
-16.7335

>  <SCORE.INTER>
-11.1549

>  <SCORE.INTER.CONST>
1

>  <SCORE.INTER.POLAR>
-1.21158

>  <SCORE.INTER.ROT>
6

>  <SCORE.INTER.SOLV>
15.1461

>  <SCORE.INTER.VDW>
-16.0467

>  <SCORE.INTER.norm>
-0.301485

>  <SCORE.INTRA>
-5.58315

>  <SCORE.INTRA.DIHEDRAL>
-14.1133

>  <SCORE.INTRA.DIHEDRAL.0>
15.6389

>  <SCORE.INTRA.POLAR>
0

>  <SCORE.INTRA.POLAR.0>
0

>  <SCORE.INTRA.REPUL>
0

>  <SCORE.INTRA.REPUL.0>
0

>  <SCORE.INTRA.SOLV>
2.20581

>  <SCORE.INTRA.SOLV.lig_0>
-90.9181

>  <SCORE.INTRA.VDW>
0.370578

>  <SCORE.INTRA.VDW.0>
-3.14158

>  <SCORE.INTRA.norm>
-0.150896

>  <SCORE.RESTR>
0.00457084

>  <SCORE.RESTR.CAVITY>
0.00457084

>  <SCORE.RESTR.norm>
0.000123536

>  <SCORE.SYSTEM>
0

>  <SCORE.SYSTEM.CONST>
0

>  <SCORE.SYSTEM.DIHEDRAL>
0

>  <SCORE.SYSTEM.SOLV>
0

>  <SCORE.SYSTEM.norm>
0

>  <SCORE.heavy>
37

>  <SCORE.norm>
-0.452257

>  <RMSD>
3.846

$$$$
1yrj_lig
 OpenBabel11021811423D
libRbt.so/2013.1/901 2013/11/27
 37 40  0  0  0  0  0  0  0  0999 V2000
   38.2682    2.2423    8.4488 C   0  0  1  0  0  0  0  0  0  0  0  0
   39.2188    1.6248    9.4931 C   0  0  1  0  0  0  0  0  0  0  0  0
   40.1780    0.6043    8.8599 C   0  0  0  0  0  0  0  0  0  0  0  0
   39.3729   -0.4813    8.0990 C   0  0  1  0  0  0  0  0  0  0  0  0
   38.4762    0.1768    7.0333 C   0  0  1  0  0  0  0  0  0  0  0  0
   37.6747   -0.9550    6.2620 C   0  0  1  0  0  0  0  0  0  0  0  0
   38.6626   -1.9284    5.5986 C   0  0  1  0  0  0  0  0  0  0  0  0
   39.5697   -2.5231    6.7031 C   0  0  2  0  0  0  0  0  0  0  0  0
   37.2807   -4.0723    5.6150 C   0  0  0  0  0  0  0  0  0  0  0  0
   39.9789    2.6541   10.2211 N   0  0  0  0  0  0  0  0  0  0  0  0
   37.9155   -2.9696    4.8274 N   0  0  0  0  0  0  0  0  0  0  0  0
   38.9063    3.1971    7.5803 O   0  0  0  0  0  0  0  0  0  0  0  0
   37.5991    1.1566    7.7056 O   0  0  0  0  0  0  0  0  0  0  0  0
   40.2552   -1.4691    7.4368 O   0  0  0  0  0  0  0  0  0  0  0  0
   36.9076   -1.6989    7.1854 O   0  0  0  0  0  0  0  0  0  0  0  0
   40.5633   -3.3958    6.1639 O   0  0  0  0  0  0  0  0  0  0  0  0
   41.3862   -2.7688    5.1523 C   0  0  2  0  0  0  0  0  0  0  0  0
   42.3404   -3.7485    4.4500 C   0  0  1  0  0  0  0  0  0  0  0  0
   43.4543   -4.2342    5.4152 C   0  0  2  0  0  0  0  0  0  0  0  0
   44.2179   -3.0479    5.9580 C   0  0  1  0  0  0  0  0  0  0  0  0
   43.2365   -2.0971    6.6833 C   0  0  1  0  0  0  0  0  0  0  0  0
   43.9181   -0.8420    7.2236 C   0  0  0  0  0  0  0  0  0  0  0  0
   45.2661   -3.5410    6.8753 N   0  0  0  0  0  0  0  0  0  0  0  0
   42.1813   -1.6694    5.7473 O   0  0  0  0  0  0  0  0  0  0  0  0
   41.5654   -4.8360    3.9248 O   0  0  0  0  0  0  0  0  0  0  0  0
   44.3675   -5.0852    4.7091 O   0  0  0  0  0  0  0  0  0  0  0  0
   42.9663   -0.0310    7.8594 O   0  0  0  0  0  0  0  0  0  0  0  0
   38.4960    4.6585    7.4784 C   0  0  1  0  0  0  0  0  0  0  0  0
   39.0061    5.3644    8.7541 C   0  0  1  0  0  0  0  0  0  0  0  0
   38.6958    6.8805    8.7166 C   0  0  2  0  0  0  0  0  0  0  0  0
   39.3447    7.5176    7.4821 C   0  0  1  0  0  0  0  0  0  0  0  0
   38.8136    6.8430    6.1914 C   0  0  0  0  0  0  0  0  0  0  0  0
   39.1455    5.3480    6.2420 C   0  0  2  0  0  0  0  0  0  0  0  0
   39.0348    8.9643    7.4466 N   0  0  0  0  0  0  0  0  0  0  0  0
   38.6466    4.7534    5.0049 N   0  0  0  0  0  0  0  0  0  0  0  0
   38.3522    4.7878    9.9055 O   0  0  0  0  0  0  0  0  0  0  0  0
   39.2146    7.4921    9.9173 O   0  0  0  0  0  0  0  0  0  0  0  0
  1  2  1  0  0  0  0
  1 12  1  6  0  0  0
  1 13  1  0  0  0  0
  2  3  1  0  0  0  0
  2 10  1  6  0  0  0
  4  3  1  6  0  0  0
  4  5  1  0  0  0  0
  4 14  1  0  0  0  0
  5  6  1  0  0  0  0
  5 13  1  1  0  0  0
  6  7  1  0  0  0  0
  6 15  1  1  0  0  0
  7  8  1  0  0  0  0
  7 11  1  1  0  0  0
  8 14  1  0  0  0  0
  8 16  1  6  0  0  0
  9 11  1  0  0  0  0
 17 16  1  1  0  0  0
 17 18  1  0  0  0  0
 17 24  1  0  0  0  0
 18 19  1  0  0  0  0
 18 25  1  1  0  0  0
 19 20  1  0  0  0  0
 19 26  1  6  0  0  0
 20 21  1  0  0  0  0
 20 23  1  1  0  0  0
 21 22  1  6  0  0  0
 21 24  1  0  0  0  0
 22 27  1  0  0  0  0
 28 12  1  1  0  0  0
 28 29  1  0  0  0  0
 28 33  1  0  0  0  0
 29 30  1  0  0  0  0
 29 36  1  1  0  0  0
 30 31  1  0  0  0  0
 30 37  1  1  0  0  0
 31 32  1  0  0  0  0
 31 34  1  6  0  0  0
 32 33  1  0  0  0  0
 33 35  1  6  0  0  0
M  END
>  <CHROM.1>
-119.36747284,-76.99956155,55.79133078,-172.99306089,179.73522568,74.40866503
40.12423354,0.57451884,6.98677219,1.88175282,-0.02712400,0.26799104

>  <Name>
1yrj_lig

>  <RI>
0

>  <Rbt.Current_Directory>
/home/itssahil/PROJECTS/Mol_Feturizer/New_Systems/rnas/1yrj

>  <Rbt.Executable>
rbdock ($Id: //depot/dev/client3/rdock/2013.1/src/exe/rbdock.cxx#4 $)

>  <Rbt.Library>
libRbt.so (2013.1, Build901 2013/11/27)

>  <Rbt.Parameter_File>
/export/apps/rDock/src/rDock_2013.1_src/data/scripts/dock_solv.prm

>  <Rbt.Receptor>
prm/pocket_docking_7.prm

>  <SCORE>
-17.8339

>  <SCORE.INTER>
-17.0859

>  <SCORE.INTER.CONST>
1

>  <SCORE.INTER.POLAR>
-0.951098

>  <SCORE.INTER.ROT>
6

>  <SCORE.INTER.SOLV>
16.0612

>  <SCORE.INTER.VDW>
-21.174

>  <SCORE.INTER.norm>
-0.46178

>  <SCORE.INTRA>
-0.748018

>  <SCORE.INTRA.DIHEDRAL>
-6.9433

>  <SCORE.INTRA.DIHEDRAL.0>
15.6389

>  <SCORE.INTRA.POLAR>
0

>  <SCORE.INTRA.POLAR.0>
0

>  <SCORE.INTRA.REPUL>
0

>  <SCORE.INTRA.REPUL.0>
0

>  <SCORE.INTRA.SOLV>
0.929605

>  <SCORE.INTRA.SOLV.lig_0>
-90.9181

>  <SCORE.INTRA.VDW>
2.25883

>  <SCORE.INTRA.VDW.0>
-3.14158

>  <SCORE.INTRA.norm>
-0.0202167

>  <SCORE.RESTR>
0

>  <SCORE.RESTR.CAVITY>
0

>  <SCORE.RESTR.norm>
0

>  <SCORE.SYSTEM>
0

>  <SCORE.SYSTEM.CONST>
0

>  <SCORE.SYSTEM.DIHEDRAL>
0

>  <SCORE.SYSTEM.SOLV>
0

>  <SCORE.SYSTEM.norm>
0

>  <SCORE.heavy>
37

>  <SCORE.norm>
-0.481997

>  <RMSD>
4.519

$$$$
1yrj_lig
 OpenBabel11021811423D
libRbt.so/2013.1/901 2013/11/27
 37 40  0  0  0  0  0  0  0  0999 V2000
   40.5756    4.1246    9.4854 C   0  0  1  0  0  0  0  0  0  0  0  0
   39.2836    3.4242    9.0208 C   0  0  1  0  0  0  0  0  0  0  0  0
   39.0984    2.0580    9.7001 C   0  0  0  0  0  0  0  0  0  0  0  0
   40.3507    1.1734    9.4658 C   0  0  1  0  0  0  0  0  0  0  0  0
   41.6090    1.8907    9.9904 C   0  0  1  0  0  0  0  0  0  0  0  0
   42.8718    0.9602    9.7506 C   0  0  1  0  0  0  0  0  0  0  0  0
   42.6767   -0.3765   10.4845 C   0  0  1  0  0  0  0  0  0  0  0  0
   41.3768   -1.0315    9.9575 C   0  0  2  0  0  0  0  0  0  0  0  0
   45.0637   -0.9477   11.1793 C   0  0  0  0  0  0  0  0  0  0  0  0
   38.0946    4.2651    9.2361 N   0  0  0  0  0  0  0  0  0  0  0  0
   43.8848   -1.2401   10.3053 N   0  0  0  0  0  0  0  0  0  0  0  0
   40.4940    4.6613   10.8190 O   0  0  0  0  0  0  0  0  0  0  0  0
   41.7129    3.1995    9.3139 O   0  0  0  0  0  0  0  0  0  0  0  0
   40.2376   -0.1428   10.1348 O   0  0  0  0  0  0  0  0  0  0  0  0
   42.9867    0.6706    8.3731 O   0  0  0  0  0  0  0  0  0  0  0  0
   41.0846   -2.2549   10.6337 O   0  0  0  0  0  0  0  0  0  0  0  0
   39.9057   -2.9216   10.1245 C   0  0  2  0  0  0  0  0  0  0  0  0
   39.3070   -3.9379   11.1106 C   0  0  1  0  0  0  0  0  0  0  0  0
   40.2378   -5.1679   11.2809 C   0  0  2  0  0  0  0  0  0  0  0  0
   40.4858   -5.8153    9.9377 C   0  0  1  0  0  0  0  0  0  0  0  0
   41.1147   -4.7772    8.9785 C   0  0  1  0  0  0  0  0  0  0  0  0
   41.3553   -5.3348    7.5774 C   0  0  0  0  0  0  0  0  0  0  0  0
   41.3771   -6.9778   10.1315 N   0  0  0  0  0  0  0  0  0  0  0  0
   40.2175   -3.6146    8.8528 O   0  0  0  0  0  0  0  0  0  0  0  0
   39.0595   -3.2682   12.3553 O   0  0  0  0  0  0  0  0  0  0  0  0
   39.6160   -6.1276   12.1465 O   0  0  0  0  0  0  0  0  0  0  0  0
   41.9203   -4.3374    6.7688 O   0  0  0  0  0  0  0  0  0  0  0  0
   40.4287    6.1485   11.1329 C   0  0  1  0  0  0  0  0  0  0  0  0
   41.7199    6.7882   10.5765 C   0  0  1  0  0  0  0  0  0  0  0  0
   41.7202    8.3218   10.7871 C   0  0  2  0  0  0  0  0  0  0  0  0
   40.4998    8.9450   10.0991 C   0  0  1  0  0  0  0  0  0  0  0  0
   39.1945    8.3384   10.6743 C   0  0  0  0  0  0  0  0  0  0  0  0
   39.2079    6.8241   10.4409 C   0  0  2  0  0  0  0  0  0  0  0  0
   40.5004   10.4094   10.3137 N   0  0  0  0  0  0  0  0  0  0  0  0
   37.9579    6.2939   10.9788 N   0  0  0  0  0  0  0  0  0  0  0  0
   42.8586    6.2275   11.2657 O   0  0  0  0  0  0  0  0  0  0  0  0
   42.9340    8.8685   10.2283 O   0  0  0  0  0  0  0  0  0  0  0  0
  1  2  1  0  0  0  0
  1 12  1  1  0  0  0
  1 13  1  0  0  0  0
  2  3  1  0  0  0  0
  2 10  1  1  0  0  0
  4  3  1  1  0  0  0
  4  5  1  0  0  0  0
  4 14  1  0  0  0  0
  5  6  1  0  0  0  0
  5 13  1  6  0  0  0
  6  7  1  0  0  0  0
  6 15  1  6  0  0  0
  7  8  1  0  0  0  0
  7 11  1  6  0  0  0
  8 14  1  0  0  0  0
  8 16  1  1  0  0  0
  9 11  1  0  0  0  0
 17 16  1  1  0  0  0
 17 18  1  0  0  0  0
 17 24  1  0  0  0  0
 18 19  1  0  0  0  0
 18 25  1  1  0  0  0
 19 20  1  0  0  0  0
 19 26  1  1  0  0  0
 20 21  1  0  0  0  0
 20 23  1  1  0  0  0
 21 22  1  6  0  0  0
 21 24  1  0  0  0  0
 22 27  1  0  0  0  0
 28 12  1  6  0  0  0
 28 29  1  0  0  0  0
 28 33  1  0  0  0  0
 29 30  1  0  0  0  0
 29 36  1  1  0  0  0
 30 31  1  0  0  0  0
 30 37  1  6  0  0  0
 31 32  1  0  0  0  0
 31 34  1  1  0  0  0
 32 33  1  0  0  0  0
 33 35  1  1  0  0  0
M  END
>  <CHROM.1>
-108.93252960,79.93547274,-177.50681703,-160.11465901,179.79751033,-60.46048490
40.91644147,1.17711700,10.09715487,1.58836639,0.19346227,0.03378903

>  <Name>
1yrj_lig

>  <RI>
0

>  <Rbt.Current_Directory>
/home/itssahil/PROJECTS/Mol_Feturizer/New_Systems/rnas/1yrj

>  <Rbt.Executable>
rbdock ($Id: //depot/dev/client3/rdock/2013.1/src/exe/rbdock.cxx#4 $)

>  <Rbt.Library>
libRbt.so (2013.1, Build901 2013/11/27)

>  <Rbt.Parameter_File>
/export/apps/rDock/src/rDock_2013.1_src/data/scripts/dock_solv.prm

>  <Rbt.Receptor>
prm/pocket_docking_8.prm

>  <SCORE>
-17.6519

>  <SCORE.INTER>
-15.6189

>  <SCORE.INTER.CONST>
1

>  <SCORE.INTER.POLAR>
-0.958533

>  <SCORE.INTER.ROT>
6

>  <SCORE.INTER.SOLV>
16.8767

>  <SCORE.INTER.VDW>
-20.4431

>  <SCORE.INTER.norm>
-0.422133

>  <SCORE.INTRA>
-2.03302

>  <SCORE.INTRA.DIHEDRAL>
-6.9375

>  <SCORE.INTRA.DIHEDRAL.0>
15.6389

>  <SCORE.INTRA.POLAR>
0

>  <SCORE.INTRA.POLAR.0>
0

>  <SCORE.INTRA.REPUL>
0

>  <SCORE.INTRA.REPUL.0>
0

>  <SCORE.INTRA.SOLV>
1.52075

>  <SCORE.INTRA.SOLV.lig_0>
-90.9181

>  <SCORE.INTRA.VDW>
0.675358

>  <SCORE.INTRA.VDW.0>
-3.14158

>  <SCORE.INTRA.norm>
-0.0549464

>  <SCORE.RESTR>
0

>  <SCORE.RESTR.CAVITY>
0

>  <SCORE.RESTR.norm>
0

>  <SCORE.SYSTEM>
0

>  <SCORE.SYSTEM.CONST>
0

>  <SCORE.SYSTEM.DIHEDRAL>
0

>  <SCORE.SYSTEM.SOLV>
0

>  <SCORE.SYSTEM.norm>
0

>  <SCORE.heavy>
37

>  <SCORE.norm>
-0.47708

>  <RMSD>
4.785

$$$$
1yrj_lig
 OpenBabel11021811423D
libRbt.so/2013.1/901 2013/11/27
 37 40  0  0  0  0  0  0  0  0999 V2000
   40.7263    3.8771    9.4159 C   0  0  1  0  0  0  0  0  0  0  0  0
   39.4742    3.1772    8.8521 C   0  0  1  0  0  0  0  0  0  0  0  0
   39.2326    1.8138    9.5193 C   0  0  0  0  0  0  0  0  0  0  0  0
   40.4979    0.9263    9.3889 C   0  0  1  0  0  0  0  0  0  0  0  0
   41.7117    1.6433   10.0096 C   0  0  1  0  0  0  0  0  0  0  0  0
   42.9878    0.7098    9.8748 C   0  0  1  0  0  0  0  0  0  0  0  0
   42.7321   -0.6239   10.5954 C   0  0  1  0  0  0  0  0  0  0  0  0
   41.4771   -1.2785    9.9686 C   0  0  2  0  0  0  0  0  0  0  0  0
   44.1563   -2.4719   11.6264 C   0  0  0  0  0  0  0  0  0  0  0  0
   38.2735    4.0209    8.9689 N   0  0  0  0  0  0  0  0  0  0  0  0
   43.9489   -1.4902   10.5163 N   0  0  0  0  0  0  0  0  0  0  0  0
   40.5396    4.4189   10.7368 O   0  0  0  0  0  0  0  0  0  0  0  0
   41.8719    2.9494    9.3390 O   0  0  0  0  0  0  0  0  0  0  0  0
   40.3292   -0.3872   10.0514 O   0  0  0  0  0  0  0  0  0  0  0  0
   43.2117    0.4150    8.5119 O   0  0  0  0  0  0  0  0  0  0  0  0
   41.1294   -2.4990   10.6237 O   0  0  0  0  0  0  0  0  0  0  0  0
   39.9695   -3.1455   10.0490 C   0  0  2  0  0  0  0  0  0  0  0  0
   39.2969   -4.1481   11.0009 C   0  0  1  0  0  0  0  0  0  0  0  0
   40.1938   -5.3943   11.2263 C   0  0  2  0  0  0  0  0  0  0  0  0
   40.5063   -6.0498    9.9006 C   0  0  1  0  0  0  0  0  0  0  0  0
   41.2080   -5.0259    8.9772 C   0  0  1  0  0  0  0  0  0  0  0  0
   41.5181   -5.5917    7.5932 C   0  0  0  0  0  0  0  0  0  0  0  0
   41.3636   -7.2278   10.1471 N   0  0  0  0  0  0  0  0  0  0  0  0
   40.3409   -3.8476    8.7984 O   0  0  0  0  0  0  0  0  0  0  0  0
   38.9909   -3.4706   12.2282 O   0  0  0  0  0  0  0  0  0  0  0  0
   39.5059   -6.3401   12.0564 O   0  0  0  0  0  0  0  0  0  0  0  0
   40.3179   -5.8970    6.9342 O   0  0  0  0  0  0  0  0  0  0  0  0
   40.3170    5.8960   11.0247 C   0  0  1  0  0  0  0  0  0  0  0  0
   41.5536    6.6545   10.4940 C   0  0  1  0  0  0  0  0  0  0  0  0
   41.3946    8.1831   10.6796 C   0  0  2  0  0  0  0  0  0  0  0  0
   40.1387    8.6716    9.9482 C   0  0  1  0  0  0  0  0  0  0  0  0
   38.8842    7.9449   10.4968 C   0  0  0  0  0  0  0  0  0  0  0  0
   39.0555    6.4365   10.2883 C   0  0  2  0  0  0  0  0  0  0  0  0
   39.9867   10.1314   10.1390 N   0  0  0  0  0  0  0  0  0  0  0  0
   37.8496    5.7909   10.7999 N   0  0  0  0  0  0  0  0  0  0  0  0
   42.7220    6.2201   11.2233 O   0  0  0  0  0  0  0  0  0  0  0  0
   42.5635    8.8413   10.1459 O   0  0  0  0  0  0  0  0  0  0  0  0
  1  2  1  0  0  0  0
  1 12  1  1  0  0  0
  1 13  1  0  0  0  0
  2  3  1  0  0  0  0
  2 10  1  1  0  0  0
  4  3  1  1  0  0  0
  4  5  1  0  0  0  0
  4 14  1  0  0  0  0
  5  6  1  0  0  0  0
  5 13  1  6  0  0  0
  6  7  1  0  0  0  0
  6 15  1  6  0  0  0
  7  8  1  0  0  0  0
  7 11  1  6  0  0  0
  8 14  1  0  0  0  0
  8 16  1  1  0  0  0
  9 11  1  0  0  0  0
 17 16  1  1  0  0  0
 17 18  1  0  0  0  0
 17 24  1  0  0  0  0
 18 19  1  0  0  0  0
 18 25  1  1  0  0  0
 19 20  1  0  0  0  0
 19 26  1  1  0  0  0
 20 21  1  0  0  0  0
 20 23  1  1  0  0  0
 21 22  1  6  0  0  0
 21 24  1  0  0  0  0
 22 27  1  0  0  0  0
 28 12  1  6  0  0  0
 28 29  1  0  0  0  0
 28 33  1  0  0  0  0
 29 30  1  0  0  0  0
 29 36  1  1  0  0  0
 30 31  1  0  0  0  0
 30 37  1  6  0  0  0
 31 32  1  0  0  0  0
 31 34  1  1  0  0  0
 32 33  1  0  0  0  0
 33 35  1  1  0  0  0
M  END
>  <CHROM.1>
-102.72801144,151.88619413,-179.22094319,-159.73901394,64.02336770,-59.82497499
40.82757530,0.86178107,10.05979807,1.59600453,0.03022605,0.02748259

>  <Name>
1yrj_lig

>  <RI>
0

>  <Rbt.Current_Directory>
/home/itssahil/PROJECTS/Mol_Feturizer/New_Systems/rnas/1yrj

>  <Rbt.Executable>
rbdock ($Id: //depot/dev/client3/rdock/2013.1/src/exe/rbdock.cxx#4 $)

>  <Rbt.Library>
libRbt.so (2013.1, Build901 2013/11/27)

>  <Rbt.Parameter_File>
/export/apps/rDock/src/rDock_2013.1_src/data/scripts/dock_solv.prm

>  <Rbt.Receptor>
prm/pocket_docking_6.prm

>  <SCORE>
-17.5516

>  <SCORE.INTER>
-16.0438

>  <SCORE.INTER.CONST>
1

>  <SCORE.INTER.POLAR>
-1.19124

>  <SCORE.INTER.ROT>
6

>  <SCORE.INTER.SOLV>
16.0758

>  <SCORE.INTER.VDW>
-19.6837

>  <SCORE.INTER.norm>
-0.433617

>  <SCORE.INTRA>
-1.53211

>  <SCORE.INTRA.DIHEDRAL>
-7.37423

>  <SCORE.INTRA.DIHEDRAL.0>
15.6389

>  <SCORE.INTRA.POLAR>
0

>  <SCORE.INTRA.POLAR.0>
0

>  <SCORE.INTRA.REPUL>
0

>  <SCORE.INTRA.REPUL.0>
0

>  <SCORE.INTRA.SOLV>
2.75556

>  <SCORE.INTRA.SOLV.lig_0>
-90.9181

>  <SCORE.INTRA.VDW>
0.777225

>  <SCORE.INTRA.VDW.0>
-3.14158

>  <SCORE.INTRA.norm>
-0.0414084

>  <SCORE.RESTR>
0.0242779

>  <SCORE.RESTR.CAVITY>
0.0242779

>  <SCORE.RESTR.norm>
0.000656159

>  <SCORE.SYSTEM>
0

>  <SCORE.SYSTEM.CONST>
0

>  <SCORE.SYSTEM.DIHEDRAL>
0

>  <SCORE.SYSTEM.SOLV>
0

>  <SCORE.SYSTEM.norm>
0

>  <SCORE.heavy>
37

>  <SCORE.norm>
-0.474369

>  <RMSD>
4.824

$$$$
1yrj_lig
 OpenBabel11021811423D
libRbt.so/2013.1/901 2013/11/27
 37 40  0  0  0  0  0  0  0  0999 V2000
   40.7156    3.7362    9.4666 C   0  0  1  0  0  0  0  0  0  0  0  0
   39.4509    3.0461    8.9190 C   0  0  1  0  0  0  0  0  0  0  0  0
   39.2336    1.6637    9.5548 C   0  0  0  0  0  0  0  0  0  0  0  0
   40.4982    0.7861    9.3648 C   0  0  1  0  0  0  0  0  0  0  0  0
   41.7261    1.4917    9.9709 C   0  0  1  0  0  0  0  0  0  0  0  0
   43.0016    0.5683    9.7748 C   0  0  1  0  0  0  0  0  0  0  0  0
   42.7716   -0.7858   10.4654 C   0  0  1  0  0  0  0  0  0  0  0  0
   41.5021   -1.4291    9.8561 C   0  0  2  0  0  0  0  0  0  0  0  0
   44.2179   -2.6719   11.3915 C   0  0  0  0  0  0  0  0  0  0  0  0
   38.2506    3.8805    9.0924 N   0  0  0  0  0  0  0  0  0  0  0  0
   43.9891   -1.6438   10.3285 N   0  0  0  0  0  0  0  0  0  0  0  0
   40.5638    4.2406   10.8067 O   0  0  0  0  0  0  0  0  0  0  0  0
   41.8622    2.8164    9.3323 O   0  0  0  0  0  0  0  0  0  0  0  0
   40.3534   -0.5458    9.9953 O   0  0  0  0  0  0  0  0  0  0  0  0
   43.1884    0.3120    8.3986 O   0  0  0  0  0  0  0  0  0  0  0  0
   41.1778   -2.6687   10.4867 O   0  0  0  0  0  0  0  0  0  0  0  0
   40.0348   -3.3292    9.8944 C   0  0  2  0  0  0  0  0  0  0  0  0
   39.6084   -4.6003   10.6467 C   0  0  1  0  0  0  0  0  0  0  0  0
   40.6627   -5.7274   10.4839 C   0  0  2  0  0  0  0  0  0  0  0  0
   40.8748   -6.0255    9.0173 C   0  0  1  0  0  0  0  0  0  0  0  0
   41.3310   -4.7360    8.2946 C   0  0  1  0  0  0  0  0  0  0  0  0
   41.5231   -4.9349    6.7929 C   0  0  0  0  0  0  0  0  0  0  0  0
   41.8850   -7.0969    8.8948 N   0  0  0  0  0  0  0  0  0  0  0  0
   40.3198   -3.6804    8.4836 O   0  0  0  0  0  0  0  0  0  0  0  0
   39.3875   -4.2585   12.0227 O   0  0  0  0  0  0  0  0  0  0  0  0
   40.1992   -6.9192   11.1333 O   0  0  0  0  0  0  0  0  0  0  0  0
   42.6061   -5.7987    6.5713 O   0  0  0  0  0  0  0  0  0  0  0  0
   40.4099    5.7156   11.1460 C   0  0  1  0  0  0  0  0  0  0  0  0
   41.6448    6.4456   10.5732 C   0  0  1  0  0  0  0  0  0  0  0  0
   41.5512    7.9727   10.8086 C   0  0  2  0  0  0  0  0  0  0  0  0
   40.2785    8.5260   10.1565 C   0  0  1  0  0  0  0  0  0  0  0  0
   39.0278    7.8278   10.7489 C   0  0  0  0  0  0  0  0  0  0  0  0
   39.1333    6.3211   10.4907 C   0  0  2  0  0  0  0  0  0  0  0  0
   40.1896    9.9840   10.3948 N   0  0  0  0  0  0  0  0  0  0  0  0
   37.9321    5.7033   11.0459 N   0  0  0  0  0  0  0  0  0  0  0  0
   42.8320    5.9495   11.2292 O   0  0  0  0  0  0  0  0  0  0  0  0
   42.7148    8.6050   10.2335 O   0  0  0  0  0  0  0  0  0  0  0  0
  1  2  1  0  0  0  0
  1 12  1  1  0  0  0
  1 13  1  0  0  0  0
  2  3  1  0  0  0  0
  2 10  1  1  0  0  0
  4  3  1  1  0  0  0
  4  5  1  0  0  0  0
  4 14  1  0  0  0  0
  5  6  1  0  0  0  0
  5 13  1  6  0  0  0
  6  7  1  0  0  0  0
  6 15  1  6  0  0  0
  7  8  1  0  0  0  0
  7 11  1  6  0  0  0
  8 14  1  0  0  0  0
  8 16  1  1  0  0  0
  9 11  1  0  0  0  0
 17 16  1  1  0  0  0
 17 18  1  0  0  0  0
 17 24  1  0  0  0  0
 18 19  1  0  0  0  0
 18 25  1  1  0  0  0
 19 20  1  0  0  0  0
 19 26  1  1  0  0  0
 20 21  1  0  0  0  0
 20 23  1  1  0  0  0
 21 22  1  6  0  0  0
 21 24  1  0  0  0  0
 22 27  1  0  0  0  0
 28 12  1  6  0  0  0
 28 29  1  0  0  0  0
 28 33  1  0  0  0  0
 29 30  1  0  0  0  0
 29 36  1  1  0  0  0
 30 31  1  0  0  0  0
 30 37  1  6  0  0  0
 31 32  1  0  0  0  0
 31 34  1  1  0  0  0
 32 33  1  0  0  0  0
 33 35  1  1  0  0  0
M  END
>  <CHROM.1>
-105.77073645,152.99317418,-177.03881008,-174.96919534,-66.91496695,-57.32257831
41.01620274,0.72123404,9.89922328,1.62829547,0.16607846,0.07532487

>  <Name>
1yrj_lig

>  <RI>
0

>  <Rbt.Current_Directory>
/home/itssahil/PROJECTS/Mol_Feturizer/New_Systems/rnas/1yrj

>  <Rbt.Executable>
rbdock ($Id: //depot/dev/client3/rdock/2013.1/src/exe/rbdock.cxx#4 $)

>  <Rbt.Library>
libRbt.so (2013.1, Build901 2013/11/27)

>  <Rbt.Parameter_File>
/export/apps/rDock/src/rDock_2013.1_src/data/scripts/dock_solv.prm

>  <Rbt.Receptor>
prm/pocket_docking_8.prm

>  <SCORE>
-17.5462

>  <SCORE.INTER>
-15.2228

>  <SCORE.INTER.CONST>
1

>  <SCORE.INTER.POLAR>
-1.1929

>  <SCORE.INTER.ROT>
6

>  <SCORE.INTER.SOLV>
15.3786

>  <SCORE.INTER.VDW>
-18.8984

>  <SCORE.INTER.norm>
-0.411428

>  <SCORE.INTRA>
-2.32338

>  <SCORE.INTRA.DIHEDRAL>
-8.5225

>  <SCORE.INTRA.DIHEDRAL.0>
15.6389

>  <SCORE.INTRA.POLAR>
0

>  <SCORE.INTRA.POLAR.0>
0

>  <SCORE.INTRA.REPUL>
0

>  <SCORE.INTRA.REPUL.0>
0

>  <SCORE.INTRA.SOLV>
2.77539

>  <SCORE.INTRA.SOLV.lig_0>
-90.9181

>  <SCORE.INTRA.VDW>
0.550172

>  <SCORE.INTRA.VDW.0>
-3.14158

>  <SCORE.INTRA.norm>
-0.0627942

>  <SCORE.RESTR>
0

>  <SCORE.RESTR.CAVITY>
0

>  <SCORE.RESTR.norm>
0

>  <SCORE.SYSTEM>
0

>  <SCORE.SYSTEM.CONST>
0

>  <SCORE.SYSTEM.DIHEDRAL>
0

>  <SCORE.SYSTEM.SOLV>
0

>  <SCORE.SYSTEM.norm>
0

>  <SCORE.heavy>
37

>  <SCORE.norm>
-0.474222

>  <RMSD>
4.901

$$$$
1yrj_lig
 OpenBabel11021811423D
libRbt.so/2013.1/901 2013/11/27
 37 40  0  0  0  0  0  0  0  0999 V2000
   40.7819    3.7862    9.4836 C   0  0  1  0  0  0  0  0  0  0  0  0
   39.5066    3.1288    8.9206 C   0  0  1  0  0  0  0  0  0  0  0  0
   39.2501    1.7493    9.5480 C   0  0  0  0  0  0  0  0  0  0  0  0
   40.4953    0.8426    9.3661 C   0  0  1  0  0  0  0  0  0  0  0  0
   41.7337    1.5160    9.9873 C   0  0  1  0  0  0  0  0  0  0  0  0
   42.9887    0.5633    9.7993 C   0  0  1  0  0  0  0  0  0  0  0  0
   42.7197   -0.7879   10.4814 C   0  0  1  0  0  0  0  0  0  0  0  0
   41.4413   -1.3980    9.8570 C   0  0  2  0  0  0  0  0  0  0  0  0
   45.0756   -1.3857   11.2553 C   0  0  0  0  0  0  0  0  0  0  0  0
   38.3249    3.9909    9.0862 N   0  0  0  0  0  0  0  0  0  0  0  0
   43.9178   -1.6742   10.3524 N   0  0  0  0  0  0  0  0  0  0  0  0
   40.6291    4.2883   10.8243 O   0  0  0  0  0  0  0  0  0  0  0  0
   41.9075    2.8399    9.3561 O   0  0  0  0  0  0  0  0  0  0  0  0
   40.3127   -0.4882    9.9892 O   0  0  0  0  0  0  0  0  0  0  0  0
   43.1827    0.3086    8.4238 O   0  0  0  0  0  0  0  0  0  0  0  0
   41.0814   -2.6323   10.4788 O   0  0  0  0  0  0  0  0  0  0  0  0
   39.9518   -3.2811    9.8492 C   0  0  2  0  0  0  0  0  0  0  0  0
   39.4213   -4.4862   10.6429 C   0  0  1  0  0  0  0  0  0  0  0  0
   40.4334   -5.6624   10.6178 C   0  0  2  0  0  0  0  0  0  0  0  0
   40.7279   -6.0572    9.1888 C   0  0  1  0  0  0  0  0  0  0  0  0
   41.2870   -4.8331    8.4255 C   0  0  1  0  0  0  0  0  0  0  0  0
   41.5682   -5.1303    6.9543 C   0  0  0  0  0  0  0  0  0  0  0  0
   41.6958   -7.1736    9.1975 N   0  0  0  0  0  0  0  0  0  0  0  0
   40.3130   -3.7284    8.4838 O   0  0  0  0  0  0  0  0  0  0  0  0
   39.1259   -4.0530   11.9786 O   0  0  0  0  0  0  0  0  0  0  0  0
   39.8762   -6.7931   11.3019 O   0  0  0  0  0  0  0  0  0  0  0  0
   42.1281   -3.9960    6.3478 O   0  0  0  0  0  0  0  0  0  0  0  0
   40.4445    5.7597   11.1637 C   0  0  1  0  0  0  0  0  0  0  0  0
   41.6674    6.5144   10.5973 C   0  0  1  0  0  0  0  0  0  0  0  0
   41.5425    8.0392   10.8331 C   0  0  2  0  0  0  0  0  0  0  0  0
   40.2622    8.5676   10.1752 C   0  0  1  0  0  0  0  0  0  0  0  0
   39.0227    7.8444   10.7613 C   0  0  0  0  0  0  0  0  0  0  0  0
   39.1593    6.3403   10.5028 C   0  0  2  0  0  0  0  0  0  0  0  0
   40.1433   10.0234   10.4139 N   0  0  0  0  0  0  0  0  0  0  0  0
   37.9679    5.6985   11.0519 N   0  0  0  0  0  0  0  0  0  0  0  0
   42.8611    6.0414   11.2586 O   0  0  0  0  0  0  0  0  0  0  0  0
   42.6961    8.6948   10.2639 O   0  0  0  0  0  0  0  0  0  0  0  0
  1  2  1  0  0  0  0
  1 12  1  1  0  0  0
  1 13  1  0  0  0  0
  2  3  1  0  0  0  0
  2 10  1  1  0  0  0
  4  3  1  1  0  0  0
  4  5  1  0  0  0  0
  4 14  1  0  0  0  0
  5  6  1  0  0  0  0
  5 13  1  6  0  0  0
  6  7  1  0  0  0  0
  6 15  1  6  0  0  0
  7  8  1  0  0  0  0
  7 11  1  6  0  0  0
  8 14  1  0  0  0  0
  8 16  1  1  0  0  0
  9 11  1  0  0  0  0
 17 16  1  1  0  0  0
 17 18  1  0  0  0  0
 17 24  1  0  0  0  0
 18 19  1  0  0  0  0
 18 25  1  1  0  0  0
 19 20  1  0  0  0  0
 19 26  1  1  0  0  0
 20 21  1  0  0  0  0
 20 23  1  1  0  0  0
 21 22  1  6  0  0  0
 21 24  1  0  0  0  0
 22 27  1  0  0  0  0
 28 12  1  6  0  0  0
 28 29  1  0  0  0  0
 28 33  1  0  0  0  0
 29 30  1  0  0  0  0
 29 36  1  1  0  0  0
 30 31  1  0  0  0  0
 30 37  1  6  0  0  0
 31 32  1  0  0  0  0
 31 34  1  1  0  0  0
 32 33  1  0  0  0  0
 33 35  1  1  0  0  0
M  END
>  <CHROM.1>
-102.90754560,76.72392462,-175.42069145,-170.81105782,-177.29043640,-58.06338657
40.98809581,0.84503840,9.92338423,1.60847060,0.14324951,0.07387778

>  <Name>
1yrj_lig

>  <RI>
0

>  <Rbt.Current_Directory>
/home/itssahil/PROJECTS/Mol_Feturizer/New_Systems/rnas/1yrj

>  <Rbt.Executable>
rbdock ($Id: //depot/dev/client3/rdock/2013.1/src/exe/rbdock.cxx#4 $)

>  <Rbt.Library>
libRbt.so (2013.1, Build901 2013/11/27)

>  <Rbt.Parameter_File>
/export/apps/rDock/src/rDock_2013.1_src/data/scripts/dock_solv.prm

>  <Rbt.Receptor>
prm/pocket_docking_8.prm

>  <SCORE>
-18.3763

>  <SCORE.INTER>
-15.8346

>  <SCORE.INTER.CONST>
1

>  <SCORE.INTER.POLAR>
-1.20671

>  <SCORE.INTER.ROT>
6

>  <SCORE.INTER.SOLV>
15.2886

>  <SCORE.INTER.VDW>
-19.2303

>  <SCORE.INTER.norm>
-0.427963

>  <SCORE.INTRA>
-2.54166

>  <SCORE.INTRA.DIHEDRAL>
-9.01453

>  <SCORE.INTRA.DIHEDRAL.0>
15.6389

>  <SCORE.INTRA.POLAR>
0

>  <SCORE.INTRA.POLAR.0>
0

>  <SCORE.INTRA.REPUL>
0

>  <SCORE.INTRA.REPUL.0>
0

>  <SCORE.INTRA.SOLV>
2.04071

>  <SCORE.INTRA.SOLV.lig_0>
-90.9181

>  <SCORE.INTRA.VDW>
0.945252

>  <SCORE.INTRA.VDW.0>
-3.14158

>  <SCORE.INTRA.norm>
-0.0686935

>  <SCORE.RESTR>
0

>  <SCORE.RESTR.CAVITY>
0

>  <SCORE.RESTR.norm>
0

>  <SCORE.SYSTEM>
0

>  <SCORE.SYSTEM.CONST>
0

>  <SCORE.SYSTEM.DIHEDRAL>
0

>  <SCORE.SYSTEM.SOLV>
0

>  <SCORE.SYSTEM.norm>
0

>  <SCORE.heavy>
37

>  <SCORE.norm>
-0.496656

>  <RMSD>
4.916

$$$$
1yrj_lig
 OpenBabel11021811423D
libRbt.so/2013.1/901 2013/11/27
 37 40  0  0  0  0  0  0  0  0999 V2000
   40.0638    4.5290    9.4740 C   0  0  1  0  0  0  0  0  0  0  0  0
   38.9190    3.6986    8.8614 C   0  0  1  0  0  0  0  0  0  0  0  0
   38.8191    2.3043    9.5003 C   0  0  0  0  0  0  0  0  0  0  0  0
   40.1827    1.5726    9.3959 C   0  0  1  0  0  0  0  0  0  0  0  0
   41.2859    2.4146   10.0646 C   0  0  1  0  0  0  0  0  0  0  0  0
   42.6657    1.6385    9.9554 C   0  0  1  0  0  0  0  0  0  0  0  0
   42.5469    0.2711   10.6478 C   0  0  1  0  0  0  0  0  0  0  0  0
   41.3958   -0.5135    9.9728 C   0  0  2  0  0  0  0  0  0  0  0  0
   44.5262   -0.7391   11.9001 C   0  0  0  0  0  0  0  0  0  0  0  0
   37.6250    4.3945    8.9534 N   0  0  0  0  0  0  0  0  0  0  0  0
   43.8584   -0.4461   10.5935 N   0  0  0  0  0  0  0  0  0  0  0  0
   39.7768    5.0209   10.7964 O   0  0  0  0  0  0  0  0  0  0  0  0
   41.3117    3.7425    9.4188 O   0  0  0  0  0  0  0  0  0  0  0  0
   40.1496    0.2364   10.0332 O   0  0  0  0  0  0  0  0  0  0  0  0
   42.9620    1.3969    8.5958 O   0  0  0  0  0  0  0  0  0  0  0  0
   41.1743   -1.7780   10.5985 O   0  0  0  0  0  0  0  0  0  0  0  0
   42.2022   -2.7514   10.2992 C   0  0  2  0  0  0  0  0  0  0  0  0
   42.0735   -3.3605    8.8935 C   0  0  1  0  0  0  0  0  0  0  0  0
   40.8237   -4.2748    8.7918 C   0  0  2  0  0  0  0  0  0  0  0  0
   40.8971   -5.3645    9.8369 C   0  0  1  0  0  0  0  0  0  0  0  0
   40.9959   -4.7206   11.2401 C   0  0  1  0  0  0  0  0  0  0  0  0
   41.1234   -5.7532   12.3579 C   0  0  0  0  0  0  0  0  0  0  0  0
   39.6939   -6.2139    9.7183 N   0  0  0  0  0  0  0  0  0  0  0  0
   42.1798   -3.8446   11.2987 O   0  0  0  0  0  0  0  0  0  0  0  0
   42.0418   -2.2901    7.9383 O   0  0  0  0  0  0  0  0  0  0  0  0
   40.7758   -4.8842    7.4944 O   0  0  0  0  0  0  0  0  0  0  0  0
   39.9135   -6.4511   12.4887 O   0  0  0  0  0  0  0  0  0  0  0  0
   40.1422    6.4159   11.2810 C   0  0  1  0  0  0  0  0  0  0  0  0
   39.4230    6.6318   12.6308 C   0  0  1  0  0  0  0  0  0  0  0  0
   39.7857    8.0058   13.2446 C   0  0  2  0  0  0  0  0  0  0  0  0
   41.3021    8.1045   13.4484 C   0  0  1  0  0  0  0  0  0  0  0  0
   42.0359    7.9264   12.0946 C   0  0  0  0  0  0  0  0  0  0  0  0
   41.6759    6.5550   11.5135 C   0  0  2  0  0  0  0  0  0  0  0  0
   41.6429    9.4244   14.0249 N   0  0  0  0  0  0  0  0  0  0  0  0
   42.3984    6.4184   10.2517 N   0  0  0  0  0  0  0  0  0  0  0  0
   37.9954    6.5840   12.4173 O   0  0  0  0  0  0  0  0  0  0  0  0
   39.1078    8.1435   14.5119 O   0  0  0  0  0  0  0  0  0  0  0  0
  1  2  1  0  0  0  0
  1 12  1  1  0  0  0
  1 13  1  0  0  0  0
  2  3  1  0  0  0  0
  2 10  1  1  0  0  0
  4  3  1  1  0  0  0
  4  5  1  0  0  0  0
  4 14  1  0  0  0  0
  5  6  1  0  0  0  0
  5 13  1  6  0  0  0
  6  7  1  0  0  0  0
  6 15  1  6  0  0  0
  7  8  1  0  0  0  0
  7 11  1  6  0  0  0
  8 14  1  0  0  0  0
  8 16  1  1  0  0  0
  9 11  1  0  0  0  0
 17 16  1  1  0  0  0
 17 18  1  0  0  0  0
 17 24  1  0  0  0  0
 18 19  1  0  0  0  0
 18 25  1  6  0  0  0
 19 20  1  0  0  0  0
 19 26  1  6  0  0  0
 20 21  1  0  0  0  0
 20 23  1  1  0  0  0
 21 22  1  1  0  0  0
 21 24  1  0  0  0  0
 22 27  1  0  0  0  0
 28 12  1  1  0  0  0
 28 29  1  0  0  0  0
 28 33  1  0  0  0  0
 29 30  1  0  0  0  0
 29 36  1  6  0  0  0
 30 31  1  0  0  0  0
 30 37  1  1  0  0  0
 31 32  1  0  0  0  0
 31 34  1  6  0  0  0
 32 33  1  0  0  0  0
 33 35  1  6  0  0  0
M  END
>  <CHROM.1>
-139.17934617,116.81161854,-73.34156768,-76.75639878,-69.34814078,169.11829121
40.95405745,1.35663489,10.66247522,1.71269107,-0.96286169,0.29075446

>  <Name>
1yrj_lig

>  <RI>
0

>  <Rbt.Current_Directory>
/home/itssahil/PROJECTS/Mol_Feturizer/New_Systems/rnas/1yrj

>  <Rbt.Executable>
rbdock ($Id: //depot/dev/client3/rdock/2013.1/src/exe/rbdock.cxx#4 $)

>  <Rbt.Library>
libRbt.so (2013.1, Build901 2013/11/27)

>  <Rbt.Parameter_File>
/export/apps/rDock/src/rDock_2013.1_src/data/scripts/dock_solv.prm

>  <Rbt.Receptor>
prm/pocket_docking_7.prm

>  <SCORE>
-16.0924

>  <SCORE.INTER>
-14.2055

>  <SCORE.INTER.CONST>
1

>  <SCORE.INTER.POLAR>
-0.941156

>  <SCORE.INTER.ROT>
6

>  <SCORE.INTER.SOLV>
20.1602

>  <SCORE.INTER.VDW>
-20.6532

>  <SCORE.INTER.norm>
-0.383931

>  <SCORE.INTRA>
-1.88691

>  <SCORE.INTRA.DIHEDRAL>
-5.9025

>  <SCORE.INTRA.DIHEDRAL.0>
15.6389

>  <SCORE.INTRA.POLAR>
0

>  <SCORE.INTRA.POLAR.0>
0

>  <SCORE.INTRA.REPUL>
0

>  <SCORE.INTRA.REPUL.0>
0

>  <SCORE.INTRA.SOLV>
1.34986

>  <SCORE.INTRA.SOLV.lig_0>
-90.9181

>  <SCORE.INTRA.VDW>
0.389415

>  <SCORE.INTRA.VDW.0>
-3.14158

>  <SCORE.INTRA.norm>
-0.0509974

>  <SCORE.RESTR>
0

>  <SCORE.RESTR.CAVITY>
0

>  <SCORE.RESTR.norm>
0

>  <SCORE.SYSTEM>
0

>  <SCORE.SYSTEM.CONST>
0

>  <SCORE.SYSTEM.DIHEDRAL>
0

>  <SCORE.SYSTEM.SOLV>
0

>  <SCORE.SYSTEM.norm>
0

>  <SCORE.heavy>
37

>  <SCORE.norm>
-0.434929

>  <RMSD>
4.975

$$$$
1yrj_lig
 OpenBabel11021811423D
libRbt.so/2013.1/901 2013/11/27
 37 40  0  0  0  0  0  0  0  0999 V2000
   39.4045    4.7353    9.2612 C   0  0  1  0  0  0  0  0  0  0  0  0
   39.1451    4.6602    7.7438 C   0  0  1  0  0  0  0  0  0  0  0  0
   38.2275    3.4825    7.3786 C   0  0  0  0  0  0  0  0  0  0  0  0
   38.8173    2.1580    7.9295 C   0  0  1  0  0  0  0  0  0  0  0  0
   39.0121    2.2610    9.4542 C   0  0  1  0  0  0  0  0  0  0  0  0
   39.6033    0.8906    9.9932 C   0  0  1  0  0  0  0  0  0  0  0  0
   38.6382   -0.2577    9.6566 C   0  0  1  0  0  0  0  0  0  0  0  0
   38.4386   -0.2865    8.1218 C   0  0  2  0  0  0  0  0  0  0  0  0
   38.1744   -2.6492   10.4131 C   0  0  0  0  0  0  0  0  0  0  0  0
   38.5916    5.9188    7.2178 N   0  0  0  0  0  0  0  0  0  0  0  0
   39.1638   -1.5459   10.2056 N   0  0  0  0  0  0  0  0  0  0  0  0
   38.2782    5.2193   10.0164 O   0  0  0  0  0  0  0  0  0  0  0  0
   39.8825    3.4210    9.7334 O   0  0  0  0  0  0  0  0  0  0  0  0
   37.9483    0.9954    7.6367 O   0  0  0  0  0  0  0  0  0  0  0  0
   40.8254    0.6176    9.3402 O   0  0  0  0  0  0  0  0  0  0  0  0
   37.5027   -1.2896    7.7249 O   0  0  0  0  0  0  0  0  0  0  0  0
   37.3085   -1.3551    6.2926 C   0  0  2  0  0  0  0  0  0  0  0  0
   36.6430   -2.6605    5.8272 C   0  0  1  0  0  0  0  0  0  0  0  0
   37.5977   -3.8707    6.0074 C   0  0  2  0  0  0  0  0  0  0  0  0
   38.8820   -3.6303    5.2475 C   0  0  1  0  0  0  0  0  0  0  0  0
   39.5417   -2.3275    5.7583 C   0  0  1  0  0  0  0  0  0  0  0  0
   40.8261   -1.9806    5.0087 C   0  0  0  0  0  0  0  0  0  0  0  0
   39.7703   -4.7951    5.4417 N   0  0  0  0  0  0  0  0  0  0  0  0
   38.6048   -1.2020    5.5918 O   0  0  0  0  0  0  0  0  0  0  0  0
   35.4154   -2.8253    6.5517 O   0  0  0  0  0  0  0  0  0  0  0  0
   36.9751   -5.0569    5.4951 O   0  0  0  0  0  0  0  0  0  0  0  0
   41.3622   -0.7923    5.5268 O   0  0  0  0  0  0  0  0  0  0  0  0
   38.1526    6.6443   10.5340 C   0  0  1  0  0  0  0  0  0  0  0  0
   39.4340    6.9503   11.3403 C   0  0  1  0  0  0  0  0  0  0  0  0
   39.4348    8.4094   11.8573 C   0  0  2  0  0  0  0  0  0  0  0  0
   39.3248    9.3829   10.6779 C   0  0  1  0  0  0  0  0  0  0  0  0
   38.0235    9.1113    9.8806 C   0  0  0  0  0  0  0  0  0  0  0  0
   38.0512    7.6686    9.3651 C   0  0  2  0  0  0  0  0  0  0  0  0
   39.3149   10.7752   11.1799 N   0  0  0  0  0  0  0  0  0  0  0  0
   36.8210    7.4580    8.6067 N   0  0  0  0  0  0  0  0  0  0  0  0
   39.5014    6.0587   12.4746 O   0  0  0  0  0  0  0  0  0  0  0  0
   40.6620    8.6469   12.5800 O   0  0  0  0  0  0  0  0  0  0  0  0
  1  2  1  0  0  0  0
  1 12  1  1  0  0  0
  1 13  1  0  0  0  0
  2  3  1  0  0  0  0
  2 10  1  1  0  0  0
  4  3  1  1  0  0  0
  4  5  1  0  0  0  0
  4 14  1  0  0  0  0
  5  6  1  0  0  0  0
  5 13  1  6  0  0  0
  6  7  1  0  0  0  0
  6 15  1  6  0  0  0
  7  8  1  0  0  0  0
  7 11  1  6  0  0  0
  8 14  1  0  0  0  0
  8 16  1  1  0  0  0
  9 11  1  0  0  0  0
 17 16  1  1  0  0  0
 17 18  1  0  0  0  0
 17 24  1  0  0  0  0
 18 19  1  0  0  0  0
 18 25  1  1  0  0  0
 19 20  1  0  0  0  0
 19 26  1  6  0  0  0
 20 21  1  0  0  0  0
 20 23  1  1  0  0  0
 21 22  1  6  0  0  0
 21 24  1  0  0  0  0
 22 27  1  0  0  0  0
 28 12  1  6  0  0  0
 28 29  1  0  0  0  0
 28 33  1  0  0  0  0
 29 30  1  0  0  0  0
 29 36  1  1  0  0  0
 30 31  1  0  0  0  0
 30 37  1  6  0  0  0
 31 32  1  0  0  0  0
 31 34  1  1  0  0  0
 32 33  1  0  0  0  0
 33 35  1  1  0  0  0
M  END
>  <CHROM.1>
-100.83852314,158.70267410,-179.15878944,163.24104455,179.99540064,-53.38564505
38.74207778,2.08169018,8.46127376,1.41503895,-1.17441090,0.23759282

>  <Name>
1yrj_lig

>  <RI>
0

>  <Rbt.Current_Directory>
/home/itssahil/PROJECTS/Mol_Feturizer/New_Systems/rnas/1yrj

>  <Rbt.Executable>
rbdock ($Id: //depot/dev/client3/rdock/2013.1/src/exe/rbdock.cxx#4 $)

>  <Rbt.Library>
libRbt.so (2013.1, Build901 2013/11/27)

>  <Rbt.Parameter_File>
/export/apps/rDock/src/rDock_2013.1_src/data/scripts/dock_solv.prm

>  <Rbt.Receptor>
prm/pocket_docking_8.prm

>  <SCORE>
-18.7034

>  <SCORE.INTER>
-16.6704

>  <SCORE.INTER.CONST>
1

>  <SCORE.INTER.POLAR>
-0.728838

>  <SCORE.INTER.ROT>
6

>  <SCORE.INTER.SOLV>
14.5475

>  <SCORE.INTER.VDW>
-21.1333

>  <SCORE.INTER.norm>
-0.450552

>  <SCORE.INTRA>
-2.03297

>  <SCORE.INTRA.DIHEDRAL>
-8.25054

>  <SCORE.INTRA.DIHEDRAL.0>
15.6389

>  <SCORE.INTRA.POLAR>
0

>  <SCORE.INTRA.POLAR.0>
0

>  <SCORE.INTRA.REPUL>
0.017087

>  <SCORE.INTRA.REPUL.0>
0

>  <SCORE.INTRA.SOLV>
2.3087

>  <SCORE.INTRA.SOLV.lig_0>
-90.9181

>  <SCORE.INTRA.VDW>
0.852517

>  <SCORE.INTRA.VDW.0>
-3.14158

>  <SCORE.INTRA.norm>
-0.0549451

>  <SCORE.RESTR>
0

>  <SCORE.RESTR.CAVITY>
0

>  <SCORE.RESTR.norm>
0

>  <SCORE.SYSTEM>
0

>  <SCORE.SYSTEM.CONST>
0

>  <SCORE.SYSTEM.DIHEDRAL>
0

>  <SCORE.SYSTEM.SOLV>
0

>  <SCORE.SYSTEM.norm>
0

>  <SCORE.heavy>
37

>  <SCORE.norm>
-0.505497

>  <RMSD>
5.272

$$$$
1yrj_lig
 OpenBabel11021811423D
libRbt.so/2013.1/901 2013/11/27
 37 40  0  0  0  0  0  0  0  0999 V2000
   40.0221    5.1442    9.4734 C   0  0  1  0  0  0  0  0  0  0  0  0
   38.9701    4.7574    8.4154 C   0  0  1  0  0  0  0  0  0  0  0  0
   38.4743    3.3148    8.6035 C   0  0  0  0  0  0  0  0  0  0  0  0
   39.6768    2.3352    8.6068 C   0  0  1  0  0  0  0  0  0  0  0  0
   40.6757    2.7298    9.7111 C   0  0  1  0  0  0  0  0  0  0  0  0
   41.8878    1.7057    9.7012 C   0  0  1  0  0  0  0  0  0  0  0  0
   41.3636    0.2807    9.9425 C   0  0  1  0  0  0  0  0  0  0  0  0
   40.3302   -0.0472    8.8375 C   0  0  2  0  0  0  0  0  0  0  0  0
   43.3962   -0.6294   11.1861 C   0  0  0  0  0  0  0  0  0  0  0  0
   37.8311    5.6900    8.4062 N   0  0  0  0  0  0  0  0  0  0  0  0
   42.5054   -0.6846    9.9850 N   0  0  0  0  0  0  0  0  0  0  0  0
   39.4673    5.3754   10.7818 O   0  0  0  0  0  0  0  0  0  0  0  0
   41.0925    4.1280    9.4816 O   0  0  0  0  0  0  0  0  0  0  0  0
   39.2540    0.9329    8.8244 O   0  0  0  0  0  0  0  0  0  0  0  0
   42.5022    1.7178    8.4296 O   0  0  0  0  0  0  0  0  0  0  0  0
   39.7437   -1.3362    9.0222 O   0  0  0  0  0  0  0  0  0  0  0  0
   38.9054   -1.4191   10.1986 C   0  0  2  0  0  0  0  0  0  0  0  0
   39.1112   -2.7129   11.0032 C   0  0  1  0  0  0  0  0  0  0  0  0
   38.5778   -3.9460   10.2265 C   0  0  2  0  0  0  0  0  0  0  0  0
   37.1150   -3.7534    9.8976 C   0  0  1  0  0  0  0  0  0  0  0  0
   36.9447   -2.4614    9.0639 C   0  0  1  0  0  0  0  0  0  0  0  0
   35.4857   -2.1621    8.7267 C   0  0  0  0  0  0  0  0  0  0  0  0
   36.6381   -4.9390    9.1558 N   0  0  0  0  0  0  0  0  0  0  0  0
   37.4773   -1.3132    9.8191 O   0  0  0  0  0  0  0  0  0  0  0  0
   40.5060   -2.8320   11.3185 O   0  0  0  0  0  0  0  0  0  0  0  0
   38.7165   -5.1225   11.0349 O   0  0  0  0  0  0  0  0  0  0  0  0
   35.0045   -3.1321    7.8348 O   0  0  0  0  0  0  0  0  0  0  0  0
   40.1350    6.2311   11.8478 C   0  0  1  0  0  0  0  0  0  0  0  0
   41.5082    6.6648   11.2890 C   0  0  1  0  0  0  0  0  0  0  0  0
   42.2441    7.6012   12.2778 C   0  0  2  0  0  0  0  0  0  0  0  0
   41.3885    8.8420   12.5595 C   0  0  1  0  0  0  0  0  0  0  0  0
   40.0203    8.4233   13.1556 C   0  0  0  0  0  0  0  0  0  0  0  0
   39.3028    7.5113   12.1549 C   0  0  2  0  0  0  0  0  0  0  0  0
   42.0929    9.7273   13.5137 N   0  0  0  0  0  0  0  0  0  0  0  0
   38.0148    7.1542   12.7436 N   0  0  0  0  0  0  0  0  0  0  0  0
   42.3213    5.4909   11.0729 O   0  0  0  0  0  0  0  0  0  0  0  0
   43.5059    7.9941   11.6960 O   0  0  0  0  0  0  0  0  0  0  0  0
  1  2  1  0  0  0  0
  1 12  1  1  0  0  0
  1 13  1  0  0  0  0
  2  3  1  0  0  0  0
  2 10  1  1  0  0  0
  4  3  1  1  0  0  0
  4  5  1  0  0  0  0
  4 14  1  0  0  0  0
  5  6  1  0  0  0  0
  5 13  1  6  0  0  0
  6  7  1  0  0  0  0
  6 15  1  6  0  0  0
  7  8  1  0  0  0  0
  7 11  1  6  0  0  0
  8 14  1  0  0  0  0
  8 16  1  1  0  0  0
  9 11  1  0  0  0  0
 17 16  1  6  0  0  0
 17 18  1  0  0  0  0
 17 24  1  0  0  0  0
 18 19  1  0  0  0  0
 18 25  1  6  0  0  0
 19 20  1  0  0  0  0
 19 26  1  1  0  0  0
 20 21  1  0  0  0  0
 20 23  1  6  0  0  0
 21 22  1  1  0  0  0
 21 24  1  0  0  0  0
 22 27  1  0  0  0  0
 28 12  1  6  0  0  0
 28 29  1  0  0  0  0
 28 33  1  0  0  0  0
 29 30  1  0  0  0  0
 29 36  1  1  0  0  0
 30 31  1  0  0  0  0
 30 37  1  6  0  0  0
 31 32  1  0  0  0  0
 31 34  1  1  0  0  0
 32 33  1  0  0  0  0
 33 35  1  1  0  0  0
M  END
>  <CHROM.1>
-156.64863987,71.45213158,67.31329925,-136.88552624,-67.96349442,-4.52985542
39.80027030,2.03341827,10.25696043,1.29032105,-0.24697574,0.13071470

>  <Name>
1yrj_lig

>  <RI>
0

>  <Rbt.Current_Directory>
/home/itssahil/PROJECTS/Mol_Feturizer/New_Systems/rnas/1yrj

>  <Rbt.Executable>
rbdock ($Id: //depot/dev/client3/rdock/2013.1/src/exe/rbdock.cxx#4 $)

>  <Rbt.Library>
libRbt.so (2013.1, Build901 2013/11/27)

>  <Rbt.Parameter_File>
/export/apps/rDock/src/rDock_2013.1_src/data/scripts/dock_solv.prm

>  <Rbt.Receptor>
prm/pocket_docking_8.prm

>  <SCORE>
-15.8581

>  <SCORE.INTER>
-18.7841

>  <SCORE.INTER.CONST>
1

>  <SCORE.INTER.POLAR>
0

>  <SCORE.INTER.ROT>
6

>  <SCORE.INTER.SOLV>
16.1611

>  <SCORE.INTER.VDW>
-25.5097

>  <SCORE.INTER.norm>
-0.507678

>  <SCORE.INTRA>
2.92593

>  <SCORE.INTRA.DIHEDRAL>
0.326697

>  <SCORE.INTRA.DIHEDRAL.0>
15.6389

>  <SCORE.INTRA.POLAR>
0

>  <SCORE.INTRA.POLAR.0>
0

>  <SCORE.INTRA.REPUL>
0

>  <SCORE.INTRA.REPUL.0>
0

>  <SCORE.INTRA.SOLV>
-0.09444

>  <SCORE.INTRA.SOLV.lig_0>
-90.9181

>  <SCORE.INTRA.VDW>
2.8098

>  <SCORE.INTRA.VDW.0>
-3.14158

>  <SCORE.INTRA.norm>
0.0790792

>  <SCORE.RESTR>
0

>  <SCORE.RESTR.CAVITY>
0

>  <SCORE.RESTR.norm>
0

>  <SCORE.SYSTEM>
0

>  <SCORE.SYSTEM.CONST>
0

>  <SCORE.SYSTEM.DIHEDRAL>
0

>  <SCORE.SYSTEM.SOLV>
0

>  <SCORE.SYSTEM.norm>
0

>  <SCORE.heavy>
37

>  <SCORE.norm>
-0.428598

>  <RMSD>
5.463

$$$$
1yrj_lig
 OpenBabel11021811423D
libRbt.so/2013.1/901 2013/11/27
 37 40  0  0  0  0  0  0  0  0999 V2000
   39.9172    6.8307    7.4819 C   0  0  1  0  0  0  0  0  0  0  0  0
   39.4703    6.3634    6.0828 C   0  0  1  0  0  0  0  0  0  0  0  0
   38.4533    5.2137    6.1622 C   0  0  0  0  0  0  0  0  0  0  0  0
   39.0345    4.0466    7.0022 C   0  0  1  0  0  0  0  0  0  0  0  0
   39.4197    4.5481    8.4069 C   0  0  1  0  0  0  0  0  0  0  0  0
   39.9984    3.3336    9.2484 C   0  0  1  0  0  0  0  0  0  0  0  0
   38.9393    2.2240    9.3516 C   0  0  1  0  0  0  0  0  0  0  0  0
   38.5521    1.7911    7.9166 C   0  0  2  0  0  0  0  0  0  0  0  0
   40.6174    0.3244    9.6380 C   0  0  0  0  0  0  0  0  0  0  0  0
   38.9247    7.4713    5.2816 N   0  0  0  0  0  0  0  0  0  0  0  0
   39.4586    1.0965   10.1860 N   0  0  0  0  0  0  0  0  0  0  0  0
   38.9193    7.5985    8.1804 O   0  0  0  0  0  0  0  0  0  0  0  0
   40.3785    5.6612    8.2553 O   0  0  0  0  0  0  0  0  0  0  0  0
   38.0753    2.9271    7.1413 O   0  0  0  0  0  0  0  0  0  0  0  0
   41.1150    2.7878    8.5777 O   0  0  0  0  0  0  0  0  0  0  0  0
   37.5224    0.8015    7.9183 O   0  0  0  0  0  0  0  0  0  0  0  0
   37.9776   -0.4959    8.3689 C   0  0  2  0  0  0  0  0  0  0  0  0
   38.6552   -1.3215    7.2631 C   0  0  1  0  0  0  0  0  0  0  0  0
   37.6270   -1.7735    6.1922 C   0  0  2  0  0  0  0  0  0  0  0  0
   36.5203   -2.5695    6.8452 C   0  0  1  0  0  0  0  0  0  0  0  0
   35.8398   -1.7027    7.9310 C   0  0  1  0  0  0  0  0  0  0  0  0
   34.7363   -2.4481    8.6784 C   0  0  0  0  0  0  0  0  0  0  0  0
   35.5568   -2.9809    5.8033 N   0  0  0  0  0  0  0  0  0  0  0  0
   36.8440   -1.2738    8.9209 O   0  0  0  0  0  0  0  0  0  0  0  0
   39.7164   -0.5372    6.6994 O   0  0  0  0  0  0  0  0  0  0  0  0
   38.2769   -2.6022    5.2186 O   0  0  0  0  0  0  0  0  0  0  0  0
   33.6787   -2.7210    7.7981 O   0  0  0  0  0  0  0  0  0  0  0  0
   39.1389    8.2345    9.5448 C   0  0  1  0  0  0  0  0  0  0  0  0
   39.2517    7.0847   10.5701 C   0  0  1  0  0  0  0  0  0  0  0  0
   39.5451    7.6278   11.9897 C   0  0  2  0  0  0  0  0  0  0  0  0
   40.8462    8.4389   11.9815 C   0  0  1  0  0  0  0  0  0  0  0  0
   40.7338    9.6192   10.9830 C   0  0  0  0  0  0  0  0  0  0  0  0
   40.4598    9.0588    9.5834 C   0  0  2  0  0  0  0  0  0  0  0  0
   41.1148    8.9642   13.3389 N   0  0  0  0  0  0  0  0  0  0  0  0
   40.3787   10.1968    8.6717 N   0  0  0  0  0  0  0  0  0  0  0  0
   38.0040    6.3581   10.6026 O   0  0  0  0  0  0  0  0  0  0  0  0
   39.6647    6.5130   12.8994 O   0  0  0  0  0  0  0  0  0  0  0  0
  1  2  1  0  0  0  0
  1 12  1  1  0  0  0
  1 13  1  0  0  0  0
  2  3  1  0  0  0  0
  2 10  1  1  0  0  0
  4  3  1  6  0  0  0
  4  5  1  0  0  0  0
  4 14  1  0  0  0  0
  5  6  1  0  0  0  0
  5 13  1  6  0  0  0
  6  7  1  0  0  0  0
  6 15  1  6  0  0  0
  7  8  1  0  0  0  0
  7 11  1  1  0  0  0
  8 14  1  0  0  0  0
  8 16  1  1  0  0  0
  9 11  1  0  0  0  0
 17 16  1  6  0  0  0
 17 18  1  0  0  0  0
 17 24  1  0  0  0  0
 18 19  1  0  0  0  0
 18 25  1  6  0  0  0
 19 20  1  0  0  0  0
 19 26  1  6  0  0  0
 20 21  1  0  0  0  0
 20 23  1  6  0  0  0
 21 22  1  1  0  0  0
 21 24  1  0  0  0  0
 22 27  1  0  0  0  0
 28 12  1  6  0  0  0
 28 29  1  0  0  0  0
 28 33  1  0  0  0  0
 29 30  1  0  0  0  0
 29 36  1  1  0  0  0
 30 31  1  0  0  0  0
 30 37  1  1  0  0  0
 31 32  1  0  0  0  0
 31 34  1  1  0  0  0
 32 33  1  0  0  0  0
 33 35  1  6  0  0  0
M  END
>  <CHROM.1>
-176.72765143,-65.97885077,-71.96740880,-82.99126888,-66.48218510,-68.55808796
38.72321842,3.31183782,8.55414489,-0.08617900,-1.26908531,-1.38305860

>  <Name>
1yrj_lig

>  <RI>
0

>  <Rbt.Current_Directory>
/home/itssahil/PROJECTS/Mol_Feturizer/New_Systems/rnas/1yrj

>  <Rbt.Executable>
rbdock ($Id: //depot/dev/client3/rdock/2013.1/src/exe/rbdock.cxx#4 $)

>  <Rbt.Library>
libRbt.so (2013.1, Build901 2013/11/27)

>  <Rbt.Parameter_File>
/export/apps/rDock/src/rDock_2013.1_src/data/scripts/dock_solv.prm

>  <Rbt.Receptor>
prm/pocket_docking_6.prm

>  <SCORE>
-15.6973

>  <SCORE.INTER>
-13.3857

>  <SCORE.INTER.CONST>
1

>  <SCORE.INTER.POLAR>
0

>  <SCORE.INTER.ROT>
6

>  <SCORE.INTER.SOLV>
15.1406

>  <SCORE.INTER.VDW>
-21.5706

>  <SCORE.INTER.norm>
-0.361774

>  <SCORE.INTRA>
-2.3116

>  <SCORE.INTRA.DIHEDRAL>
-11.9617

>  <SCORE.INTRA.DIHEDRAL.0>
15.6389

>  <SCORE.INTRA.POLAR>
0

>  <SCORE.INTRA.POLAR.0>
0

>  <SCORE.INTRA.REPUL>
0

>  <SCORE.INTRA.REPUL.0>
0

>  <SCORE.INTRA.SOLV>
0.6282

>  <SCORE.INTRA.SOLV.lig_0>
-90.9181

>  <SCORE.INTRA.VDW>
3.35514

>  <SCORE.INTRA.VDW.0>
-3.14158

>  <SCORE.INTRA.norm>
-0.0624756

>  <SCORE.RESTR>
0

>  <SCORE.RESTR.CAVITY>
0

>  <SCORE.RESTR.norm>
0

>  <SCORE.SYSTEM>
0

>  <SCORE.SYSTEM.CONST>
0

>  <SCORE.SYSTEM.DIHEDRAL>
0

>  <SCORE.SYSTEM.SOLV>
0

>  <SCORE.SYSTEM.norm>
0

>  <SCORE.heavy>
37

>  <SCORE.norm>
-0.42425

>  <RMSD>
5.511

$$$$
1yrj_lig
 OpenBabel11021811423D
libRbt.so/2013.1/901 2013/11/27
 37 40  0  0  0  0  0  0  0  0999 V2000
   38.8763   11.2598    4.8428 C   0  0  1  0  0  0  0  0  0  0  0  0
   39.1375   11.4762    6.3463 C   0  0  1  0  0  0  0  0  0  0  0  0
   39.7861   10.2439    6.9967 C   0  0  0  0  0  0  0  0  0  0  0  0
   38.9167    8.9860    6.7372 C   0  0  1  0  0  0  0  0  0  0  0  0
   38.7245    8.7807    5.2226 C   0  0  1  0  0  0  0  0  0  0  0  0
   37.8440    7.4821    4.9849 C   0  0  1  0  0  0  0  0  0  0  0  0
   38.5449    6.2611    5.6025 C   0  0  1  0  0  0  0  0  0  0  0  0
   38.7578    6.5382    7.1106 C   0  0  2  0  0  0  0  0  0  0  0  0
   38.0827    4.2493    4.1040 C   0  0  0  0  0  0  0  0  0  0  0  0
   39.9569   12.6736    6.5950 N   0  0  0  0  0  0  0  0  0  0  0  0
   37.7459    5.0244    5.3389 N   0  0  0  0  0  0  0  0  0  0  0  0
   40.0683   11.3093    4.0366 O   0  0  0  0  0  0  0  0  0  0  0  0
   38.1195   10.0056    4.6615 O   0  0  0  0  0  0  0  0  0  0  0  0
   39.5199    7.7620    7.3121 O   0  0  0  0  0  0  0  0  0  0  0  0
   36.6022    7.6305    5.6411 O   0  0  0  0  0  0  0  0  0  0  0  0
   39.4624    5.4751    7.7533 O   0  0  0  0  0  0  0  0  0  0  0  0
   39.0491    5.2622    9.1235 C   0  0  2  0  0  0  0  0  0  0  0  0
   40.1557    5.5634   10.1473 C   0  0  1  0  0  0  0  0  0  0  0  0
   41.2969    4.5152   10.0628 C   0  0  2  0  0  0  0  0  0  0  0  0
   40.7380    3.1276   10.2793 C   0  0  1  0  0  0  0  0  0  0  0  0
   39.6496    2.8437    9.2171 C   0  0  1  0  0  0  0  0  0  0  0  0
   38.9941    1.4756    9.3917 C   0  0  0  0  0  0  0  0  0  0  0  0
   41.8453    2.1533   10.1886 N   0  0  0  0  0  0  0  0  0  0  0  0
   38.5914    3.8655    9.3098 O   0  0  0  0  0  0  0  0  0  0  0  0
   40.6283    6.8994    9.9221 O   0  0  0  0  0  0  0  0  0  0  0  0
   42.2732    4.7817   11.0791 O   0  0  0  0  0  0  0  0  0  0  0  0
   39.9354    0.4699    9.1262 O   0  0  0  0  0  0  0  0  0  0  0  0
   40.2516   10.5286    2.7438 C   0  0  1  0  0  0  0  0  0  0  0  0
   39.9682   11.5032    1.5795 C   0  0  1  0  0  0  0  0  0  0  0  0
   40.1946   10.8191    0.2095 C   0  0  2  0  0  0  0  0  0  0  0  0
   41.6364   10.3068    0.1118 C   0  0  1  0  0  0  0  0  0  0  0  0
   41.9236    9.2985    1.2536 C   0  0  0  0  0  0  0  0  0  0  0  0
   41.7096   10.0004    2.5988 C   0  0  2  0  0  0  0  0  0  0  0  0
   41.8426    9.6443   -1.1955 N   0  0  0  0  0  0  0  0  0  0  0  0
   42.0063    9.0260    3.6455 N   0  0  0  0  0  0  0  0  0  0  0  0
   38.5941   11.9413    1.6552 O   0  0  0  0  0  0  0  0  0  0  0  0
   39.9404   11.7793   -0.8384 O   0  0  0  0  0  0  0  0  0  0  0  0
  1  2  1  0  0  0  0
  1 12  1  6  0  0  0
  1 13  1  0  0  0  0
  2  3  1  0  0  0  0
  2 10  1  6  0  0  0
  4  3  1  6  0  0  0
  4  5  1  0  0  0  0
  4 14  1  0  0  0  0
  5  6  1  0  0  0  0
  5 13  1  1  0  0  0
  6  7  1  0  0  0  0
  6 15  1  1  0  0  0
  7  8  1  0  0  0  0
  7 11  1  1  0  0  0
  8 14  1  0  0  0  0
  8 16  1  6  0  0  0
  9 11  1  0  0  0  0
 17 16  1  6  0  0  0
 17 18  1  0  0  0  0
 17 24  1  0  0  0  0
 18 19  1  0  0  0  0
 18 25  1  6  0  0  0
 19 20  1  0  0  0  0
 19 26  1  1  0  0  0
 20 21  1  0  0  0  0
 20 23  1  6  0  0  0
 21 22  1  1  0  0  0
 21 24  1  0  0  0  0
 22 27  1  0  0  0  0
 28 12  1  1  0  0  0
 28 29  1  0  0  0  0
 28 33  1  0  0  0  0
 29 30  1  0  0  0  0
 29 36  1  6  0  0  0
 30 31  1  0  0  0  0
 30 37  1  6  0  0  0
 31 32  1  0  0  0  0
 31 34  1  6  0  0  0
 32 33  1  0  0  0  0
 33 35  1  1  0  0  0
M  END
>  <CHROM.1>
149.76578758,91.86885239,-146.35085727,-114.70148874,-67.00547091,99.25184691
39.75055084,7.56923219,5.77664167,1.33169754,1.51215897,-0.57121379

>  <Name>
1yrj_lig

>  <RI>
0

>  <Rbt.Current_Directory>
/home/itssahil/PROJECTS/Mol_Feturizer/New_Systems/rnas/1yrj

>  <Rbt.Executable>
rbdock ($Id: //depot/dev/client3/rdock/2013.1/src/exe/rbdock.cxx#4 $)

>  <Rbt.Library>
libRbt.so (2013.1, Build901 2013/11/27)

>  <Rbt.Parameter_File>
/export/apps/rDock/src/rDock_2013.1_src/data/scripts/dock_solv.prm

>  <Rbt.Receptor>
prm/pocket_docking_7.prm

>  <SCORE>
-15.781

>  <SCORE.INTER>
-18.347

>  <SCORE.INTER.CONST>
1

>  <SCORE.INTER.POLAR>
-1.87568

>  <SCORE.INTER.ROT>
6

>  <SCORE.INTER.SOLV>
25.4702

>  <SCORE.INTER.VDW>
-22.0692

>  <SCORE.INTER.norm>
-0.495866

>  <SCORE.INTRA>
2.09982

>  <SCORE.INTRA.DIHEDRAL>
5.43769

>  <SCORE.INTRA.DIHEDRAL.0>
15.6389

>  <SCORE.INTRA.POLAR>
0

>  <SCORE.INTRA.POLAR.0>
0

>  <SCORE.INTRA.REPUL>
0

>  <SCORE.INTRA.REPUL.0>
0

>  <SCORE.INTRA.SOLV>
-0.378106

>  <SCORE.INTRA.SOLV.lig_0>
-90.9181

>  <SCORE.INTRA.VDW>
-0.429967

>  <SCORE.INTRA.VDW.0>
-3.14158

>  <SCORE.INTRA.norm>
0.056752

>  <SCORE.RESTR>
0.466176

>  <SCORE.RESTR.CAVITY>
0.466176

>  <SCORE.RESTR.norm>
0.0125994

>  <SCORE.SYSTEM>
0

>  <SCORE.SYSTEM.CONST>
0

>  <SCORE.SYSTEM.DIHEDRAL>
0

>  <SCORE.SYSTEM.SOLV>
0

>  <SCORE.SYSTEM.norm>
0

>  <SCORE.heavy>
37

>  <SCORE.norm>
-0.426515

>  <RMSD>
6.651

$$$$
1yrj_lig
 OpenBabel11021811423D
libRbt.so/2013.1/901 2013/11/27
 37 40  0  0  0  0  0  0  0  0999 V2000
   39.2104    7.7843    4.0128 C   0  0  1  0  0  0  0  0  0  0  0  0
   37.7244    8.0251    4.3433 C   0  0  1  0  0  0  0  0  0  0  0  0
   37.4699    8.0313    5.8591 C   0  0  0  0  0  0  0  0  0  0  0  0
   37.9965    6.7169    6.4922 C   0  0  1  0  0  0  0  0  0  0  0  0
   39.4948    6.5436    6.1791 C   0  0  1  0  0  0  0  0  0  0  0  0
   40.0104    5.2002    6.8481 C   0  0  1  0  0  0  0  0  0  0  0  0
   39.7880    5.2603    8.3681 C   0  0  1  0  0  0  0  0  0  0  0  0
   38.2783    5.4839    8.6268 C   0  0  2  0  0  0  0  0  0  0  0  0
   40.9000    4.1611   10.3835 C   0  0  0  0  0  0  0  0  0  0  0  0
   37.2210    9.2688    3.7376 N   0  0  0  0  0  0  0  0  0  0  0  0
   40.3175    4.0186    9.0125 N   0  0  0  0  0  0  0  0  0  0  0  0
   40.0518    8.9234    4.2731 O   0  0  0  0  0  0  0  0  0  0  0  0
   39.6682    6.5680    4.7126 O   0  0  0  0  0  0  0  0  0  0  0  0
   37.8095    6.6905    7.9608 O   0  0  0  0  0  0  0  0  0  0  0  0
   39.2572    4.1116    6.3558 O   0  0  0  0  0  0  0  0  0  0  0  0
   37.9900    5.6147   10.0194 O   0  0  0  0  0  0  0  0  0  0  0  0
   37.6804    6.9720   10.4137 C   0  0  2  0  0  0  0  0  0  0  0  0
   38.9269    7.8113   10.7384 C   0  0  1  0  0  0  0  0  0  0  0  0
   39.6086    7.3196   12.0429 C   0  0  2  0  0  0  0  0  0  0  0  0
   38.6235    7.3687   13.1883 C   0  0  1  0  0  0  0  0  0  0  0  0
   37.3959    6.4923   12.8442 C   0  0  1  0  0  0  0  0  0  0  0  0
   36.3233    6.5225   13.9306 C   0  0  0  0  0  0  0  0  0  0  0  0
   39.2990    6.8912   14.4126 N   0  0  0  0  0  0  0  0  0  0  0  0
   36.7829    6.9715   11.5924 O   0  0  0  0  0  0  0  0  0  0  0  0
   39.8127    7.7601    9.6107 O   0  0  0  0  0  0  0  0  0  0  0  0
   40.7209    8.1692   12.3560 O   0  0  0  0  0  0  0  0  0  0  0  0
   35.2973    5.6253   13.5986 O   0  0  0  0  0  0  0  0  0  0  0  0
   40.1887    9.5834    5.6369 C   0  0  1  0  0  0  0  0  0  0  0  0
   41.6614    9.4227    6.0744 C   0  0  1  0  0  0  0  0  0  0  0  0
   41.9223   10.1243    7.4294 C   0  0  2  0  0  0  0  0  0  0  0  0
   41.5772   11.6144    7.3226 C   0  0  1  0  0  0  0  0  0  0  0  0
   40.0909   11.7911    6.9198 C   0  0  0  0  0  0  0  0  0  0  0  0
   39.8591   11.1041    5.5699 C   0  0  2  0  0  0  0  0  0  0  0  0
   41.8183   12.2765    8.6241 N   0  0  0  0  0  0  0  0  0  0  0  0
   38.4564   11.3076    5.2178 N   0  0  0  0  0  0  0  0  0  0  0  0
   41.9600    8.0169    6.2175 O   0  0  0  0  0  0  0  0  0  0  0  0
   43.3146    9.9641    7.7766 O   0  0  0  0  0  0  0  0  0  0  0  0
  1  2  1  0  0  0  0
  1 12  1  1  0  0  0
  1 13  1  0  0  0  0
  2  3  1  0  0  0  0
  2 10  1  1  0  0  0
  4  3  1  1  0  0  0
  4  5  1  0  0  0  0
  4 14  1  0  0  0  0
  5  6  1  0  0  0  0
  5 13  1  6  0  0  0
  6  7  1  0  0  0  0
  6 15  1  6  0  0  0
  7  8  1  0  0  0  0
  7 11  1  1  0  0  0
  8 14  1  0  0  0  0
  8 16  1  1  0  0  0
  9 11  1  0  0  0  0
 17 16  1  1  0  0  0
 17 18  1  0  0  0  0
 17 24  1  0  0  0  0
 18 19  1  0  0  0  0
 18 25  1  6  0  0  0
 19 20  1  0  0  0  0
 19 26  1  1  0  0  0
 20 21  1  0  0  0  0
 20 23  1  1  0  0  0
 21 22  1  1  0  0  0
 21 24  1  0  0  0  0
 22 27  1  0  0  0  0
 28 12  1  6  0  0  0
 28 29  1  0  0  0  0
 28 33  1  0  0  0  0
 29 30  1  0  0  0  0
 29 36  1  1  0  0  0
 30 31  1  0  0  0  0
 30 37  1  6  0  0  0
 31 32  1  0  0  0  0
 31 34  1  1  0  0  0
 32 33  1  0  0  0  0
 33 35  1  1  0  0  0
M  END
>  <CHROM.1>
58.51780888,146.46778447,106.52212233,-85.64161722,-175.27736534,117.13239343
39.31178687,7.68199687,8.36835805,1.02753150,-1.05203145,-1.64039458

>  <Name>
1yrj_lig

>  <RI>
0

>  <Rbt.Current_Directory>
/home/itssahil/PROJECTS/Mol_Feturizer/New_Systems/rnas/1yrj

>  <Rbt.Executable>
rbdock ($Id: //depot/dev/client3/rdock/2013.1/src/exe/rbdock.cxx#4 $)

>  <Rbt.Library>
libRbt.so (2013.1, Build901 2013/11/27)

>  <Rbt.Parameter_File>
/export/apps/rDock/src/rDock_2013.1_src/data/scripts/dock_solv.prm

>  <Rbt.Receptor>
prm/pocket_docking_6.prm

>  <SCORE>
-14.8346

>  <SCORE.INTER>
-18.1358

>  <SCORE.INTER.CONST>
1

>  <SCORE.INTER.POLAR>
-1.67299

>  <SCORE.INTER.ROT>
6

>  <SCORE.INTER.SOLV>
24.3596

>  <SCORE.INTER.VDW>
-22.2338

>  <SCORE.INTER.norm>
-0.490157

>  <SCORE.INTRA>
3.30117

>  <SCORE.INTRA.DIHEDRAL>
1.50568

>  <SCORE.INTRA.DIHEDRAL.0>
15.6389

>  <SCORE.INTRA.POLAR>
0

>  <SCORE.INTRA.POLAR.0>
0

>  <SCORE.INTRA.REPUL>
0

>  <SCORE.INTRA.REPUL.0>
0

>  <SCORE.INTRA.SOLV>
3.92739

>  <SCORE.INTRA.SOLV.lig_0>
-90.9181

>  <SCORE.INTRA.VDW>
0.584635

>  <SCORE.INTRA.VDW.0>
-3.14158

>  <SCORE.INTRA.norm>
0.0892208

>  <SCORE.RESTR>
0

>  <SCORE.RESTR.CAVITY>
0

>  <SCORE.RESTR.norm>
0

>  <SCORE.SYSTEM>
0

>  <SCORE.SYSTEM.CONST>
0

>  <SCORE.SYSTEM.DIHEDRAL>
0

>  <SCORE.SYSTEM.SOLV>
0

>  <SCORE.SYSTEM.norm>
0

>  <SCORE.heavy>
37

>  <SCORE.norm>
-0.400936

>  <RMSD>
7.414

$$$$
1yrj_lig
 OpenBabel11021811423D
libRbt.so/2013.1/901 2013/11/27
 37 40  0  0  0  0  0  0  0  0999 V2000
   40.2668    0.3123    9.1458 C   0  0  1  0  0  0  0  0  0  0  0  0
   41.1583    1.4871    9.5938 C   0  0  1  0  0  0  0  0  0  0  0  0
   42.6459    1.1011    9.6115 C   0  0  0  0  0  0  0  0  0  0  0  0
   42.8589   -0.1552   10.4960 C   0  0  1  0  0  0  0  0  0  0  0  0
   41.9877   -1.3167    9.9813 C   0  0  1  0  0  0  0  0  0  0  0  0
   42.2340   -2.5910   10.8942 C   0  0  1  0  0  0  0  0  0  0  0  0
   43.7205   -2.9806   10.8492 C   0  0  1  0  0  0  0  0  0  0  0  0
   44.5526   -1.7662   11.3278 C   0  0  2  0  0  0  0  0  0  0  0  0
   43.5187   -5.5137   11.0712 C   0  0  0  0  0  0  0  0  0  0  0  0
   40.9525    2.6825    8.7598 N   0  0  0  0  0  0  0  0  0  0  0  0
   43.9522   -4.2114   11.6671 N   0  0  0  0  0  0  0  0  0  0  0  0
   40.3387    0.0386    7.7340 O   0  0  0  0  0  0  0  0  0  0  0  0
   40.5796   -0.8711    9.9706 O   0  0  0  0  0  0  0  0  0  0  0  0
   44.2738   -0.5915   10.5145 O   0  0  0  0  0  0  0  0  0  0  0  0
   41.9227   -2.2751   12.2351 O   0  0  0  0  0  0  0  0  0  0  0  0
   45.9561   -2.0213   11.2582 O   0  0  0  0  0  0  0  0  0  0  0  0
   46.6560   -1.7031   12.4840 C   0  0  2  0  0  0  0  0  0  0  0  0
   46.7296   -0.1942   12.7692 C   0  0  1  0  0  0  0  0  0  0  0  0
   47.6599    0.5226   11.7547 C   0  0  2  0  0  0  0  0  0  0  0  0
   49.0398   -0.0930   11.7982 C   0  0  1  0  0  0  0  0  0  0  0  0
   48.9358   -1.6031   11.4786 C   0  0  1  0  0  0  0  0  0  0  0  0
   50.2837   -2.3174   11.5483 C   0  0  0  0  0  0  0  0  0  0  0  0
   49.8994    0.6059   10.8204 N   0  0  0  0  0  0  0  0  0  0  0  0
   48.0319   -2.2510   12.4458 O   0  0  0  0  0  0  0  0  0  0  0  0
   45.3960    0.3350   12.7501 O   0  0  0  0  0  0  0  0  0  0  0  0
   47.7651    1.9120   12.0945 O   0  0  0  0  0  0  0  0  0  0  0  0
   51.1289   -1.8180   10.5462 O   0  0  0  0  0  0  0  0  0  0  0  0
   39.6766   -1.1574    7.0665 C   0  0  1  0  0  0  0  0  0  0  0  0
   38.1510   -0.9880    7.2390 C   0  0  1  0  0  0  0  0  0  0  0  0
   37.3779   -2.1271    6.5313 C   0  0  2  0  0  0  0  0  0  0  0  0
   37.7274   -2.1485    5.0385 C   0  0  1  0  0  0  0  0  0  0  0  0
   39.2520   -2.3551    4.8496 C   0  0  0  0  0  0  0  0  0  0  0  0
   39.9962   -1.2092    5.5431 C   0  0  2  0  0  0  0  0  0  0  0  0
   36.9937   -3.2466    4.3704 N   0  0  0  0  0  0  0  0  0  0  0  0
   41.4238   -1.4295    5.3278 N   0  0  0  0  0  0  0  0  0  0  0  0
   37.8296   -1.0172    8.6467 O   0  0  0  0  0  0  0  0  0  0  0  0
   35.9615   -1.9058    6.7031 O   0  0  0  0  0  0  0  0  0  0  0  0
  1  2  1  0  0  0  0
  1 12  1  6  0  0  0
  1 13  1  0  0  0  0
  2  3  1  0  0  0  0
  2 10  1  6  0  0  0
  4  3  1  6  0  0  0
  4  5  1  0  0  0  0
  4 14  1  0  0  0  0
  5  6  1  0  0  0  0
  5 13  1  1  0  0  0
  6  7  1  0  0  0  0
  6 15  1  1  0  0  0
  7  8  1  0  0  0  0
  7 11  1  1  0  0  0
  8 14  1  0  0  0  0
  8 16  1  6  0  0  0
  9 11  1  0  0  0  0
 17 16  1  6  0  0  0
 17 18  1  0  0  0  0
 17 24  1  0  0  0  0
 18 19  1  0  0  0  0
 18 25  1  6  0  0  0
 19 20  1  0  0  0  0
 19 26  1  1  0  0  0
 20 21  1  0  0  0  0
 20 23  1  6  0  0  0
 21 22  1  1  0  0  0
 21 24  1  0  0  0  0
 22 27  1  0  0  0  0
 28 12  1  6  0  0  0
 28 29  1  0  0  0  0
 28 33  1  0  0  0  0
 29 30  1  0  0  0  0
 29 36  1  1  0  0  0
 30 31  1  0  0  0  0
 30 37  1  6  0  0  0
 31 32  1  0  0  0  0
 31 34  1  6  0  0  0
 32 33  1  0  0  0  0
 33 35  1  1  0  0  0
M  END
>  <CHROM.1>
173.11767883,75.95832345,-129.93635131,-69.62307159,-64.84741143,64.28733355
43.18473785,-1.16202602,9.68246188,3.08989804,0.48098892,-3.12971857

>  <Name>
1yrj_lig

>  <RI>
0

>  <Rbt.Current_Directory>
/home/itssahil/PROJECTS/Mol_Feturizer/New_Systems/rnas/1yrj

>  <Rbt.Executable>
rbdock ($Id: //depot/dev/client3/rdock/2013.1/src/exe/rbdock.cxx#4 $)

>  <Rbt.Library>
libRbt.so (2013.1, Build901 2013/11/27)

>  <Rbt.Parameter_File>
/export/apps/rDock/src/rDock_2013.1_src/data/scripts/dock_solv.prm

>  <Rbt.Receptor>
prm/pocket_docking_7.prm

>  <SCORE>
-9.53669

>  <SCORE.INTER>
-6.44465

>  <SCORE.INTER.CONST>
1

>  <SCORE.INTER.POLAR>
-0.580313

>  <SCORE.INTER.ROT>
6

>  <SCORE.INTER.SOLV>
17.6268

>  <SCORE.INTER.VDW>
-15.8376

>  <SCORE.INTER.norm>
-0.17418

>  <SCORE.INTRA>
-3.09204

>  <SCORE.INTRA.DIHEDRAL>
-7.78788

>  <SCORE.INTRA.DIHEDRAL.0>
15.6389

>  <SCORE.INTRA.POLAR>
0

>  <SCORE.INTRA.POLAR.0>
0

>  <SCORE.INTRA.REPUL>
0

>  <SCORE.INTRA.REPUL.0>
0

>  <SCORE.INTRA.SOLV>
-1.11103

>  <SCORE.INTRA.SOLV.lig_0>
-90.9181

>  <SCORE.INTRA.VDW>
1.35741

>  <SCORE.INTRA.VDW.0>
-3.14158

>  <SCORE.INTRA.norm>
-0.0835687

>  <SCORE.RESTR>
0

>  <SCORE.RESTR.CAVITY>
0

>  <SCORE.RESTR.norm>
0

>  <SCORE.SYSTEM>
0

>  <SCORE.SYSTEM.CONST>
0

>  <SCORE.SYSTEM.DIHEDRAL>
0

>  <SCORE.SYSTEM.SOLV>
0

>  <SCORE.SYSTEM.norm>
0

>  <SCORE.heavy>
37

>  <SCORE.norm>
-0.257748

>  <RMSD>
7.698

$$$$
1yrj_lig
 OpenBabel11021811423D
libRbt.so/2013.1/901 2013/11/27
 37 40  0  0  0  0  0  0  0  0999 V2000
   38.0827    7.3292    5.6981 C   0  0  1  0  0  0  0  0  0  0  0  0
   36.8131    6.9772    6.4979 C   0  0  1  0  0  0  0  0  0  0  0  0
   36.9202    7.4227    7.9651 C   0  0  0  0  0  0  0  0  0  0  0  0
   38.1950    6.8211    8.6118 C   0  0  1  0  0  0  0  0  0  0  0  0
   39.4417    7.2399    7.8097 C   0  0  1  0  0  0  0  0  0  0  0  0
   40.7309    6.6229    8.4990 C   0  0  1  0  0  0  0  0  0  0  0  0
   40.8357    7.1283    9.9471 C   0  0  1  0  0  0  0  0  0  0  0  0
   39.5410    6.7253   10.6940 C   0  0  2  0  0  0  0  0  0  0  0  0
   42.6407    7.3725   11.7328 C   0  0  0  0  0  0  0  0  0  0  0  0
   35.6012    7.5417    5.8818 N   0  0  0  0  0  0  0  0  0  0  0  0
   42.0758    6.5913   10.5883 N   0  0  0  0  0  0  0  0  0  0  0  0
   38.2021    8.7309    5.3917 O   0  0  0  0  0  0  0  0  0  0  0  0
   39.2624    6.8009    6.4109 O   0  0  0  0  0  0  0  0  0  0  0  0
   38.3648    7.2531   10.0180 O   0  0  0  0  0  0  0  0  0  0  0  0
   40.6073    5.2171    8.5523 O   0  0  0  0  0  0  0  0  0  0  0  0
   39.5271    7.2119   12.0366 O   0  0  0  0  0  0  0  0  0  0  0  0
   38.6968    8.3840   12.2109 C   0  0  2  0  0  0  0  0  0  0  0  0
   39.2254    9.3510   13.2828 C   0  0  1  0  0  0  0  0  0  0  0  0
   39.0963    8.7378   14.7025 C   0  0  2  0  0  0  0  0  0  0  0  0
   37.6544    8.3777   14.9783 C   0  0  1  0  0  0  0  0  0  0  0  0
   37.1615    7.3823   13.9014 C   0  0  1  0  0  0  0  0  0  0  0  0
   35.6934    7.0002   14.0756 C   0  0  0  0  0  0  0  0  0  0  0  0
   37.5645    7.7933   16.3324 N   0  0  0  0  0  0  0  0  0  0  0  0
   37.3147    7.9853   12.5652 O   0  0  0  0  0  0  0  0  0  0  0  0
   40.5820    9.6876   12.9584 O   0  0  0  0  0  0  0  0  0  0  0  0
   39.5273    9.6930   15.6818 O   0  0  0  0  0  0  0  0  0  0  0  0
   35.3282    6.0835   13.0785 O   0  0  0  0  0  0  0  0  0  0  0  0
   39.2657    9.3110    4.4716 C   0  0  1  0  0  0  0  0  0  0  0  0
   40.6197    9.1842    5.2042 C   0  0  1  0  0  0  0  0  0  0  0  0
   41.7846    9.6888    4.3185 C   0  0  2  0  0  0  0  0  0  0  0  0
   41.8313    8.8908    3.0101 C   0  0  1  0  0  0  0  0  0  0  0  0
   40.4909    9.0392    2.2457 C   0  0  0  0  0  0  0  0  0  0  0  0
   39.3551    8.5195    3.1333 C   0  0  2  0  0  0  0  0  0  0  0  0
   42.9399    9.3857    2.1636 N   0  0  0  0  0  0  0  0  0  0  0  0
   38.1157    8.6592    2.3734 N   0  0  0  0  0  0  0  0  0  0  0  0
   40.5794    9.9780    6.4101 O   0  0  0  0  0  0  0  0  0  0  0  0
   43.0240    9.5245    5.0408 O   0  0  0  0  0  0  0  0  0  0  0  0
  1  2  1  0  0  0  0
  1 12  1  1  0  0  0
  1 13  1  0  0  0  0
  2  3  1  0  0  0  0
  2 10  1  6  0  0  0
  4  3  1  6  0  0  0
  4  5  1  0  0  0  0
  4 14  1  0  0  0  0
  5  6  1  0  0  0  0
  5 13  1  6  0  0  0
  6  7  1  0  0  0  0
  6 15  1  1  0  0  0
  7  8  1  0  0  0  0
  7 11  1  1  0  0  0
  8 14  1  0  0  0  0
  8 16  1  1  0  0  0
  9 11  1  0  0  0  0
 17 16  1  1  0  0  0
 17 18  1  0  0  0  0
 17 24  1  0  0  0  0
 18 19  1  0  0  0  0
 18 25  1  6  0  0  0
 19 20  1  0  0  0  0
 19 26  1  1  0  0  0
 20 21  1  0  0  0  0
 20 23  1  1  0  0  0
 21 22  1  1  0  0  0
 21 24  1  0  0  0  0
 22 27  1  0  0  0  0
 28 12  1  1  0  0  0
 28 29  1  0  0  0  0
 28 33  1  0  0  0  0
 29 30  1  0  0  0  0
 29 36  1  1  0  0  0
 30 31  1  0  0  0  0
 30 37  1  1  0  0  0
 31 32  1  0  0  0  0
 31 34  1  6  0  0  0
 32 33  1  0  0  0  0
 33 35  1  6  0  0  0
M  END
>  <CHROM.1>
-172.14466827,155.58715127,102.18340681,-147.31943608,-179.10566476,-69.89381236
39.26840875,7.98857218,8.93049009,1.36225452,-0.26535678,-1.54544767

>  <Name>
1yrj_lig

>  <RI>
0

>  <Rbt.Current_Directory>
/home/itssahil/PROJECTS/Mol_Feturizer/New_Systems/rnas/1yrj

>  <Rbt.Executable>
rbdock ($Id: //depot/dev/client3/rdock/2013.1/src/exe/rbdock.cxx#4 $)

>  <Rbt.Library>
libRbt.so (2013.1, Build901 2013/11/27)

>  <Rbt.Parameter_File>
/export/apps/rDock/src/rDock_2013.1_src/data/scripts/dock_solv.prm

>  <Rbt.Receptor>
prm/pocket_docking_7.prm

>  <SCORE>
-19.7096

>  <SCORE.INTER>
-18.1323

>  <SCORE.INTER.CONST>
1

>  <SCORE.INTER.POLAR>
-3.51576

>  <SCORE.INTER.ROT>
6

>  <SCORE.INTER.SOLV>
23.3815

>  <SCORE.INTER.VDW>
-15.7629

>  <SCORE.INTER.norm>
-0.490063

>  <SCORE.INTRA>
-1.59689

>  <SCORE.INTRA.DIHEDRAL>
-4.52632

>  <SCORE.INTRA.DIHEDRAL.0>
15.6389

>  <SCORE.INTRA.POLAR>
0

>  <SCORE.INTRA.POLAR.0>
0

>  <SCORE.INTRA.REPUL>
0

>  <SCORE.INTRA.REPUL.0>
0

>  <SCORE.INTRA.SOLV>
-1.62632

>  <SCORE.INTRA.SOLV.lig_0>
-90.9181

>  <SCORE.INTRA.VDW>
1.47943

>  <SCORE.INTRA.VDW.0>
-3.14158

>  <SCORE.INTRA.norm>
-0.0431593

>  <SCORE.RESTR>
0.0196732

>  <SCORE.RESTR.CAVITY>
0.0196732

>  <SCORE.RESTR.norm>
0.000531709

>  <SCORE.SYSTEM>
0

>  <SCORE.SYSTEM.CONST>
0

>  <SCORE.SYSTEM.DIHEDRAL>
0

>  <SCORE.SYSTEM.SOLV>
0

>  <SCORE.SYSTEM.norm>
0

>  <SCORE.heavy>
37

>  <SCORE.norm>
-0.532691

>  <RMSD>
8.152

$$$$
1yrj_lig
 OpenBabel11021811423D
libRbt.so/2013.1/901 2013/11/27
 37 40  0  0  0  0  0  0  0  0999 V2000
   38.2874    6.5960    4.9540 C   0  0  1  0  0  0  0  0  0  0  0  0
   37.1830    7.6043    5.3270 C   0  0  1  0  0  0  0  0  0  0  0  0
   37.4404    8.2530    6.6965 C   0  0  0  0  0  0  0  0  0  0  0  0
   37.6113    7.1569    7.7804 C   0  0  1  0  0  0  0  0  0  0  0  0
   38.7570    6.2037    7.3909 C   0  0  1  0  0  0  0  0  0  0  0  0
   38.9190    5.1016    8.5211 C   0  0  1  0  0  0  0  0  0  0  0  0
   39.2257    5.7804    9.8660 C   0  0  1  0  0  0  0  0  0  0  0  0
   38.0716    6.7611   10.1862 C   0  0  2  0  0  0  0  0  0  0  0  0
   40.3985    3.6461   10.6248 C   0  0  0  0  0  0  0  0  0  0  0  0
   37.0146    8.6415    4.2961 N   0  0  0  0  0  0  0  0  0  0  0  0
   39.4298    4.7459   10.9269 N   0  0  0  0  0  0  0  0  0  0  0  0
   39.5274    7.2156    4.5645 O   0  0  0  0  0  0  0  0  0  0  0  0
   38.4558    5.6350    6.0616 O   0  0  0  0  0  0  0  0  0  0  0  0
   37.9006    7.7311    9.1143 O   0  0  0  0  0  0  0  0  0  0  0  0
   37.7018    4.4014    8.6717 O   0  0  0  0  0  0  0  0  0  0  0  0
   38.3068    7.4843   11.3950 O   0  0  0  0  0  0  0  0  0  0  0  0
   38.2324    6.6566   12.5795 C   0  0  2  0  0  0  0  0  0  0  0  0
   37.0801    7.0430   13.5211 C   0  0  1  0  0  0  0  0  0  0  0  0
   37.3416    8.4182   14.1909 C   0  0  2  0  0  0  0  0  0  0  0  0
   38.6519    8.3830   14.9436 C   0  0  1  0  0  0  0  0  0  0  0  0
   39.7939    8.0211   13.9646 C   0  0  1  0  0  0  0  0  0  0  0  0
   41.1529    7.9156   14.6529 C   0  0  0  0  0  0  0  0  0  0  0  0
   38.8749    9.7049   15.5651 N   0  0  0  0  0  0  0  0  0  0  0  0
   39.5074    6.7214   13.3313 O   0  0  0  0  0  0  0  0  0  0  0  0
   35.8581    7.0293   12.7691 O   0  0  0  0  0  0  0  0  0  0  0  0
   36.2867    8.7122   15.1171 O   0  0  0  0  0  0  0  0  0  0  0  0
   41.5275    9.1759   15.1419 O   0  0  0  0  0  0  0  0  0  0  0  0
   39.7997    7.7688    3.1737 C   0  0  1  0  0  0  0  0  0  0  0  0
   41.1866    8.4475    3.2174 C   0  0  1  0  0  0  0  0  0  0  0  0
   41.5892    8.9879    1.8238 C   0  0  2  0  0  0  0  0  0  0  0  0
   41.6088    7.8432    0.8039 C   0  0  1  0  0  0  0  0  0  0  0  0
   40.2119    7.1762    0.7226 C   0  0  0  0  0  0  0  0  0  0  0  0
   39.8409    6.6346    2.1071 C   0  0  2  0  0  0  0  0  0  0  0  0
   41.9835    8.3686   -0.5281 N   0  0  0  0  0  0  0  0  0  0  0  0
   38.5311    6.0003    1.9852 N   0  0  0  0  0  0  0  0  0  0  0  0
   41.1414    9.5529    4.1458 O   0  0  0  0  0  0  0  0  0  0  0  0
   42.8993    9.5875    1.9173 O   0  0  0  0  0  0  0  0  0  0  0  0
  1  2  1  0  0  0  0
  1 12  1  1  0  0  0
  1 13  1  0  0  0  0
  2  3  1  0  0  0  0
  2 10  1  6  0  0  0
  4  3  1  6  0  0  0
  4  5  1  0  0  0  0
  4 14  1  0  0  0  0
  5  6  1  0  0  0  0
  5 13  1  6  0  0  0
  6  7  1  0  0  0  0
  6 15  1  1  0  0  0
  7  8  1  0  0  0  0
  7 11  1  1  0  0  0
  8 14  1  0  0  0  0
  8 16  1  1  0  0  0
  9 11  1  0  0  0  0
 17 16  1  6  0  0  0
 17 18  1  0  0  0  0
 17 24  1  0  0  0  0
 18 19  1  0  0  0  0
 18 25  1  6  0  0  0
 19 20  1  0  0  0  0
 19 26  1  1  0  0  0
 20 21  1  0  0  0  0
 20 23  1  6  0  0  0
 21 22  1  1  0  0  0
 21 24  1  0  0  0  0
 22 27  1  0  0  0  0
 28 12  1  1  0  0  0
 28 29  1  0  0  0  0
 28 33  1  0  0  0  0
 29 30  1  0  0  0  0
 29 36  1  1  0  0  0
 30 31  1  0  0  0  0
 30 37  1  1  0  0  0
 31 32  1  0  0  0  0
 31 34  1  6  0  0  0
 32 33  1  0  0  0  0
 33 35  1  6  0  0  0
M  END
>  <CHROM.1>
-81.51897818,50.98829889,-69.25535171,-115.69175233,-65.33850140,175.19464664
39.11854715,7.33227486,8.20974871,1.37063202,-0.67453679,-1.68093284

>  <Name>
1yrj_lig

>  <RI>
0

>  <Rbt.Current_Directory>
/home/itssahil/PROJECTS/Mol_Feturizer/New_Systems/rnas/1yrj

>  <Rbt.Executable>
rbdock ($Id: //depot/dev/client3/rdock/2013.1/src/exe/rbdock.cxx#4 $)

>  <Rbt.Library>
libRbt.so (2013.1, Build901 2013/11/27)

>  <Rbt.Parameter_File>
/export/apps/rDock/src/rDock_2013.1_src/data/scripts/dock_solv.prm

>  <Rbt.Receptor>
prm/pocket_docking_8.prm

>  <SCORE>
-18.2327

>  <SCORE.INTER>
-18.2136

>  <SCORE.INTER.CONST>
1

>  <SCORE.INTER.POLAR>
-1.97308

>  <SCORE.INTER.ROT>
6

>  <SCORE.INTER.SOLV>
15.2137

>  <SCORE.INTER.VDW>
-18.2367

>  <SCORE.INTER.norm>
-0.492259

>  <SCORE.INTRA>
-0.0191592

>  <SCORE.INTRA.DIHEDRAL>
-5.7439

>  <SCORE.INTRA.DIHEDRAL.0>
15.6389

>  <SCORE.INTRA.POLAR>
0

>  <SCORE.INTRA.POLAR.0>
0

>  <SCORE.INTRA.REPUL>
0

>  <SCORE.INTRA.REPUL.0>
0

>  <SCORE.INTRA.SOLV>
2.14693

>  <SCORE.INTRA.SOLV.lig_0>
-90.9181

>  <SCORE.INTRA.VDW>
1.77933

>  <SCORE.INTRA.VDW.0>
-3.14158

>  <SCORE.INTRA.norm>
-0.000517817

>  <SCORE.RESTR>
0

>  <SCORE.RESTR.CAVITY>
0

>  <SCORE.RESTR.norm>
0

>  <SCORE.SYSTEM>
0

>  <SCORE.SYSTEM.CONST>
0

>  <SCORE.SYSTEM.DIHEDRAL>
0

>  <SCORE.SYSTEM.SOLV>
0

>  <SCORE.SYSTEM.norm>
0

>  <SCORE.heavy>
37

>  <SCORE.norm>
-0.492777

>  <RMSD>
8.220

$$$$
1yrj_lig
 OpenBabel11021811423D
libRbt.so/2013.1/901 2013/11/27
 37 40  0  0  0  0  0  0  0  0999 V2000
   38.9411    6.6385    3.5354 C   0  0  1  0  0  0  0  0  0  0  0  0
   38.8787    5.2685    4.2388 C   0  0  1  0  0  0  0  0  0  0  0  0
   38.1799    5.3589    5.6048 C   0  0  0  0  0  0  0  0  0  0  0  0
   38.8733    6.4297    6.4871 C   0  0  1  0  0  0  0  0  0  0  0  0
   38.8675    7.7913    5.7667 C   0  0  1  0  0  0  0  0  0  0  0  0
   39.5699    8.8698    6.6949 C   0  0  1  0  0  0  0  0  0  0  0  0
   38.8169    8.9718    8.0313 C   0  0  1  0  0  0  0  0  0  0  0  0
   38.8092    7.5706    8.6894 C   0  0  2  0  0  0  0  0  0  0  0  0
   38.8376   11.3903    8.8419 C   0  0  0  0  0  0  0  0  0  0  0  0
   38.2270    4.2492    3.4002 N   0  0  0  0  0  0  0  0  0  0  0  0
   39.4425   10.0225    8.8927 N   0  0  0  0  0  0  0  0  0  0  0  0
   37.6770    7.0696    2.9976 O   0  0  0  0  0  0  0  0  0  0  0  0
   39.5326    7.6269    4.4584 O   0  0  0  0  0  0  0  0  0  0  0  0
   38.2115    6.5828    7.8028 O   0  0  0  0  0  0  0  0  0  0  0  0
   40.8873    8.4522    6.9856 O   0  0  0  0  0  0  0  0  0  0  0  0
   38.0725    7.5606    9.9128 O   0  0  0  0  0  0  0  0  0  0  0  0
   38.3276    6.3897   10.7237 C   0  0  2  0  0  0  0  0  0  0  0  0
   37.8520    6.5405   12.1779 C   0  0  1  0  0  0  0  0  0  0  0  0
   38.7193    7.5727   12.9464 C   0  0  2  0  0  0  0  0  0  0  0  0
   40.1720    7.1569   12.9043 C   0  0  1  0  0  0  0  0  0  0  0  0
   40.6282    7.0428   11.4304 C   0  0  1  0  0  0  0  0  0  0  0  0
   42.0764    6.5785   11.2928 C   0  0  0  0  0  0  0  0  0  0  0  0
   40.9713    8.1595   13.6386 N   0  0  0  0  0  0  0  0  0  0  0  0
   39.7745    6.0712   10.7236 O   0  0  0  0  0  0  0  0  0  0  0  0
   36.4634    6.9018   12.1641 O   0  0  0  0  0  0  0  0  0  0  0  0
   38.2976    7.6330   14.3159 O   0  0  0  0  0  0  0  0  0  0  0  0
   42.9268    7.5186   11.8935 O   0  0  0  0  0  0  0  0  0  0  0  0
   37.5354    7.9669    1.7772 C   0  0  1  0  0  0  0  0  0  0  0  0
   36.0551    8.4016    1.7012 C   0  0  1  0  0  0  0  0  0  0  0  0
   35.8185    9.3781    0.5237 C   0  0  2  0  0  0  0  0  0  0  0  0
   36.7102   10.6153    0.6821 C   0  0  1  0  0  0  0  0  0  0  0  0
   38.2022   10.1969    0.7227 C   0  0  0  0  0  0  0  0  0  0  0  0
   38.4169    9.2446    1.9038 C   0  0  2  0  0  0  0  0  0  0  0  0
   36.4871   11.5392   -0.4524 N   0  0  0  0  0  0  0  0  0  0  0  0
   39.8332    8.8886    1.9187 N   0  0  0  0  0  0  0  0  0  0  0  0
   35.2300    7.2326    1.5044 O   0  0  0  0  0  0  0  0  0  0  0  0
   34.4288    9.7697    0.5152 O   0  0  0  0  0  0  0  0  0  0  0  0
  1  2  1  0  0  0  0
  1 12  1  1  0  0  0
  1 13  1  0  0  0  0
  2  3  1  0  0  0  0
  2 10  1  6  0  0  0
  4  3  1  6  0  0  0
  4  5  1  0  0  0  0
  4 14  1  0  0  0  0
  5  6  1  0  0  0  0
  5 13  1  6  0  0  0
  6  7  1  0  0  0  0
  6 15  1  1  0  0  0
  7  8  1  0  0  0  0
  7 11  1  1  0  0  0
  8 14  1  0  0  0  0
  8 16  1  1  0  0  0
  9 11  1  0  0  0  0
 17 16  1  6  0  0  0
 17 18  1  0  0  0  0
 17 24  1  0  0  0  0
 18 19  1  0  0  0  0
 18 25  1  6  0  0  0
 19 20  1  0  0  0  0
 19 26  1  1  0  0  0
 20 21  1  0  0  0  0
 20 23  1  1  0  0  0
 21 22  1  1  0  0  0
 21 24  1  0  0  0  0
 22 27  1  0  0  0  0
 28 12  1  1  0  0  0
 28 29  1  0  0  0  0
 28 33  1  0  0  0  0
 29 30  1  0  0  0  0
 29 36  1  6  0  0  0
 30 31  1  0  0  0  0
 30 37  1  1  0  0  0
 31 32  1  0  0  0  0
 31 34  1  6  0  0  0
 32 33  1  0  0  0  0
 33 35  1  6  0  0  0
M  END
>  <CHROM.1>
-150.67906763,95.06345012,-164.77850992,164.46451437,-62.03175909,-169.44622487
38.55613794,7.85035033,6.73268940,-3.05992289,-1.32656161,0.22176164

>  <Name>
1yrj_lig

>  <RI>
0

>  <Rbt.Current_Directory>
/home/itssahil/PROJECTS/Mol_Feturizer/New_Systems/rnas/1yrj

>  <Rbt.Executable>
rbdock ($Id: //depot/dev/client3/rdock/2013.1/src/exe/rbdock.cxx#4 $)

>  <Rbt.Library>
libRbt.so (2013.1, Build901 2013/11/27)

>  <Rbt.Parameter_File>
/export/apps/rDock/src/rDock_2013.1_src/data/scripts/dock_solv.prm

>  <Rbt.Receptor>
prm/pocket_docking_8.prm

>  <SCORE>
-15.4723

>  <SCORE.INTER>
-12.0357

>  <SCORE.INTER.CONST>
1

>  <SCORE.INTER.POLAR>
-1.02977

>  <SCORE.INTER.ROT>
6

>  <SCORE.INTER.SOLV>
19.3944

>  <SCORE.INTER.VDW>
-18.656

>  <SCORE.INTER.norm>
-0.32529

>  <SCORE.INTRA>
-3.43655

>  <SCORE.INTRA.DIHEDRAL>
-8.61315

>  <SCORE.INTRA.DIHEDRAL.0>
15.6389

>  <SCORE.INTRA.POLAR>
0

>  <SCORE.INTRA.POLAR.0>
0

>  <SCORE.INTRA.REPUL>
0

>  <SCORE.INTRA.REPUL.0>
0

>  <SCORE.INTRA.SOLV>
0.371588

>  <SCORE.INTRA.SOLV.lig_0>
-90.9181

>  <SCORE.INTRA.VDW>
0.684234

>  <SCORE.INTRA.VDW.0>
-3.14158

>  <SCORE.INTRA.norm>
-0.0928797

>  <SCORE.RESTR>
0

>  <SCORE.RESTR.CAVITY>
0

>  <SCORE.RESTR.norm>
0

>  <SCORE.SYSTEM>
0

>  <SCORE.SYSTEM.CONST>
0

>  <SCORE.SYSTEM.DIHEDRAL>
0

>  <SCORE.SYSTEM.SOLV>
0

>  <SCORE.SYSTEM.norm>
0

>  <SCORE.heavy>
37

>  <SCORE.norm>
-0.418169

>  <RMSD>
8.292

$$$$
1yrj_lig
 OpenBabel11021811423D
libRbt.so/2013.1/901 2013/11/27
 37 40  0  0  0  0  0  0  0  0999 V2000
   39.7293    6.7161    5.2972 C   0  0  1  0  0  0  0  0  0  0  0  0
   39.2384    5.4217    5.9746 C   0  0  1  0  0  0  0  0  0  0  0  0
   38.4147    5.7153    7.2386 C   0  0  0  0  0  0  0  0  0  0  0  0
   39.2334    6.6019    8.2129 C   0  0  1  0  0  0  0  0  0  0  0  0
   39.6589    7.9048    7.5097 C   0  0  1  0  0  0  0  0  0  0  0  0
   40.4823    8.7978    8.5308 C   0  0  1  0  0  0  0  0  0  0  0  0
   39.6133    9.1153    9.7585 C   0  0  1  0  0  0  0  0  0  0  0  0
   39.1730    7.7760   10.3979 C   0  0  2  0  0  0  0  0  0  0  0  0
   39.5682   11.0119   11.4636 C   0  0  0  0  0  0  0  0  0  0  0  0
   38.4669    4.5756    5.0494 N   0  0  0  0  0  0  0  0  0  0  0  0
   40.3646    9.9989   10.7030 N   0  0  0  0  0  0  0  0  0  0  0  0
   38.6919    7.4338    4.6029 O   0  0  0  0  0  0  0  0  0  0  0  0
   40.4245    7.5492    6.2978 O   0  0  0  0  0  0  0  0  0  0  0  0
   38.4673    6.9459    9.4325 O   0  0  0  0  0  0  0  0  0  0  0  0
   41.6060    8.0740    8.9870 O   0  0  0  0  0  0  0  0  0  0  0  0
   38.3062    7.9783   11.5147 O   0  0  0  0  0  0  0  0  0  0  0  0
   38.3712    6.9105   12.4890 C   0  0  2  0  0  0  0  0  0  0  0  0
   37.2609    6.9855   13.5498 C   0  0  1  0  0  0  0  0  0  0  0  0
   37.4691    8.2000   14.4932 C   0  0  2  0  0  0  0  0  0  0  0  0
   38.8267    8.1128   15.1521 C   0  0  1  0  0  0  0  0  0  0  0  0
   39.9224    8.0689   14.0608 C   0  0  1  0  0  0  0  0  0  0  0  0
   41.3290    7.9313   14.6389 C   0  0  0  0  0  0  0  0  0  0  0  0
   38.9970    9.2827   16.0385 N   0  0  0  0  0  0  0  0  0  0  0  0
   39.6864    6.9178   13.1709 O   0  0  0  0  0  0  0  0  0  0  0  0
   35.9947    7.0324   12.8763 O   0  0  0  0  0  0  0  0  0  0  0  0
   36.4614    8.1968   15.5137 O   0  0  0  0  0  0  0  0  0  0  0  0
   42.2616    7.8873   13.5919 O   0  0  0  0  0  0  0  0  0  0  0  0
   38.8992    8.7791    3.9235 C   0  0  1  0  0  0  0  0  0  0  0  0
   39.2525    9.7979    5.0294 C   0  0  1  0  0  0  0  0  0  0  0  0
   39.5503   11.1937    4.4299 C   0  0  2  0  0  0  0  0  0  0  0  0
   40.7087   11.0978    3.4299 C   0  0  1  0  0  0  0  0  0  0  0  0
   40.3526   10.1056    2.2935 C   0  0  0  0  0  0  0  0  0  0  0  0
   40.0780    8.7286    2.9069 C   0  0  2  0  0  0  0  0  0  0  0  0
   40.9806   12.4332    2.8526 N   0  0  0  0  0  0  0  0  0  0  0  0
   39.7650    7.8210    1.8064 N   0  0  0  0  0  0  0  0  0  0  0  0
   38.1354    9.9144    5.9374 O   0  0  0  0  0  0  0  0  0  0  0  0
   39.8975   12.0966    5.5017 O   0  0  0  0  0  0  0  0  0  0  0  0
  1  2  1  0  0  0  0
  1 12  1  1  0  0  0
  1 13  1  0  0  0  0
  2  3  1  0  0  0  0
  2 10  1  6  0  0  0
  4  3  1  6  0  0  0
  4  5  1  0  0  0  0
  4 14  1  0  0  0  0
  5  6  1  0  0  0  0
  5 13  1  6  0  0  0
  6  7  1  0  0  0  0
  6 15  1  1  0  0  0
  7  8  1  0  0  0  0
  7 11  1  1  0  0  0
  8 14  1  0  0  0  0
  8 16  1  1  0  0  0
  9 11  1  0  0  0  0
 17 16  1  6  0  0  0
 17 18  1  0  0  0  0
 17 24  1  0  0  0  0
 18 19  1  0  0  0  0
 18 25  1  6  0  0  0
 19 20  1  0  0  0  0
 19 26  1  1  0  0  0
 20 21  1  0  0  0  0
 20 23  1  1  0  0  0
 21 22  1  1  0  0  0
 21 24  1  0  0  0  0
 22 27  1  0  0  0  0
 28 12  1  1  0  0  0
 28 29  1  0  0  0  0
 28 33  1  0  0  0  0
 29 30  1  0  0  0  0
 29 36  1  1  0  0  0
 30 31  1  0  0  0  0
 30 37  1  1  0  0  0
 31 32  1  0  0  0  0
 31 34  1  6  0  0  0
 32 33  1  0  0  0  0
 33 35  1  6  0  0  0
M  END
>  <CHROM.1>
176.27850667,145.65503707,-152.55763455,-169.11139211,179.50728788,-64.15977781
39.33390399,8.35580326,8.82873070,1.31047054,-1.18598396,-1.69599151

>  <Name>
1yrj_lig

>  <RI>
0

>  <Rbt.Current_Directory>
/home/itssahil/PROJECTS/Mol_Feturizer/New_Systems/rnas/1yrj

>  <Rbt.Executable>
rbdock ($Id: //depot/dev/client3/rdock/2013.1/src/exe/rbdock.cxx#4 $)

>  <Rbt.Library>
libRbt.so (2013.1, Build901 2013/11/27)

>  <Rbt.Parameter_File>
/export/apps/rDock/src/rDock_2013.1_src/data/scripts/dock_solv.prm

>  <Rbt.Receptor>
prm/pocket_docking_7.prm

>  <SCORE>
-18.444

>  <SCORE.INTER>
-11.4251

>  <SCORE.INTER.CONST>
1

>  <SCORE.INTER.POLAR>
-0.870904

>  <SCORE.INTER.ROT>
6

>  <SCORE.INTER.SOLV>
17.2446

>  <SCORE.INTER.VDW>
-18.0619

>  <SCORE.INTER.norm>
-0.308785

>  <SCORE.INTRA>
-7.01891

>  <SCORE.INTRA.DIHEDRAL>
-10.9645

>  <SCORE.INTRA.DIHEDRAL.0>
15.6389

>  <SCORE.INTRA.POLAR>
0

>  <SCORE.INTRA.POLAR.0>
0

>  <SCORE.INTRA.REPUL>
0

>  <SCORE.INTRA.REPUL.0>
0

>  <SCORE.INTRA.SOLV>
-1.45829

>  <SCORE.INTRA.SOLV.lig_0>
-90.9181

>  <SCORE.INTRA.VDW>
-0.807502

>  <SCORE.INTRA.VDW.0>
-3.14158

>  <SCORE.INTRA.norm>
-0.1897

>  <SCORE.RESTR>
0

>  <SCORE.RESTR.CAVITY>
0

>  <SCORE.RESTR.norm>
0

>  <SCORE.SYSTEM>
0

>  <SCORE.SYSTEM.CONST>
0

>  <SCORE.SYSTEM.DIHEDRAL>
0

>  <SCORE.SYSTEM.SOLV>
0

>  <SCORE.SYSTEM.norm>
0

>  <SCORE.heavy>
37

>  <SCORE.norm>
-0.498486

>  <RMSD>
8.330

$$$$
1yrj_lig
 OpenBabel11021811423D
libRbt.so/2013.1/901 2013/11/27
 37 40  0  0  0  0  0  0  0  0999 V2000
   38.3677    7.3418    3.8757 C   0  0  1  0  0  0  0  0  0  0  0  0
   38.6674    5.9873    4.5473 C   0  0  1  0  0  0  0  0  0  0  0  0
   38.0539    5.8987    5.9538 C   0  0  0  0  0  0  0  0  0  0  0  0
   38.5355    7.0916    6.8202 C   0  0  1  0  0  0  0  0  0  0  0  0
   38.1704    8.4224    6.1355 C   0  0  1  0  0  0  0  0  0  0  0  0
   38.6619    9.6244    7.0474 C   0  0  1  0  0  0  0  0  0  0  0  0
   37.9912    9.5349    8.4279 C   0  0  1  0  0  0  0  0  0  0  0  0
   38.3484    8.1632    9.0502 C   0  0  2  0  0  0  0  0  0  0  0  0
   37.4757   11.1063   10.3699 C   0  0  0  0  0  0  0  0  0  0  0  0
   38.2171    4.8536    3.7233 N   0  0  0  0  0  0  0  0  0  0  0  0
   38.4103   10.6928    9.2769 N   0  0  0  0  0  0  0  0  0  0  0  0
   37.0069    7.4737    3.4239 O   0  0  0  0  0  0  0  0  0  0  0  0
   38.7720    8.4305    4.7867 O   0  0  0  0  0  0  0  0  0  0  0  0
   37.9403    7.0732    8.1759 O   0  0  0  0  0  0  0  0  0  0  0  0
   40.0558    9.5205    7.2498 O   0  0  0  0  0  0  0  0  0  0  0  0
   37.7123    7.9697   10.3141 O   0  0  0  0  0  0  0  0  0  0  0  0
   38.0672    6.7176   10.9465 C   0  0  2  0  0  0  0  0  0  0  0  0
   37.5848    6.6123   12.4025 C   0  0  1  0  0  0  0  0  0  0  0  0
   38.3647    7.5888   13.3225 C   0  0  2  0  0  0  0  0  0  0  0  0
   39.8469    7.3065   13.2335 C   0  0  1  0  0  0  0  0  0  0  0  0
   40.3068    7.4491   11.7633 C   0  0  1  0  0  0  0  0  0  0  0  0
   41.7885    7.1327   11.5728 C   0  0  0  0  0  0  0  0  0  0  0  0
   40.5614    8.2531   14.1149 N   0  0  0  0  0  0  0  0  0  0  0  0
   39.5356    6.5244   10.9133 O   0  0  0  0  0  0  0  0  0  0  0  0
   36.1707    6.8546   12.4287 O   0  0  0  0  0  0  0  0  0  0  0  0
   37.9433    7.4114   14.6819 O   0  0  0  0  0  0  0  0  0  0  0  0
   42.1370    7.3225   10.2273 O   0  0  0  0  0  0  0  0  0  0  0  0
   36.5928    8.2793    2.2017 C   0  0  1  0  0  0  0  0  0  0  0  0
   37.7165    9.3035    1.9294 C   0  0  1  0  0  0  0  0  0  0  0  0
   37.4207   10.1337    0.6569 C   0  0  2  0  0  0  0  0  0  0  0  0
   37.2693    9.2029   -0.5522 C   0  0  1  0  0  0  0  0  0  0  0  0
   36.1195    8.1925   -0.3079 C   0  0  0  0  0  0  0  0  0  0  0  0
   36.4404    7.3714    0.9454 C   0  0  2  0  0  0  0  0  0  0  0  0
   36.9757   10.0020   -1.7628 N   0  0  0  0  0  0  0  0  0  0  0  0
   35.3460    6.4222    1.1309 N   0  0  0  0  0  0  0  0  0  0  0  0
   37.8169   10.2034    3.0546 O   0  0  0  0  0  0  0  0  0  0  0  0
   38.5111   11.0542    0.4371 O   0  0  0  0  0  0  0  0  0  0  0  0
  1  2  1  0  0  0  0
  1 12  1  1  0  0  0
  1 13  1  0  0  0  0
  2  3  1  0  0  0  0
  2 10  1  6  0  0  0
  4  3  1  6  0  0  0
  4  5  1  0  0  0  0
  4 14  1  0  0  0  0
  5  6  1  0  0  0  0
  5 13  1  6  0  0  0
  6  7  1  0  0  0  0
  6 15  1  1  0  0  0
  7  8  1  0  0  0  0
  7 11  1  1  0  0  0
  8 14  1  0  0  0  0
  8 16  1  1  0  0  0
  9 11  1  0  0  0  0
 17 16  1  1  0  0  0
 17 18  1  0  0  0  0
 17 24  1  0  0  0  0
 18 19  1  0  0  0  0
 18 25  1  6  0  0  0
 19 20  1  0  0  0  0
 19 26  1  1  0  0  0
 20 21  1  0  0  0  0
 20 23  1  1  0  0  0
 21 22  1  1  0  0  0
 21 24  1  0  0  0  0
 22 27  1  0  0  0  0
 28 12  1  1  0  0  0
 28 29  1  0  0  0  0
 28 33  1  0  0  0  0
 29 30  1  0  0  0  0
 29 36  1  1  0  0  0
 30 31  1  0  0  0  0
 30 37  1  6  0  0  0
 31 32  1  0  0  0  0
 31 34  1  6  0  0  0
 32 33  1  0  0  0  0
 33 35  1  1  0  0  0
M  END
>  <CHROM.1>
-147.98675638,154.69103350,-177.75393429,169.99133691,-178.24099149,-21.89165158
38.25366663,8.08009957,6.87816768,2.08107759,-1.23493388,-0.98930219

>  <Name>
1yrj_lig

>  <RI>
0

>  <Rbt.Current_Directory>
/home/itssahil/PROJECTS/Mol_Feturizer/New_Systems/rnas/1yrj

>  <Rbt.Executable>
rbdock ($Id: //depot/dev/client3/rdock/2013.1/src/exe/rbdock.cxx#4 $)

>  <Rbt.Library>
libRbt.so (2013.1, Build901 2013/11/27)

>  <Rbt.Parameter_File>
/export/apps/rDock/src/rDock_2013.1_src/data/scripts/dock_solv.prm

>  <Rbt.Receptor>
prm/pocket_docking_7.prm

>  <SCORE>
-17.3535

>  <SCORE.INTER>
-15.1041

>  <SCORE.INTER.CONST>
1

>  <SCORE.INTER.POLAR>
-1.51912

>  <SCORE.INTER.ROT>
6

>  <SCORE.INTER.SOLV>
16.8159

>  <SCORE.INTER.VDW>
-18.211

>  <SCORE.INTER.norm>
-0.40822

>  <SCORE.INTRA>
-2.2494

>  <SCORE.INTRA.DIHEDRAL>
-5.5795

>  <SCORE.INTRA.DIHEDRAL.0>
15.6389

>  <SCORE.INTRA.POLAR>
0

>  <SCORE.INTRA.POLAR.0>
0

>  <SCORE.INTRA.REPUL>
0.014323

>  <SCORE.INTRA.REPUL.0>
0

>  <SCORE.INTRA.SOLV>
-1.66825

>  <SCORE.INTRA.SOLV.lig_0>
-90.9181

>  <SCORE.INTRA.VDW>
1.30286

>  <SCORE.INTRA.VDW.0>
-3.14158

>  <SCORE.INTRA.norm>
-0.0607946

>  <SCORE.RESTR>
0

>  <SCORE.RESTR.CAVITY>
0

>  <SCORE.RESTR.norm>
0

>  <SCORE.SYSTEM>
0

>  <SCORE.SYSTEM.CONST>
0

>  <SCORE.SYSTEM.DIHEDRAL>
0

>  <SCORE.SYSTEM.SOLV>
0

>  <SCORE.SYSTEM.norm>
0

>  <SCORE.heavy>
37

>  <SCORE.norm>
-0.469014

>  <RMSD>
8.444

$$$$
1yrj_lig
 OpenBabel11021811423D
libRbt.so/2013.1/901 2013/11/27
 37 40  0  0  0  0  0  0  0  0999 V2000
   38.2646    7.9480    5.0004 C   0  0  1  0  0  0  0  0  0  0  0  0
   37.6061    9.1914    5.6294 C   0  0  1  0  0  0  0  0  0  0  0  0
   38.4981    9.8265    6.7080 C   0  0  0  0  0  0  0  0  0  0  0  0
   38.8736    8.7685    7.7782 C   0  0  1  0  0  0  0  0  0  0  0  0
   39.5732    7.5689    7.1115 C   0  0  1  0  0  0  0  0  0  0  0  0
   39.9577    6.5091    8.2283 C   0  0  1  0  0  0  0  0  0  0  0  0
   40.8902    7.1615    9.2620 C   0  0  1  0  0  0  0  0  0  0  0  0
   40.1609    8.3868    9.8647 C   0  0  2  0  0  0  0  0  0  0  0  0
   42.4093    6.5421   11.2152 C   0  0  0  0  0  0  0  0  0  0  0  0
   37.2427   10.1938    4.6144 N   0  0  0  0  0  0  0  0  0  0  0  0
   41.2980    6.1552   10.2907 N   0  0  0  0  0  0  0  0  0  0  0  0
   39.3432    8.2595    4.0988 O   0  0  0  0  0  0  0  0  0  0  0  0
   38.6724    7.0232    6.0761 O   0  0  0  0  0  0  0  0  0  0  0  0
   39.7665    9.3224    8.8216 O   0  0  0  0  0  0  0  0  0  0  0  0
   38.7905    6.1034    8.9121 O   0  0  0  0  0  0  0  0  0  0  0  0
   40.9837    9.0923   10.7946 O   0  0  0  0  0  0  0  0  0  0  0  0
   40.2304    9.9271   11.7052 C   0  0  2  0  0  0  0  0  0  0  0  0
   41.1136   10.8665   12.5425 C   0  0  1  0  0  0  0  0  0  0  0  0
   41.9590   10.0703   13.5719 C   0  0  2  0  0  0  0  0  0  0  0  0
   41.0500    9.2597   14.4671 C   0  0  1  0  0  0  0  0  0  0  0  0
   40.1970    8.3048   13.5988 C   0  0  1  0  0  0  0  0  0  0  0  0
   39.2110    7.4782   14.4212 C   0  0  0  0  0  0  0  0  0  0  0  0
   41.8825    8.5108   15.4312 N   0  0  0  0  0  0  0  0  0  0  0  0
   39.4217    9.0881   12.6201 O   0  0  0  0  0  0  0  0  0  0  0  0
   41.9308   11.6353   11.6479 O   0  0  0  0  0  0  0  0  0  0  0  0
   42.7126   10.9806   14.3845 O   0  0  0  0  0  0  0  0  0  0  0  0
   38.3308    8.3372   15.0958 O   0  0  0  0  0  0  0  0  0  0  0  0
   39.2531    8.1189    2.5867 C   0  0  1  0  0  0  0  0  0  0  0  0
   38.7526    6.6876    2.2918 C   0  0  1  0  0  0  0  0  0  0  0  0
   38.5618    6.4636    0.7721 C   0  0  2  0  0  0  0  0  0  0  0  0
   37.5618    7.4832    0.2140 C   0  0  1  0  0  0  0  0  0  0  0  0
   38.0696    8.9251    0.4704 C   0  0  0  0  0  0  0  0  0  0  0  0
   38.2357    9.1300    1.9798 C   0  0  2  0  0  0  0  0  0  0  0  0
   37.3925    7.2706   -1.2409 N   0  0  0  0  0  0  0  0  0  0  0  0
   38.6967   10.5011    2.1806 N   0  0  0  0  0  0  0  0  0  0  0  0
   39.7255    5.7382    2.7796 O   0  0  0  0  0  0  0  0  0  0  0  0
   38.0711    5.1229    0.5567 O   0  0  0  0  0  0  0  0  0  0  0  0
  1  2  1  0  0  0  0
  1 12  1  1  0  0  0
  1 13  1  0  0  0  0
  2  3  1  0  0  0  0
  2 10  1  6  0  0  0
  4  3  1  6  0  0  0
  4  5  1  0  0  0  0
  4 14  1  0  0  0  0
  5  6  1  0  0  0  0
  5 13  1  6  0  0  0
  6  7  1  0  0  0  0
  6 15  1  1  0  0  0
  7  8  1  0  0  0  0
  7 11  1  1  0  0  0
  8 14  1  0  0  0  0
  8 16  1  1  0  0  0
  9 11  1  0  0  0  0
 17 16  1  1  0  0  0
 17 18  1  0  0  0  0
 17 24  1  0  0  0  0
 18 19  1  0  0  0  0
 18 25  1  6  0  0  0
 19 20  1  0  0  0  0
 19 26  1  1  0  0  0
 20 21  1  0  0  0  0
 20 23  1  1  0  0  0
 21 22  1  1  0  0  0
 21 24  1  0  0  0  0
 22 27  1  0  0  0  0
 28 12  1  1  0  0  0
 28 29  1  0  0  0  0
 28 33  1  0  0  0  0
 29 30  1  0  0  0  0
 29 36  1  6  0  0  0
 30 31  1  0  0  0  0
 30 37  1  1  0  0  0
 31 32  1  0  0  0  0
 31 34  1  6  0  0  0
 32 33  1  0  0  0  0
 33 35  1  6  0  0  0
M  END
>  <CHROM.1>
-107.70168703,168.38140584,-159.73773898,-170.11375018,60.28381052,-52.02062198
39.60175819,8.31569716,7.79933436,2.98830582,1.35174932,-3.11068194

>  <Name>
1yrj_lig

>  <RI>
0

>  <Rbt.Current_Directory>
/home/itssahil/PROJECTS/Mol_Feturizer/New_Systems/rnas/1yrj

>  <Rbt.Executable>
rbdock ($Id: //depot/dev/client3/rdock/2013.1/src/exe/rbdock.cxx#4 $)

>  <Rbt.Library>
libRbt.so (2013.1, Build901 2013/11/27)

>  <Rbt.Parameter_File>
/export/apps/rDock/src/rDock_2013.1_src/data/scripts/dock_solv.prm

>  <Rbt.Receptor>
prm/pocket_docking_8.prm

>  <SCORE>
-10.9212

>  <SCORE.INTER>
-9.09397

>  <SCORE.INTER.CONST>
1

>  <SCORE.INTER.POLAR>
-1.63396

>  <SCORE.INTER.ROT>
6

>  <SCORE.INTER.SOLV>
15.2792

>  <SCORE.INTER.VDW>
-13.3092

>  <SCORE.INTER.norm>
-0.245783

>  <SCORE.INTRA>
-1.82728

>  <SCORE.INTRA.DIHEDRAL>
-6.44944

>  <SCORE.INTRA.DIHEDRAL.0>
15.6389

>  <SCORE.INTRA.POLAR>
0

>  <SCORE.INTRA.POLAR.0>
0

>  <SCORE.INTRA.REPUL>
0

>  <SCORE.INTRA.REPUL.0>
0

>  <SCORE.INTRA.SOLV>
2.40612

>  <SCORE.INTRA.SOLV.lig_0>
-90.9181

>  <SCORE.INTRA.VDW>
0.194385

>  <SCORE.INTRA.VDW.0>
-3.14158

>  <SCORE.INTRA.norm>
-0.0493858

>  <SCORE.RESTR>
0

>  <SCORE.RESTR.CAVITY>
0

>  <SCORE.RESTR.norm>
0

>  <SCORE.SYSTEM>
0

>  <SCORE.SYSTEM.CONST>
0

>  <SCORE.SYSTEM.DIHEDRAL>
0

>  <SCORE.SYSTEM.SOLV>
0

>  <SCORE.SYSTEM.norm>
0

>  <SCORE.heavy>
37

>  <SCORE.norm>
-0.295169

>  <RMSD>
8.647

$$$$
1yrj_lig
 OpenBabel11021811423D
libRbt.so/2013.1/901 2013/11/27
 37 40  0  0  0  0  0  0  0  0999 V2000
   42.1591   -2.7289    9.7365 C   0  0  1  0  0  0  0  0  0  0  0  0
   42.9241   -2.5207   11.0582 C   0  0  1  0  0  0  0  0  0  0  0  0
   43.8693   -1.3108   10.9868 C   0  0  0  0  0  0  0  0  0  0  0  0
   44.8320   -1.4585    9.7797 C   0  0  1  0  0  0  0  0  0  0  0  0
   44.0248   -1.6130    8.4768 C   0  0  1  0  0  0  0  0  0  0  0  0
   45.0321   -1.7489    7.2582 C   0  0  1  0  0  0  0  0  0  0  0  0
   45.9271   -0.5012    7.1846 C   0  0  1  0  0  0  0  0  0  0  0  0
   46.6767   -0.3645    8.5321 C   0  0  2  0  0  0  0  0  0  0  0  0
   47.2894    0.6878    5.3854 C   0  0  0  0  0  0  0  0  0  0  0  0
   42.0121   -2.3871   12.2060 N   0  0  0  0  0  0  0  0  0  0  0  0
   46.8456   -0.5985    6.0080 N   0  0  0  0  0  0  0  0  0  0  0  0
   41.1099   -1.7671    9.5188 O   0  0  0  0  0  0  0  0  0  0  0  0
   43.1266   -2.7762    8.6227 O   0  0  0  0  0  0  0  0  0  0  0  0
   45.7397   -0.2964    9.6441 O   0  0  0  0  0  0  0  0  0  0  0  0
   45.8772   -2.8606    7.4695 O   0  0  0  0  0  0  0  0  0  0  0  0
   47.4883    0.8099    8.5736 O   0  0  0  0  0  0  0  0  0  0  0  0
   48.3914    0.8405    9.7037 C   0  0  2  0  0  0  0  0  0  0  0  0
   49.1178    2.1857    9.8665 C   0  0  1  0  0  0  0  0  0  0  0  0
   50.1401    2.4122    8.7212 C   0  0  2  0  0  0  0  0  0  0  0  0
   51.1340    1.2740    8.6862 C   0  0  1  0  0  0  0  0  0  0  0  0
   50.3759   -0.0605    8.4919 C   0  0  1  0  0  0  0  0  0  0  0  0
   51.3029   -1.2740    8.4933 C   0  0  0  0  0  0  0  0  0  0  0  0
   52.0893    1.5152    7.5849 N   0  0  0  0  0  0  0  0  0  0  0  0
   49.4007   -0.2372    9.5829 O   0  0  0  0  0  0  0  0  0  0  0  0
   48.1323    3.2269    9.9281 O   0  0  0  0  0  0  0  0  0  0  0  0
   50.8513    3.6374    8.9444 O   0  0  0  0  0  0  0  0  0  0  0  0
   52.1480   -1.2170    7.3751 O   0  0  0  0  0  0  0  0  0  0  0  0
   40.1257   -1.8321    8.3606 C   0  0  1  0  0  0  0  0  0  0  0  0
   39.4257   -0.4576    8.2805 C   0  0  1  0  0  0  0  0  0  0  0  0
   38.4458   -0.3976    7.0836 C   0  0  2  0  0  0  0  0  0  0  0  0
   39.1993   -0.6678    5.7759 C   0  0  1  0  0  0  0  0  0  0  0  0
   39.8769   -2.0610    5.8278 C   0  0  0  0  0  0  0  0  0  0  0  0
   40.8532   -2.0927    7.0083 C   0  0  2  0  0  0  0  0  0  0  0  0
   38.2550   -0.6200    4.6373 N   0  0  0  0  0  0  0  0  0  0  0  0
   41.4822   -3.4108    7.0124 N   0  0  0  0  0  0  0  0  0  0  0  0
   38.6811   -0.2360    9.4981 O   0  0  0  0  0  0  0  0  0  0  0  0
   37.8405    0.9126    7.0423 O   0  0  0  0  0  0  0  0  0  0  0  0
  1  2  1  0  0  0  0
  1 12  1  6  0  0  0
  1 13  1  0  0  0  0
  2  3  1  0  0  0  0
  2 10  1  1  0  0  0
  4  3  1  1  0  0  0
  4  5  1  0  0  0  0
  4 14  1  0  0  0  0
  5  6  1  0  0  0  0
  5 13  1  1  0  0  0
  6  7  1  0  0  0  0
  6 15  1  1  0  0  0
  7  8  1  0  0  0  0
  7 11  1  6  0  0  0
  8 14  1  0  0  0  0
  8 16  1  6  0  0  0
  9 11  1  0  0  0  0
 17 16  1  6  0  0  0
 17 18  1  0  0  0  0
 17 24  1  0  0  0  0
 18 19  1  0  0  0  0
 18 25  1  6  0  0  0
 19 20  1  0  0  0  0
 19 26  1  1  0  0  0
 20 21  1  0  0  0  0
 20 23  1  6  0  0  0
 21 22  1  1  0  0  0
 21 24  1  0  0  0  0
 22 27  1  0  0  0  0
 28 12  1  1  0  0  0
 28 29  1  0  0  0  0
 28 33  1  0  0  0  0
 29 30  1  0  0  0  0
 29 36  1  1  0  0  0
 30 31  1  0  0  0  0
 30 37  1  6  0  0  0
 31 32  1  0  0  0  0
 31 34  1  6  0  0  0
 32 33  1  0  0  0  0
 33 35  1  1  0  0  0
M  END
>  <CHROM.1>
-173.96567446,151.37022483,-168.96425120,-171.65193199,-65.58905630,-165.59895649
44.96200444,-0.51753720,8.34072580,-3.13911999,-0.22157580,-1.21634131

>  <Name>
1yrj_lig

>  <RI>
0

>  <Rbt.Current_Directory>
/home/itssahil/PROJECTS/Mol_Feturizer/New_Systems/rnas/1yrj

>  <Rbt.Executable>
rbdock ($Id: //depot/dev/client3/rdock/2013.1/src/exe/rbdock.cxx#4 $)

>  <Rbt.Library>
libRbt.so (2013.1, Build901 2013/11/27)

>  <Rbt.Parameter_File>
/export/apps/rDock/src/rDock_2013.1_src/data/scripts/dock_solv.prm

>  <Rbt.Receptor>
prm/pocket_docking_8.prm

>  <SCORE>
-10.3939

>  <SCORE.INTER>
-6.08383

>  <SCORE.INTER.CONST>
1

>  <SCORE.INTER.POLAR>
-1.61554

>  <SCORE.INTER.ROT>
6

>  <SCORE.INTER.SOLV>
15.0413

>  <SCORE.INTER.VDW>
-11.2845

>  <SCORE.INTER.norm>
-0.164428

>  <SCORE.INTRA>
-4.31297

>  <SCORE.INTRA.DIHEDRAL>
-12.7897

>  <SCORE.INTRA.DIHEDRAL.0>
15.6389

>  <SCORE.INTRA.POLAR>
0

>  <SCORE.INTRA.POLAR.0>
0

>  <SCORE.INTRA.REPUL>
0

>  <SCORE.INTRA.REPUL.0>
0

>  <SCORE.INTRA.SOLV>
1.17826

>  <SCORE.INTRA.SOLV.lig_0>
-90.9181

>  <SCORE.INTRA.VDW>
1.49275

>  <SCORE.INTRA.VDW.0>
-3.14158

>  <SCORE.INTRA.norm>
-0.116567

>  <SCORE.RESTR>
0.00289995

>  <SCORE.RESTR.CAVITY>
0.00289995

>  <SCORE.RESTR.norm>
7.83771e-05

>  <SCORE.SYSTEM>
0

>  <SCORE.SYSTEM.CONST>
0

>  <SCORE.SYSTEM.DIHEDRAL>
0

>  <SCORE.SYSTEM.SOLV>
0

>  <SCORE.SYSTEM.norm>
0

>  <SCORE.heavy>
37

>  <SCORE.norm>
-0.280916

>  <RMSD>
8.655

$$$$
1yrj_lig
 OpenBabel11021811423D
libRbt.so/2013.1/901 2013/11/27
 37 40  0  0  0  0  0  0  0  0999 V2000
   38.2185    7.0382    3.9542 C   0  0  1  0  0  0  0  0  0  0  0  0
   37.0355    7.9579    4.3148 C   0  0  1  0  0  0  0  0  0  0  0  0
   37.3353    8.8147    5.5552 C   0  0  0  0  0  0  0  0  0  0  0  0
   37.7426    7.9054    6.7438 C   0  0  1  0  0  0  0  0  0  0  0  0
   38.9580    7.0422    6.3555 C   0  0  1  0  0  0  0  0  0  0  0  0
   39.3615    6.1325    7.5915 C   0  0  1  0  0  0  0  0  0  0  0  0
   39.7040    7.0210    8.7984 C   0  0  1  0  0  0  0  0  0  0  0  0
   38.4704    7.9007    9.1159 C   0  0  2  0  0  0  0  0  0  0  0  0
   41.1761    6.7434   10.8629 C   0  0  0  0  0  0  0  0  0  0  0  0
   36.6430    8.8169    3.1856 N   0  0  0  0  0  0  0  0  0  0  0  0
   40.1342    6.1729    9.9529 N   0  0  0  0  0  0  0  0  0  0  0  0
   39.3291    7.7332    3.3570 O   0  0  0  0  0  0  0  0  0  0  0  0
   38.6085    6.2648    5.1494 O   0  0  0  0  0  0  0  0  0  0  0  0
   38.0800    8.6876    7.9550 O   0  0  0  0  0  0  0  0  0  0  0  0
   38.2614    5.3276    7.9608 O   0  0  0  0  0  0  0  0  0  0  0  0
   38.7241    8.8061   10.1908 O   0  0  0  0  0  0  0  0  0  0  0  0
   37.5529    9.5519   10.5980 C   0  0  2  0  0  0  0  0  0  0  0  0
   37.8885   10.8476   11.3545 C   0  0  1  0  0  0  0  0  0  0  0  0
   38.4896   10.5402   12.7518 C   0  0  2  0  0  0  0  0  0  0  0  0
   37.5258    9.6940   13.5516 C   0  0  1  0  0  0  0  0  0  0  0  0
   37.2314    8.3864   12.7789 C   0  0  1  0  0  0  0  0  0  0  0  0
   36.2245    7.4891   13.4950 C   0  0  0  0  0  0  0  0  0  0  0  0
   38.1268    9.4147   14.8723 N   0  0  0  0  0  0  0  0  0  0  0  0
   36.6807    8.7114   11.4510 O   0  0  0  0  0  0  0  0  0  0  0  0
   38.7765   11.6285   10.5417 O   0  0  0  0  0  0  0  0  0  0  0  0
   38.7204   11.7669   13.4583 O   0  0  0  0  0  0  0  0  0  0  0  0
   35.8848    6.4121   12.6628 O   0  0  0  0  0  0  0  0  0  0  0  0
   39.4918    9.2457    3.3733 C   0  0  1  0  0  0  0  0  0  0  0  0
   40.7947    9.5550    4.1432 C   0  0  1  0  0  0  0  0  0  0  0  0
   41.0881   11.0749    4.1585 C   0  0  2  0  0  0  0  0  0  0  0  0
   41.2020   11.6008    2.7228 C   0  0  1  0  0  0  0  0  0  0  0  0
   39.8867   11.3298    1.9486 C   0  0  0  0  0  0  0  0  0  0  0  0
   39.6245    9.8202    1.9318 C   0  0  2  0  0  0  0  0  0  0  0  0
   41.4714   13.0559    2.7447 N   0  0  0  0  0  0  0  0  0  0  0  0
   38.3907    9.6053    1.1806 N   0  0  0  0  0  0  0  0  0  0  0  0
   40.6568    9.0978    5.5062 O   0  0  0  0  0  0  0  0  0  0  0  0
   42.3252   11.3034    4.8670 O   0  0  0  0  0  0  0  0  0  0  0  0
  1  2  1  0  0  0  0
  1 12  1  1  0  0  0
  1 13  1  0  0  0  0
  2  3  1  0  0  0  0
  2 10  1  6  0  0  0
  4  3  1  6  0  0  0
  4  5  1  0  0  0  0
  4 14  1  0  0  0  0
  5  6  1  0  0  0  0
  5 13  1  6  0  0  0
  6  7  1  0  0  0  0
  6 15  1  1  0  0  0
  7  8  1  0  0  0  0
  7 11  1  1  0  0  0
  8 14  1  0  0  0  0
  8 16  1  1  0  0  0
  9 11  1  0  0  0  0
 17 16  1  1  0  0  0
 17 18  1  0  0  0  0
 17 24  1  0  0  0  0
 18 19  1  0  0  0  0
 18 25  1  6  0  0  0
 19 20  1  0  0  0  0
 19 26  1  1  0  0  0
 20 21  1  0  0  0  0
 20 23  1  1  0  0  0
 21 22  1  1  0  0  0
 21 24  1  0  0  0  0
 22 27  1  0  0  0  0
 28 12  1  6  0  0  0
 28 29  1  0  0  0  0
 28 33  1  0  0  0  0
 29 30  1  0  0  0  0
 29 36  1  1  0  0  0
 30 31  1  0  0  0  0
 30 37  1  1  0  0  0
 31 32  1  0  0  0  0
 31 34  1  1  0  0  0
 32 33  1  0  0  0  0
 33 35  1  6  0  0  0
M  END
>  <CHROM.1>
14.04590724,146.41871878,-174.37419754,-158.89491780,172.72881994,118.31706543
38.80599464,8.86612000,7.65008329,1.07192638,-1.14164096,-1.93088832

>  <Name>
1yrj_lig

>  <RI>
0

>  <Rbt.Current_Directory>
/home/itssahil/PROJECTS/Mol_Feturizer/New_Systems/rnas/1yrj

>  <Rbt.Executable>
rbdock ($Id: //depot/dev/client3/rdock/2013.1/src/exe/rbdock.cxx#4 $)

>  <Rbt.Library>
libRbt.so (2013.1, Build901 2013/11/27)

>  <Rbt.Parameter_File>
/export/apps/rDock/src/rDock_2013.1_src/data/scripts/dock_solv.prm

>  <Rbt.Receptor>
prm/pocket_docking_6.prm

>  <SCORE>
-11.5303

>  <SCORE.INTER>
-13.3702

>  <SCORE.INTER.CONST>
1

>  <SCORE.INTER.POLAR>
-1.1748

>  <SCORE.INTER.ROT>
6

>  <SCORE.INTER.SOLV>
17.0529

>  <SCORE.INTER.VDW>
-18.2817

>  <SCORE.INTER.norm>
-0.361356

>  <SCORE.INTRA>
1.83988

>  <SCORE.INTRA.DIHEDRAL>
0.819432

>  <SCORE.INTRA.DIHEDRAL.0>
15.6389

>  <SCORE.INTRA.POLAR>
0

>  <SCORE.INTRA.POLAR.0>
0

>  <SCORE.INTRA.REPUL>
0

>  <SCORE.INTRA.REPUL.0>
0

>  <SCORE.INTRA.SOLV>
2.73225

>  <SCORE.INTRA.SOLV.lig_0>
-90.9181

>  <SCORE.INTRA.VDW>
0.0640368

>  <SCORE.INTRA.VDW.0>
-3.14158

>  <SCORE.INTRA.norm>
0.0497264

>  <SCORE.RESTR>
0

>  <SCORE.RESTR.CAVITY>
0

>  <SCORE.RESTR.norm>
0

>  <SCORE.SYSTEM>
0

>  <SCORE.SYSTEM.CONST>
0

>  <SCORE.SYSTEM.DIHEDRAL>
0

>  <SCORE.SYSTEM.SOLV>
0

>  <SCORE.SYSTEM.norm>
0

>  <SCORE.heavy>
37

>  <SCORE.norm>
-0.311629

>  <RMSD>
8.843

$$$$
1yrj_lig
 OpenBabel11021811423D
libRbt.so/2013.1/901 2013/11/27
 37 40  0  0  0  0  0  0  0  0999 V2000
   39.6454   10.1556    2.2556 C   0  0  1  0  0  0  0  0  0  0  0  0
   39.9786    8.6536    2.3466 C   0  0  1  0  0  0  0  0  0  0  0  0
   39.7086    8.0925    3.7519 C   0  0  0  0  0  0  0  0  0  0  0  0
   40.4806    8.9202    4.8123 C   0  0  1  0  0  0  0  0  0  0  0  0
   40.0790   10.4044    4.7180 C   0  0  1  0  0  0  0  0  0  0  0  0
   40.8720   11.2252    5.8204 C   0  0  1  0  0  0  0  0  0  0  0  0
   40.5405   10.6721    7.2160 C   0  0  1  0  0  0  0  0  0  0  0  0
   40.9163    9.1706    7.2421 C   0  0  2  0  0  0  0  0  0  0  0  0
   40.6031   11.5365    9.6151 C   0  0  0  0  0  0  0  0  0  0  0  0
   39.2520    7.8672    1.3364 N   0  0  0  0  0  0  0  0  0  0  0  0
   41.2449   11.4729    8.2648 N   0  0  0  0  0  0  0  0  0  0  0  0
   38.2328   10.4332    2.2286 O   0  0  0  0  0  0  0  0  0  0  0  0
   40.3442   10.8702    3.3418 O   0  0  0  0  0  0  0  0  0  0  0  0
   40.2224    8.4424    6.1899 O   0  0  0  0  0  0  0  0  0  0  0  0
   42.2603   11.0588    5.6212 O   0  0  0  0  0  0  0  0  0  0  0  0
   40.5819    8.5593    8.4887 O   0  0  0  0  0  0  0  0  0  0  0  0
   41.2769    7.3110    8.7174 C   0  0  2  0  0  0  0  0  0  0  0  0
   40.3364    6.0982    8.8090 C   0  0  1  0  0  0  0  0  0  0  0  0
   39.4802    6.1502   10.1022 C   0  0  2  0  0  0  0  0  0  0  0  0
   40.3816    6.2145   11.3138 C   0  0  1  0  0  0  0  0  0  0  0  0
   41.2936    7.4597   11.2066 C   0  0  1  0  0  0  0  0  0  0  0  0
   42.2749    7.5772   12.3706 C   0  0  0  0  0  0  0  0  0  0  0  0
   39.5392    6.2677   12.5266 N   0  0  0  0  0  0  0  0  0  0  0  0
   42.0783    7.3906    9.9608 O   0  0  0  0  0  0  0  0  0  0  0  0
   39.5280    6.0626    7.6240 O   0  0  0  0  0  0  0  0  0  0  0  0
   38.6710    4.9696   10.1930 O   0  0  0  0  0  0  0  0  0  0  0  0
   41.5629    7.7737   13.5632 O   0  0  0  0  0  0  0  0  0  0  0  0
   37.3032    9.9959    1.1066 C   0  0  1  0  0  0  0  0  0  0  0  0
   35.8788    9.9199    1.6994 C   0  0  1  0  0  0  0  0  0  0  0  0
   34.8404    9.5456    0.6141 C   0  0  2  0  0  0  0  0  0  0  0  0
   34.8714   10.5783   -0.5188 C   0  0  1  0  0  0  0  0  0  0  0  0
   36.2868   10.6387   -1.1480 C   0  0  0  0  0  0  0  0  0  0  0  0
   37.2952   11.0262   -0.0613 C   0  0  2  0  0  0  0  0  0  0  0  0
   33.8845   10.2083   -1.5578 N   0  0  0  0  0  0  0  0  0  0  0  0
   38.6092   11.0898   -0.6953 N   0  0  0  0  0  0  0  0  0  0  0  0
   35.8511    8.9108    2.7322 O   0  0  0  0  0  0  0  0  0  0  0  0
   33.5284    9.5133    1.2161 O   0  0  0  0  0  0  0  0  0  0  0  0
  1  2  1  0  0  0  0
  1 12  1  1  0  0  0
  1 13  1  0  0  0  0
  2  3  1  0  0  0  0
  2 10  1  6  0  0  0
  4  3  1  6  0  0  0
  4  5  1  0  0  0  0
  4 14  1  0  0  0  0
  5  6  1  0  0  0  0
  5 13  1  6  0  0  0
  6  7  1  0  0  0  0
  6 15  1  6  0  0  0
  7  8  1  0  0  0  0
  7 11  1  1  0  0  0
  8 14  1  0  0  0  0
  8 16  1  1  0  0  0
  9 11  1  0  0  0  0
 17 16  1  1  0  0  0
 17 18  1  0  0  0  0
 17 24  1  0  0  0  0
 18 19  1  0  0  0  0
 18 25  1  6  0  0  0
 19 20  1  0  0  0  0
 19 26  1  1  0  0  0
 20 21  1  0  0  0  0
 20 23  1  1  0  0  0
 21 22  1  1  0  0  0
 21 24  1  0  0  0  0
 22 27  1  0  0  0  0
 28 12  1  1  0  0  0
 28 29  1  0  0  0  0
 28 33  1  0  0  0  0
 29 30  1  0  0  0  0
 29 36  1  1  0  0  0
 30 31  1  0  0  0  0
 30 37  1  1  0  0  0
 31 32  1  0  0  0  0
 31 34  1  6  0  0  0
 32 33  1  0  0  0  0
 33 35  1  6  0  0  0
M  END
>  <CHROM.1>
-64.41668077,152.24812762,-161.58522473,-116.50592012,-64.48390983,155.84573896
39.19306720,8.96454521,5.54729165,-2.06057626,0.60766874,2.11963547

>  <Name>
1yrj_lig

>  <RI>
0

>  <Rbt.Current_Directory>
/home/itssahil/PROJECTS/Mol_Feturizer/New_Systems/rnas/1yrj

>  <Rbt.Executable>
rbdock ($Id: //depot/dev/client3/rdock/2013.1/src/exe/rbdock.cxx#4 $)

>  <Rbt.Library>
libRbt.so (2013.1, Build901 2013/11/27)

>  <Rbt.Parameter_File>
/export/apps/rDock/src/rDock_2013.1_src/data/scripts/dock_solv.prm

>  <Rbt.Receptor>
prm/pocket_docking_7.prm

>  <SCORE>
-17.2626

>  <SCORE.INTER>
-16.1168

>  <SCORE.INTER.CONST>
1

>  <SCORE.INTER.POLAR>
-1.83556

>  <SCORE.INTER.ROT>
6

>  <SCORE.INTER.SOLV>
11.9399

>  <SCORE.INTER.VDW>
-16.206

>  <SCORE.INTER.norm>
-0.435589

>  <SCORE.INTRA>
-1.14849

>  <SCORE.INTRA.DIHEDRAL>
-3.6741

>  <SCORE.INTRA.DIHEDRAL.0>
15.6389

>  <SCORE.INTRA.POLAR>
0

>  <SCORE.INTRA.POLAR.0>
0

>  <SCORE.INTRA.REPUL>
0

>  <SCORE.INTRA.REPUL.0>
0

>  <SCORE.INTRA.SOLV>
1.81129

>  <SCORE.INTRA.SOLV.lig_0>
-90.9181

>  <SCORE.INTRA.VDW>
-0.217084

>  <SCORE.INTRA.VDW.0>
-3.14158

>  <SCORE.INTRA.norm>
-0.0310402

>  <SCORE.RESTR>
0.00270221

>  <SCORE.RESTR.CAVITY>
0.00270221

>  <SCORE.RESTR.norm>
7.30327e-05

>  <SCORE.SYSTEM>
0

>  <SCORE.SYSTEM.CONST>
0

>  <SCORE.SYSTEM.DIHEDRAL>
0

>  <SCORE.SYSTEM.SOLV>
0

>  <SCORE.SYSTEM.norm>
0

>  <SCORE.heavy>
37

>  <SCORE.norm>
-0.466556

>  <RMSD>
8.859

$$$$
1yrj_lig
 OpenBabel11021811423D
libRbt.so/2013.1/901 2013/11/27
 37 40  0  0  0  0  0  0  0  0999 V2000
   39.0290    9.6732    1.9965 C   0  0  1  0  0  0  0  0  0  0  0  0
   40.2430    8.7550    2.2383 C   0  0  1  0  0  0  0  0  0  0  0  0
   40.1570    8.0397    3.5959 C   0  0  0  0  0  0  0  0  0  0  0  0
   39.9832    9.0786    4.7344 C   0  0  1  0  0  0  0  0  0  0  0  0
   38.7315    9.9388    4.4772 C   0  0  1  0  0  0  0  0  0  0  0  0
   38.5700   10.9829    5.6612 C   0  0  1  0  0  0  0  0  0  0  0  0
   38.4354   10.2340    6.9971 C   0  0  1  0  0  0  0  0  0  0  0  0
   39.6921    9.3495    7.1835 C   0  0  2  0  0  0  0  0  0  0  0  0
   37.3691   10.7668    9.2522 C   0  0  0  0  0  0  0  0  0  0  0  0
   40.4136    7.7727    1.1552 N   0  0  0  0  0  0  0  0  0  0  0  0
   38.2321   11.2094    8.1127 N   0  0  0  0  0  0  0  0  0  0  0  0
   37.8187    8.9595    1.6819 O   0  0  0  0  0  0  0  0  0  0  0  0
   38.8713   10.5771    3.1527 O   0  0  0  0  0  0  0  0  0  0  0  0
   39.8561    8.4357    6.0622 O   0  0  0  0  0  0  0  0  0  0  0  0
   39.7308   11.7831    5.7430 O   0  0  0  0  0  0  0  0  0  0  0  0
   39.6210    8.5674    8.3763 O   0  0  0  0  0  0  0  0  0  0  0  0
   38.3188    7.9758    8.5948 C   0  0  2  0  0  0  0  0  0  0  0  0
   38.2465    7.1146    9.8663 C   0  0  1  0  0  0  0  0  0  0  0  0
   39.0887    5.8201    9.7143 C   0  0  2  0  0  0  0  0  0  0  0  0
   38.6122    5.0343    8.5142 C   0  0  1  0  0  0  0  0  0  0  0  0
   38.7248    5.9166    7.2483 C   0  0  1  0  0  0  0  0  0  0  0  0
   38.2169    5.2154    5.9905 C   0  0  0  0  0  0  0  0  0  0  0  0
   39.4345    3.8126    8.3932 N   0  0  0  0  0  0  0  0  0  0  0  0
   37.9312    7.1451    7.4310 O   0  0  0  0  0  0  0  0  0  0  0  0
   38.6756    7.9136   10.9783 O   0  0  0  0  0  0  0  0  0  0  0  0
   38.9390    5.0065   10.8859 O   0  0  0  0  0  0  0  0  0  0  0  0
   38.9337    4.0250    5.7981 O   0  0  0  0  0  0  0  0  0  0  0  0
   36.7540    9.4744    0.7250 C   0  0  1  0  0  0  0  0  0  0  0  0
   35.3817    9.1802    1.3701 C   0  0  1  0  0  0  0  0  0  0  0  0
   34.2251    9.7293    0.5001 C   0  0  2  0  0  0  0  0  0  0  0  0
   34.3884   11.2415    0.3058 C   0  0  1  0  0  0  0  0  0  0  0  0
   35.7466   11.5492   -0.3749 C   0  0  0  0  0  0  0  0  0  0  0  0
   36.8764   11.0121    0.5100 C   0  0  2  0  0  0  0  0  0  0  0  0
   33.2859   11.7580   -0.5357 N   0  0  0  0  0  0  0  0  0  0  0  0
   38.1357   11.3363   -0.1547 N   0  0  0  0  0  0  0  0  0  0  0  0
   35.2203    7.7512    1.5038 O   0  0  0  0  0  0  0  0  0  0  0  0
   32.9719    9.4494    1.1602 O   0  0  0  0  0  0  0  0  0  0  0  0
  1  2  1  0  0  0  0
  1 12  1  1  0  0  0
  1 13  1  0  0  0  0
  2  3  1  0  0  0  0
  2 10  1  6  0  0  0
  4  3  1  6  0  0  0
  4  5  1  0  0  0  0
  4 14  1  0  0  0  0
  5  6  1  0  0  0  0
  5 13  1  6  0  0  0
  6  7  1  0  0  0  0
  6 15  1  1  0  0  0
  7  8  1  0  0  0  0
  7 11  1  1  0  0  0
  8 14  1  0  0  0  0
  8 16  1  1  0  0  0
  9 11  1  0  0  0  0
 17 16  1  6  0  0  0
 17 18  1  0  0  0  0
 17 24  1  0  0  0  0
 18 19  1  0  0  0  0
 18 25  1  1  0  0  0
 19 20  1  0  0  0  0
 19 26  1  1  0  0  0
 20 21  1  0  0  0  0
 20 23  1  6  0  0  0
 21 22  1  6  0  0  0
 21 24  1  0  0  0  0
 22 27  1  0  0  0  0
 28 12  1  1  0  0  0
 28 29  1  0  0  0  0
 28 33  1  0  0  0  0
 29 30  1  0  0  0  0
 29 36  1  6  0  0  0
 30 31  1  0  0  0  0
 30 37  1  1  0  0  0
 31 32  1  0  0  0  0
 31 34  1  6  0  0  0
 32 33  1  0  0  0  0
 33 35  1  6  0  0  0
M  END
>  <CHROM.1>
-145.67806436,146.83792133,42.73114745,179.05389495,-57.77447574,-137.59302999
37.97185541,8.66753056,4.88148887,-2.77858455,1.23044793,-3.12066104

>  <Name>
1yrj_lig

>  <RI>
0

>  <Rbt.Current_Directory>
/home/itssahil/PROJECTS/Mol_Feturizer/New_Systems/rnas/1yrj

>  <Rbt.Executable>
rbdock ($Id: //depot/dev/client3/rdock/2013.1/src/exe/rbdock.cxx#4 $)

>  <Rbt.Library>
libRbt.so (2013.1, Build901 2013/11/27)

>  <Rbt.Parameter_File>
/export/apps/rDock/src/rDock_2013.1_src/data/scripts/dock_solv.prm

>  <Rbt.Receptor>
prm/pocket_docking_6.prm

>  <SCORE>
-12.5677

>  <SCORE.INTER>
-14.5019

>  <SCORE.INTER.CONST>
1

>  <SCORE.INTER.POLAR>
-1.38313

>  <SCORE.INTER.ROT>
6

>  <SCORE.INTER.SOLV>
18.2901

>  <SCORE.INTER.VDW>
-18.7542

>  <SCORE.INTER.norm>
-0.391943

>  <SCORE.INTRA>
1.17655

>  <SCORE.INTRA.DIHEDRAL>
-3.34769

>  <SCORE.INTRA.DIHEDRAL.0>
15.6389

>  <SCORE.INTRA.POLAR>
0

>  <SCORE.INTRA.POLAR.0>
0

>  <SCORE.INTRA.REPUL>
0

>  <SCORE.INTRA.REPUL.0>
0

>  <SCORE.INTRA.SOLV>
0.988173

>  <SCORE.INTRA.SOLV.lig_0>
-90.9181

>  <SCORE.INTRA.VDW>
2.3563

>  <SCORE.INTRA.VDW.0>
-3.14158

>  <SCORE.INTRA.norm>
0.0317986

>  <SCORE.RESTR>
0.757632

>  <SCORE.RESTR.CAVITY>
0.757632

>  <SCORE.RESTR.norm>
0.0204765

>  <SCORE.SYSTEM>
0

>  <SCORE.SYSTEM.CONST>
0

>  <SCORE.SYSTEM.DIHEDRAL>
0

>  <SCORE.SYSTEM.SOLV>
0

>  <SCORE.SYSTEM.norm>
0

>  <SCORE.heavy>
37

>  <SCORE.norm>
-0.339668

>  <RMSD>
8.867

$$$$
1yrj_lig
 OpenBabel11021811423D
libRbt.so/2013.1/901 2013/11/27
 37 40  0  0  0  0  0  0  0  0999 V2000
   38.3282    7.2160    3.0270 C   0  0  1  0  0  0  0  0  0  0  0  0
   37.0956    8.0315    3.4643 C   0  0  1  0  0  0  0  0  0  0  0  0
   37.2414    8.5623    4.8993 C   0  0  0  0  0  0  0  0  0  0  0  0
   37.5332    7.3905    5.8727 C   0  0  1  0  0  0  0  0  0  0  0  0
   38.7999    6.6363    5.4259 C   0  0  1  0  0  0  0  0  0  0  0  0
   39.0826    5.4527    6.4444 C   0  0  1  0  0  0  0  0  0  0  0  0
   39.2739    6.0221    7.8595 C   0  0  1  0  0  0  0  0  0  0  0  0
   37.9966    6.8095    8.2399 C   0  0  2  0  0  0  0  0  0  0  0  0
   40.3531    5.2872   10.0508 C   0  0  0  0  0  0  0  0  0  0  0  0
   36.8130    9.1400    2.5378 N   0  0  0  0  0  0  0  0  0  0  0  0
   39.5910    4.9177    8.8172 N   0  0  0  0  0  0  0  0  0  0  0  0
   39.4842    8.0252    2.7410 O   0  0  0  0  0  0  0  0  0  0  0  0
   38.5994    6.1747    4.0374 O   0  0  0  0  0  0  0  0  0  0  0  0
   37.7209    7.8556    7.2659 O   0  0  0  0  0  0  0  0  0  0  0  0
   37.9641    4.5915    6.4854 O   0  0  0  0  0  0  0  0  0  0  0  0
   38.1137    7.4276    9.5220 O   0  0  0  0  0  0  0  0  0  0  0  0
   36.8766    8.0160    9.9877 C   0  0  2  0  0  0  0  0  0  0  0  0
   36.9101    9.5526   10.0276 C   0  0  1  0  0  0  0  0  0  0  0  0
   37.8656   10.0631   11.1387 C   0  0  2  0  0  0  0  0  0  0  0  0
   37.4402    9.5073   12.4784 C   0  0  1  0  0  0  0  0  0  0  0  0
   37.4451    7.9616   12.4152 C   0  0  1  0  0  0  0  0  0  0  0  0
   36.9793    7.3140   13.7173 C   0  0  0  0  0  0  0  0  0  0  0  0
   38.3697   10.0063   13.5130 N   0  0  0  0  0  0  0  0  0  0  0  0
   36.5446    7.5090   11.3396 O   0  0  0  0  0  0  0  0  0  0  0  0
   37.2853   10.0303    8.7275 O   0  0  0  0  0  0  0  0  0  0  0  0
   37.8155   11.4952   11.1978 O   0  0  0  0  0  0  0  0  0  0  0  0
   37.8955    7.6076   14.7382 O   0  0  0  0  0  0  0  0  0  0  0  0
   39.7167    8.7350    1.4156 C   0  0  1  0  0  0  0  0  0  0  0  0
   40.1405   10.1837    1.7433 C   0  0  1  0  0  0  0  0  0  0  0  0
   40.4676   10.9762    0.4544 C   0  0  2  0  0  0  0  0  0  0  0  0
   41.5895   10.2751   -0.3208 C   0  0  1  0  0  0  0  0  0  0  0  0
   41.1630    8.8310   -0.6887 C   0  0  0  0  0  0  0  0  0  0  0  0
   40.8600    8.0608    0.6008 C   0  0  2  0  0  0  0  0  0  0  0  0
   41.8895   11.0316   -1.5569 N   0  0  0  0  0  0  0  0  0  0  0  0
   40.4805    6.7046    0.2140 N   0  0  0  0  0  0  0  0  0  0  0  0
   39.0577   10.8476    2.4309 O   0  0  0  0  0  0  0  0  0  0  0  0
   40.8802   12.3106    0.8200 O   0  0  0  0  0  0  0  0  0  0  0  0
  1  2  1  0  0  0  0
  1 12  1  1  0  0  0
  1 13  1  0  0  0  0
  2  3  1  0  0  0  0
  2 10  1  6  0  0  0
  4  3  1  6  0  0  0
  4  5  1  0  0  0  0
  4 14  1  0  0  0  0
  5  6  1  0  0  0  0
  5 13  1  6  0  0  0
  6  7  1  0  0  0  0
  6 15  1  1  0  0  0
  7  8  1  0  0  0  0
  7 11  1  1  0  0  0
  8 14  1  0  0  0  0
  8 16  1  1  0  0  0
  9 11  1  0  0  0  0
 17 16  1  1  0  0  0
 17 18  1  0  0  0  0
 17 24  1  0  0  0  0
 18 19  1  0  0  0  0
 18 25  1  6  0  0  0
 19 20  1  0  0  0  0
 19 26  1  1  0  0  0
 20 21  1  0  0  0  0
 20 23  1  1  0  0  0
 21 22  1  1  0  0  0
 21 24  1  0  0  0  0
 22 27  1  0  0  0  0
 28 12  1  1  0  0  0
 28 29  1  0  0  0  0
 28 33  1  0  0  0  0
 29 30  1  0  0  0  0
 29 36  1  6  0  0  0
 30 31  1  0  0  0  0
 30 37  1  1  0  0  0
 31 32  1  0  0  0  0
 31 34  1  6  0  0  0
 32 33  1  0  0  0  0
 33 35  1  6  0  0  0
M  END
>  <CHROM.1>
-82.34564949,154.92143916,-172.01673871,-110.91751370,-65.10697143,133.00640622
38.68131516,8.28983655,6.30435793,-0.08201925,-1.34595080,-3.11278034

>  <Name>
1yrj_lig

>  <RI>
0

>  <Rbt.Current_Directory>
/home/itssahil/PROJECTS/Mol_Feturizer/New_Systems/rnas/1yrj

>  <Rbt.Executable>
rbdock ($Id: //depot/dev/client3/rdock/2013.1/src/exe/rbdock.cxx#4 $)

>  <Rbt.Library>
libRbt.so (2013.1, Build901 2013/11/27)

>  <Rbt.Parameter_File>
/export/apps/rDock/src/rDock_2013.1_src/data/scripts/dock_solv.prm

>  <Rbt.Receptor>
prm/pocket_docking_8.prm

>  <SCORE>
-18.9414

>  <SCORE.INTER>
-19.8374

>  <SCORE.INTER.CONST>
1

>  <SCORE.INTER.POLAR>
-1.78279

>  <SCORE.INTER.ROT>
6

>  <SCORE.INTER.SOLV>
12.7557

>  <SCORE.INTER.VDW>
-19.1342

>  <SCORE.INTER.norm>
-0.536145

>  <SCORE.INTRA>
0.895979

>  <SCORE.INTRA.DIHEDRAL>
0.62662

>  <SCORE.INTRA.DIHEDRAL.0>
15.6389

>  <SCORE.INTRA.POLAR>
0

>  <SCORE.INTRA.POLAR.0>
0

>  <SCORE.INTRA.REPUL>
0

>  <SCORE.INTRA.REPUL.0>
0

>  <SCORE.INTRA.SOLV>
1.30009

>  <SCORE.INTRA.SOLV.lig_0>
-90.9181

>  <SCORE.INTRA.VDW>
-0.0673743

>  <SCORE.INTRA.VDW.0>
-3.14158

>  <SCORE.INTRA.norm>
0.0242157

>  <SCORE.RESTR>
0

>  <SCORE.RESTR.CAVITY>
0

>  <SCORE.RESTR.norm>
0

>  <SCORE.SYSTEM>
0

>  <SCORE.SYSTEM.CONST>
0

>  <SCORE.SYSTEM.DIHEDRAL>
0

>  <SCORE.SYSTEM.SOLV>
0

>  <SCORE.SYSTEM.norm>
0

>  <SCORE.heavy>
37

>  <SCORE.norm>
-0.511929

>  <RMSD>
8.940

$$$$
1yrj_lig
 OpenBabel11021811423D
libRbt.so/2013.1/901 2013/11/27
 37 40  0  0  0  0  0  0  0  0999 V2000
   38.8673    6.9431    5.2631 C   0  0  1  0  0  0  0  0  0  0  0  0
   39.1146    5.5953    5.9685 C   0  0  1  0  0  0  0  0  0  0  0  0
   38.1972    5.4117    7.1880 C   0  0  0  0  0  0  0  0  0  0  0  0
   38.3581    6.6098    8.1597 C   0  0  1  0  0  0  0  0  0  0  0  0
   38.0525    7.9292    7.4257 C   0  0  1  0  0  0  0  0  0  0  0  0
   38.2115    9.1357    8.4441 C   0  0  1  0  0  0  0  0  0  0  0  0
   37.2449    8.9475    9.6247 C   0  0  1  0  0  0  0  0  0  0  0  0
   37.5610    7.5888   10.2957 C   0  0  2  0  0  0  0  0  0  0  0  0
   36.8839   11.4350   10.0594 C   0  0  0  0  0  0  0  0  0  0  0  0
   38.9690    4.4572    5.0462 N   0  0  0  0  0  0  0  0  0  0  0  0
   37.3524   10.1065   10.5642 N   0  0  0  0  0  0  0  0  0  0  0  0
   37.6449    6.9813    4.5031 O   0  0  0  0  0  0  0  0  0  0  0  0
   38.9517    8.0298    6.2584 O   0  0  0  0  0  0  0  0  0  0  0  0
   37.4644    6.4993    9.3351 O   0  0  0  0  0  0  0  0  0  0  0  0
   39.5222    9.1364    8.9700 O   0  0  0  0  0  0  0  0  0  0  0  0
   36.6642    7.3036   11.3699 O   0  0  0  0  0  0  0  0  0  0  0  0
   37.3311    6.8097   12.5551 C   0  0  2  0  0  0  0  0  0  0  0  0
   36.3595    6.3760   13.6648 C   0  0  1  0  0  0  0  0  0  0  0  0
   35.6287    7.5996   14.2787 C   0  0  2  0  0  0  0  0  0  0  0  0
   36.6398    8.5866   14.8156 C   0  0  1  0  0  0  0  0  0  0  0  0
   37.5829    9.0257   13.6705 C   0  0  1  0  0  0  0  0  0  0  0  0
   38.6711    9.9904   14.1364 C   0  0  0  0  0  0  0  0  0  0  0  0
   35.9154    9.7402   15.3881 N   0  0  0  0  0  0  0  0  0  0  0  0
   38.2463    7.8415   13.0961 O   0  0  0  0  0  0  0  0  0  0  0  0
   35.4443    5.4172   13.1149 O   0  0  0  0  0  0  0  0  0  0  0  0
   34.7887    7.1684   15.3582 O   0  0  0  0  0  0  0  0  0  0  0  0
   38.0810   11.1912   14.5580 O   0  0  0  0  0  0  0  0  0  0  0  0
   37.5703    7.3717    3.0346 C   0  0  1  0  0  0  0  0  0  0  0  0
   37.7509    8.9040    2.9613 C   0  0  1  0  0  0  0  0  0  0  0  0
   37.7575    9.3970    1.4940 C   0  0  2  0  0  0  0  0  0  0  0  0
   38.8848    8.7086    0.7153 C   0  0  1  0  0  0  0  0  0  0  0  0
   38.6956    7.1705    0.7494 C   0  0  0  0  0  0  0  0  0  0  0  0
   38.7084    6.7026    2.2084 C   0  0  2  0  0  0  0  0  0  0  0  0
   38.8783    9.1760   -0.6890 N   0  0  0  0  0  0  0  0  0  0  0  0
   38.5461    5.2513    2.1972 N   0  0  0  0  0  0  0  0  0  0  0  0
   36.6577    9.5414    3.6574 O   0  0  0  0  0  0  0  0  0  0  0  0
   37.9535   10.8275    1.4840 O   0  0  0  0  0  0  0  0  0  0  0  0
  1  2  1  0  0  0  0
  1 12  1  1  0  0  0
  1 13  1  0  0  0  0
  2  3  1  0  0  0  0
  2 10  1  6  0  0  0
  4  3  1  6  0  0  0
  4  5  1  0  0  0  0
  4 14  1  0  0  0  0
  5  6  1  0  0  0  0
  5 13  1  6  0  0  0
  6  7  1  0  0  0  0
  6 15  1  1  0  0  0
  7  8  1  0  0  0  0
  7 11  1  1  0  0  0
  8 14  1  0  0  0  0
  8 16  1  1  0  0  0
  9 11  1  0  0  0  0
 17 16  1  6  0  0  0
 17 18  1  0  0  0  0
 17 24  1  0  0  0  0
 18 19  1  0  0  0  0
 18 25  1  6  0  0  0
 19 20  1  0  0  0  0
 19 26  1  1  0  0  0
 20 21  1  0  0  0  0
 20 23  1  6  0  0  0
 21 22  1  1  0  0  0
 21 24  1  0  0  0  0
 22 27  1  0  0  0  0
 28 12  1  1  0  0  0
 28 29  1  0  0  0  0
 28 33  1  0  0  0  0
 29 30  1  0  0  0  0
 29 36  1  1  0  0  0
 30 31  1  0  0  0  0
 30 37  1  1  0  0  0
 31 32  1  0  0  0  0
 31 34  1  6  0  0  0
 32 33  1  0  0  0  0
 33 35  1  6  0  0  0
M  END
>  <CHROM.1>
-126.32278555,67.08017348,-134.88442339,-174.51258163,-65.17569759,-74.47703997
37.69138483,7.99195431,8.19024208,0.22677790,-1.43181668,-2.94893169

>  <Name>
1yrj_lig

>  <RI>
0

>  <Rbt.Current_Directory>
/home/itssahil/PROJECTS/Mol_Feturizer/New_Systems/rnas/1yrj

>  <Rbt.Executable>
rbdock ($Id: //depot/dev/client3/rdock/2013.1/src/exe/rbdock.cxx#4 $)

>  <Rbt.Library>
libRbt.so (2013.1, Build901 2013/11/27)

>  <Rbt.Parameter_File>
/export/apps/rDock/src/rDock_2013.1_src/data/scripts/dock_solv.prm

>  <Rbt.Receptor>
prm/pocket_docking_8.prm

>  <SCORE>
-17.1238

>  <SCORE.INTER>
-17.8564

>  <SCORE.INTER.CONST>
1

>  <SCORE.INTER.POLAR>
-2.60978

>  <SCORE.INTER.ROT>
6

>  <SCORE.INTER.SOLV>
18.1312

>  <SCORE.INTER.VDW>
-16.8487

>  <SCORE.INTER.norm>
-0.482605

>  <SCORE.INTRA>
0.732575

>  <SCORE.INTRA.DIHEDRAL>
-1.25665

>  <SCORE.INTRA.DIHEDRAL.0>
15.6389

>  <SCORE.INTRA.POLAR>
0

>  <SCORE.INTRA.POLAR.0>
0

>  <SCORE.INTRA.REPUL>
0

>  <SCORE.INTRA.REPUL.0>
0

>  <SCORE.INTRA.SOLV>
2.67087

>  <SCORE.INTRA.SOLV.lig_0>
-90.9181

>  <SCORE.INTRA.VDW>
0.0254616

>  <SCORE.INTRA.VDW.0>
-3.14158

>  <SCORE.INTRA.norm>
0.0197993

>  <SCORE.RESTR>
0

>  <SCORE.RESTR.CAVITY>
0

>  <SCORE.RESTR.norm>
0

>  <SCORE.SYSTEM>
0

>  <SCORE.SYSTEM.CONST>
0

>  <SCORE.SYSTEM.DIHEDRAL>
0

>  <SCORE.SYSTEM.SOLV>
0

>  <SCORE.SYSTEM.norm>
0

>  <SCORE.heavy>
37

>  <SCORE.norm>
-0.462806

>  <RMSD>
9.007

$$$$
1yrj_lig
 OpenBabel11021811423D
libRbt.so/2013.1/901 2013/11/27
 37 40  0  0  0  0  0  0  0  0999 V2000
   39.8420    9.8287    3.5156 C   0  0  1  0  0  0  0  0  0  0  0  0
   40.4586    8.4735    3.9138 C   0  0  1  0  0  0  0  0  0  0  0  0
   39.7499    7.8589    5.1313 C   0  0  0  0  0  0  0  0  0  0  0  0
   39.7539    8.8642    6.3124 C   0  0  1  0  0  0  0  0  0  0  0  0
   39.0838   10.1837    5.8846 C   0  0  1  0  0  0  0  0  0  0  0  0
   39.0895   11.1880    7.1131 C   0  0  1  0  0  0  0  0  0  0  0  0
   38.3298   10.5644    8.2952 C   0  0  1  0  0  0  0  0  0  0  0  0
   39.0114    9.2214    8.6528 C   0  0  2  0  0  0  0  0  0  0  0  0
   39.4805   11.5598   10.3426 C   0  0  0  0  0  0  0  0  0  0  0  0
   40.4619    7.5202    2.7920 N   0  0  0  0  0  0  0  0  0  0  0  0
   38.2870   11.5255    9.4406 N   0  0  0  0  0  0  0  0  0  0  0  0
   38.5622    9.7123    2.8660 O   0  0  0  0  0  0  0  0  0  0  0  0
   39.7991   10.7052    4.7024 O   0  0  0  0  0  0  0  0  0  0  0  0
   39.0471    8.3330    7.5002 O   0  0  0  0  0  0  0  0  0  0  0  0
   40.4195   11.4050    7.5358 O   0  0  0  0  0  0  0  0  0  0  0  0
   38.3283    8.5411    9.7065 O   0  0  0  0  0  0  0  0  0  0  0  0
   39.0006    7.3346   10.1376 C   0  0  2  0  0  0  0  0  0  0  0  0
   38.0572    6.3128   10.7931 C   0  0  1  0  0  0  0  0  0  0  0  0
   37.5482    6.8222   12.1677 C   0  0  2  0  0  0  0  0  0  0  0  0
   38.7216    7.1174   13.0736 C   0  0  1  0  0  0  0  0  0  0  0  0
   39.6350    8.1690   12.4003 C   0  0  1  0  0  0  0  0  0  0  0  0
   40.8765    8.4924   13.2284 C   0  0  0  0  0  0  0  0  0  0  0  0
   38.2062    7.6039   14.3702 N   0  0  0  0  0  0  0  0  0  0  0  0
   40.0857    7.6648   11.0907 O   0  0  0  0  0  0  0  0  0  0  0  0
   36.9817    6.0417    9.8827 O   0  0  0  0  0  0  0  0  0  0  0  0
   36.7332    5.8156   12.7838 O   0  0  0  0  0  0  0  0  0  0  0  0
   40.4875    9.0652   14.4484 O   0  0  0  0  0  0  0  0  0  0  0  0
   38.3707    9.7394    1.3571 C   0  0  1  0  0  0  0  0  0  0  0  0
   39.2126   10.9144    0.8124 C   0  0  1  0  0  0  0  0  0  0  0  0
   39.1384   10.9872   -0.7320 C   0  0  2  0  0  0  0  0  0  0  0  0
   39.6359    9.6717   -1.3428 C   0  0  1  0  0  0  0  0  0  0  0  0
   38.7757    8.4872   -0.8332 C   0  0  0  0  0  0  0  0  0  0  0  0
   38.8764    8.4238    0.6945 C   0  0  2  0  0  0  0  0  0  0  0  0
   39.5519    9.7441   -2.8187 N   0  0  0  0  0  0  0  0  0  0  0  0
   38.0698    7.2881    1.1330 N   0  0  0  0  0  0  0  0  0  0  0  0
   38.7040   12.1513    1.3578 O   0  0  0  0  0  0  0  0  0  0  0  0
   39.9602   12.0838   -1.1867 O   0  0  0  0  0  0  0  0  0  0  0  0
  1  2  1  0  0  0  0
  1 12  1  1  0  0  0
  1 13  1  0  0  0  0
  2  3  1  0  0  0  0
  2 10  1  6  0  0  0
  4  3  1  6  0  0  0
  4  5  1  0  0  0  0
  4 14  1  0  0  0  0
  5  6  1  0  0  0  0
  5 13  1  6  0  0  0
  6  7  1  0  0  0  0
  6 15  1  1  0  0  0
  7  8  1  0  0  0  0
  7 11  1  1  0  0  0
  8 14  1  0  0  0  0
  8 16  1  1  0  0  0
  9 11  1  0  0  0  0
 17 16  1  1  0  0  0
 17 18  1  0  0  0  0
 17 24  1  0  0  0  0
 18 19  1  0  0  0  0
 18 25  1  6  0  0  0
 19 20  1  0  0  0  0
 19 26  1  1  0  0  0
 20 21  1  0  0  0  0
 20 23  1  1  0  0  0
 21 22  1  1  0  0  0
 21 24  1  0  0  0  0
 22 27  1  0  0  0  0
 28 12  1  1  0  0  0
 28 29  1  0  0  0  0
 28 33  1  0  0  0  0
 29 30  1  0  0  0  0
 29 36  1  1  0  0  0
 30 31  1  0  0  0  0
 30 37  1  6  0  0  0
 31 32  1  0  0  0  0
 31 34  1  6  0  0  0
 32 33  1  0  0  0  0
 33 35  1  1  0  0  0
M  END
>  <CHROM.1>
-97.44989307,-83.46922390,-175.33203601,-155.59497844,-63.06573688,-45.96156640
39.08902316,9.07748379,6.45018559,-1.45031308,1.26409615,1.62481116

>  <Name>
1yrj_lig

>  <RI>
0

>  <Rbt.Current_Directory>
/home/itssahil/PROJECTS/Mol_Feturizer/New_Systems/rnas/1yrj

>  <Rbt.Executable>
rbdock ($Id: //depot/dev/client3/rdock/2013.1/src/exe/rbdock.cxx#4 $)

>  <Rbt.Library>
libRbt.so (2013.1, Build901 2013/11/27)

>  <Rbt.Parameter_File>
/export/apps/rDock/src/rDock_2013.1_src/data/scripts/dock_solv.prm

>  <Rbt.Receptor>
prm/pocket_docking_8.prm

>  <SCORE>
-9.1562

>  <SCORE.INTER>
-9.86445

>  <SCORE.INTER.CONST>
1

>  <SCORE.INTER.POLAR>
-1.45424

>  <SCORE.INTER.ROT>
6

>  <SCORE.INTER.SOLV>
11.0045

>  <SCORE.INTER.VDW>
-12.997

>  <SCORE.INTER.norm>
-0.266607

>  <SCORE.INTRA>
0.708248

>  <SCORE.INTRA.DIHEDRAL>
-6.63797

>  <SCORE.INTRA.DIHEDRAL.0>
15.6389

>  <SCORE.INTRA.POLAR>
0

>  <SCORE.INTRA.POLAR.0>
0

>  <SCORE.INTRA.REPUL>
0

>  <SCORE.INTRA.REPUL.0>
0

>  <SCORE.INTRA.SOLV>
3.26556

>  <SCORE.INTRA.SOLV.lig_0>
-90.9181

>  <SCORE.INTRA.VDW>
2.39446

>  <SCORE.INTRA.VDW.0>
-3.14158

>  <SCORE.INTRA.norm>
0.0191418

>  <SCORE.RESTR>
0

>  <SCORE.RESTR.CAVITY>
0

>  <SCORE.RESTR.norm>
0

>  <SCORE.SYSTEM>
0

>  <SCORE.SYSTEM.CONST>
0

>  <SCORE.SYSTEM.DIHEDRAL>
0

>  <SCORE.SYSTEM.SOLV>
0

>  <SCORE.SYSTEM.norm>
0

>  <SCORE.heavy>
37

>  <SCORE.norm>
-0.247465

>  <RMSD>
9.059

$$$$
1yrj_lig
 OpenBabel11021811423D
libRbt.so/2013.1/901 2013/11/27
 37 40  0  0  0  0  0  0  0  0999 V2000
   39.2211    5.1530   10.3505 C   0  0  1  0  0  0  0  0  0  0  0  0
   39.4743    3.8402    9.5838 C   0  0  1  0  0  0  0  0  0  0  0  0
   40.0676    4.0981    8.1896 C   0  0  0  0  0  0  0  0  0  0  0  0
   39.1529    5.0646    7.3928 C   0  0  1  0  0  0  0  0  0  0  0  0
   38.9692    6.3804    8.1726 C   0  0  1  0  0  0  0  0  0  0  0  0
   38.0417    7.3546    7.3308 C   0  0  1  0  0  0  0  0  0  0  0  0
   38.6880    7.6322    5.9639 C   0  0  1  0  0  0  0  0  0  0  0  0
   38.8953    6.2776    5.2437 C   0  0  2  0  0  0  0  0  0  0  0  0
   38.2640   10.0263    5.1925 C   0  0  0  0  0  0  0  0  0  0  0  0
   40.3368    2.9187   10.3415 N   0  0  0  0  0  0  0  0  0  0  0  0
   37.8446    8.5899    5.1837 N   0  0  0  0  0  0  0  0  0  0  0  0
   40.4227    5.7755   10.8424 O   0  0  0  0  0  0  0  0  0  0  0  0
   38.4182    6.0574    9.5043 O   0  0  0  0  0  0  0  0  0  0  0  0
   39.7021    5.3761    6.0534 O   0  0  0  0  0  0  0  0  0  0  0  0
   36.7996    6.7274    7.0889 O   0  0  0  0  0  0  0  0  0  0  0  0
   39.5512    6.4381    3.9853 O   0  0  0  0  0  0  0  0  0  0  0  0
   38.7354    7.1110    2.9977 C   0  0  2  0  0  0  0  0  0  0  0  0
   38.2388    6.1789    1.8805 C   0  0  1  0  0  0  0  0  0  0  0  0
   39.4100    5.7220    0.9706 C   0  0  2  0  0  0  0  0  0  0  0  0
   40.1064    6.9285    0.3838 C   0  0  1  0  0  0  0  0  0  0  0  0
   40.6197    7.8303    1.5313 C   0  0  1  0  0  0  0  0  0  0  0  0
   41.2972    9.1025    1.0269 C   0  0  0  0  0  0  0  0  0  0  0  0
   41.2171    6.4624   -0.4720 N   0  0  0  0  0  0  0  0  0  0  0  0
   39.4888    8.2311    2.3873 O   0  0  0  0  0  0  0  0  0  0  0  0
   37.5578    5.0704    2.4860 O   0  0  0  0  0  0  0  0  0  0  0  0
   38.9020    4.9171   -0.1022 O   0  0  0  0  0  0  0  0  0  0  0  0
   41.7246    9.8689    2.1214 O   0  0  0  0  0  0  0  0  0  0  0  0
   40.4388    7.0424   11.6844 C   0  0  1  0  0  0  0  0  0  0  0  0
   39.6425    6.7424   12.9735 C   0  0  1  0  0  0  0  0  0  0  0  0
   39.6562    7.9555   13.9348 C   0  0  2  0  0  0  0  0  0  0  0  0
   41.1008    8.3210   14.2962 C   0  0  1  0  0  0  0  0  0  0  0  0
   41.9026    8.6608   13.0138 C   0  0  0  0  0  0  0  0  0  0  0  0
   41.8898    7.4422   12.0849 C   0  0  2  0  0  0  0  0  0  0  0  0
   41.1070    9.4881   15.2063 N   0  0  0  0  0  0  0  0  0  0  0  0
   42.6679    7.7948   10.9004 N   0  0  0  0  0  0  0  0  0  0  0  0
   38.2729    6.4464   12.6234 O   0  0  0  0  0  0  0  0  0  0  0  0
   38.9210    7.6121   15.1290 O   0  0  0  0  0  0  0  0  0  0  0  0
  1  2  1  0  0  0  0
  1 12  1  6  0  0  0
  1 13  1  0  0  0  0
  2  3  1  0  0  0  0
  2 10  1  1  0  0  0
  4  3  1  1  0  0  0
  4  5  1  0  0  0  0
  4 14  1  0  0  0  0
  5  6  1  0  0  0  0
  5 13  1  1  0  0  0
  6  7  1  0  0  0  0
  6 15  1  6  0  0  0
  7  8  1  0  0  0  0
  7 11  1  6  0  0  0
  8 14  1  0  0  0  0
  8 16  1  6  0  0  0
  9 11  1  0  0  0  0
 17 16  1  1  0  0  0
 17 18  1  0  0  0  0
 17 24  1  0  0  0  0
 18 19  1  0  0  0  0
 18 25  1  1  0  0  0
 19 20  1  0  0  0  0
 19 26  1  6  0  0  0
 20 21  1  0  0  0  0
 20 23  1  1  0  0  0
 21 22  1  6  0  0  0
 21 24  1  0  0  0  0
 22 27  1  0  0  0  0
 28 12  1  6  0  0  0
 28 29  1  0  0  0  0
 28 33  1  0  0  0  0
 29 30  1  0  0  0  0
 29 36  1  6  0  0  0
 30 31  1  0  0  0  0
 30 37  1  1  0  0  0
 31 32  1  0  0  0  0
 31 34  1  1  0  0  0
 32 33  1  0  0  0  0
 33 35  1  6  0  0  0
M  END
>  <CHROM.1>
-177.02625643,98.97689958,-68.51706357,-108.48312252,179.56508467,60.25000103
39.61839727,6.83040103,7.18971327,1.44518265,1.12531955,1.66763512

>  <Name>
1yrj_lig

>  <RI>
0

>  <Rbt.Current_Directory>
/home/itssahil/PROJECTS/Mol_Feturizer/New_Systems/rnas/1yrj

>  <Rbt.Executable>
rbdock ($Id: //depot/dev/client3/rdock/2013.1/src/exe/rbdock.cxx#4 $)

>  <Rbt.Library>
libRbt.so (2013.1, Build901 2013/11/27)

>  <Rbt.Parameter_File>
/export/apps/rDock/src/rDock_2013.1_src/data/scripts/dock_solv.prm

>  <Rbt.Receptor>
prm/pocket_docking_7.prm

>  <SCORE>
-17.267

>  <SCORE.INTER>
-13.3699

>  <SCORE.INTER.CONST>
1

>  <SCORE.INTER.POLAR>
-0.329069

>  <SCORE.INTER.ROT>
6

>  <SCORE.INTER.SOLV>
18.1286

>  <SCORE.INTER.VDW>
-21.4592

>  <SCORE.INTER.norm>
-0.361347

>  <SCORE.INTRA>
-4.0407

>  <SCORE.INTRA.DIHEDRAL>
-7.7253

>  <SCORE.INTRA.DIHEDRAL.0>
15.6389

>  <SCORE.INTRA.POLAR>
0

>  <SCORE.INTRA.POLAR.0>
0

>  <SCORE.INTRA.REPUL>
0

>  <SCORE.INTRA.REPUL.0>
0

>  <SCORE.INTRA.SOLV>
-1.9375

>  <SCORE.INTRA.SOLV.lig_0>
-90.9181

>  <SCORE.INTRA.VDW>
0.790701

>  <SCORE.INTRA.VDW.0>
-3.14158

>  <SCORE.INTRA.norm>
-0.109208

>  <SCORE.RESTR>
0.143588

>  <SCORE.RESTR.CAVITY>
0.143588

>  <SCORE.RESTR.norm>
0.00388076

>  <SCORE.SYSTEM>
0

>  <SCORE.SYSTEM.CONST>
0

>  <SCORE.SYSTEM.DIHEDRAL>
0

>  <SCORE.SYSTEM.SOLV>
0

>  <SCORE.SYSTEM.norm>
0

>  <SCORE.heavy>
37

>  <SCORE.norm>
-0.466675

>  <RMSD>
9.270

$$$$
1yrj_lig
 OpenBabel11021811423D
libRbt.so/2013.1/901 2013/11/27
 37 40  0  0  0  0  0  0  0  0999 V2000
   39.4215    7.2960    2.4443 C   0  0  1  0  0  0  0  0  0  0  0  0
   38.9886    6.1425    3.3703 C   0  0  1  0  0  0  0  0  0  0  0  0
   38.1910    6.6509    4.5818 C   0  0  0  0  0  0  0  0  0  0  0  0
   39.0085    7.7267    5.3433 C   0  0  1  0  0  0  0  0  0  0  0  0
   39.3751    8.8820    4.3926 C   0  0  1  0  0  0  0  0  0  0  0  0
   40.1984    9.9730    5.1987 C   0  0  1  0  0  0  0  0  0  0  0  0
   39.3537   10.4969    6.3715 C   0  0  1  0  0  0  0  0  0  0  0  0
   38.9718    9.2933    7.2670 C   0  0  2  0  0  0  0  0  0  0  0  0
   39.5394   12.9474    7.0549 C   0  0  0  0  0  0  0  0  0  0  0  0
   38.2183    5.1171    2.6477 N   0  0  0  0  0  0  0  0  0  0  0  0
   40.1033   11.5623    7.1066 N   0  0  0  0  0  0  0  0  0  0  0  0
   38.3443    7.8427    1.6606 O   0  0  0  0  0  0  0  0  0  0  0  0
   40.1180    8.3212    3.2459 O   0  0  0  0  0  0  0  0  0  0  0  0
   38.2657    8.2775    6.4998 O   0  0  0  0  0  0  0  0  0  0  0  0
   41.3554    9.3772    5.7472 O   0  0  0  0  0  0  0  0  0  0  0  0
   38.1299    9.6831    8.3527 O   0  0  0  0  0  0  0  0  0  0  0  0
   37.2345    8.6327    8.7869 C   0  0  2  0  0  0  0  0  0  0  0  0
   36.5433    8.9365   10.1262 C   0  0  1  0  0  0  0  0  0  0  0  0
   37.5580    8.9034   11.3000 C   0  0  2  0  0  0  0  0  0  0  0  0
   38.2428    7.5568   11.3503 C   0  0  1  0  0  0  0  0  0  0  0  0
   38.9525    7.2938   10.0011 C   0  0  1  0  0  0  0  0  0  0  0  0
   39.6331    5.9280    9.9462 C   0  0  0  0  0  0  0  0  0  0  0  0
   39.2040    7.5579   12.4726 N   0  0  0  0  0  0  0  0  0  0  0  0
   37.9675    7.3508    8.9061 O   0  0  0  0  0  0  0  0  0  0  0  0
   35.8821   10.2052   10.0161 O   0  0  0  0  0  0  0  0  0  0  0  0
   36.8689    9.1158   12.5397 O   0  0  0  0  0  0  0  0  0  0  0  0
   38.6639    4.9192   10.0497 O   0  0  0  0  0  0  0  0  0  0  0  0
   38.5318    8.8929    0.5761 C   0  0  1  0  0  0  0  0  0  0  0  0
   38.9730   10.1969    1.2767 C   0  0  1  0  0  0  0  0  0  0  0  0
   39.2568   11.3171    0.2468 C   0  0  2  0  0  0  0  0  0  0  0  0
   40.3472   10.8649   -0.7318 C   0  0  1  0  0  0  0  0  0  0  0  0
   39.9018    9.5765   -1.4697 C   0  0  0  0  0  0  0  0  0  0  0  0
   39.6423    8.4776   -0.4338 C   0  0  2  0  0  0  0  0  0  0  0  0
   40.6055   11.9358   -1.7201 N   0  0  0  0  0  0  0  0  0  0  0  0
   39.2436    7.2793   -1.1672 N   0  0  0  0  0  0  0  0  0  0  0  0
   37.9184   10.6379    2.1595 O   0  0  0  0  0  0  0  0  0  0  0  0
   39.6877   12.5007    0.9526 O   0  0  0  0  0  0  0  0  0  0  0  0
  1  2  1  0  0  0  0
  1 12  1  1  0  0  0
  1 13  1  0  0  0  0
  2  3  1  0  0  0  0
  2 10  1  6  0  0  0
  4  3  1  6  0  0  0
  4  5  1  0  0  0  0
  4 14  1  0  0  0  0
  5  6  1  0  0  0  0
  5 13  1  6  0  0  0
  6  7  1  0  0  0  0
  6 15  1  1  0  0  0
  7  8  1  0  0  0  0
  7 11  1  1  0  0  0
  8 14  1  0  0  0  0
  8 16  1  1  0  0  0
  9 11  1  0  0  0  0
 17 16  1  1  0  0  0
 17 18  1  0  0  0  0
 17 24  1  0  0  0  0
 18 19  1  0  0  0  0
 18 25  1  6  0  0  0
 19 20  1  0  0  0  0
 19 26  1  1  0  0  0
 20 21  1  0  0  0  0
 20 23  1  1  0  0  0
 21 22  1  1  0  0  0
 21 24  1  0  0  0  0
 22 27  1  0  0  0  0
 28 12  1  1  0  0  0
 28 29  1  0  0  0  0
 28 33  1  0  0  0  0
 29 30  1  0  0  0  0
 29 36  1  1  0  0  0
 30 31  1  0  0  0  0
 30 37  1  1  0  0  0
 31 32  1  0  0  0  0
 31 34  1  6  0  0  0
 32 33  1  0  0  0  0
 33 35  1  6  0  0  0
M  END
>  <CHROM.1>
-173.85428315,114.02367160,150.70419599,167.88786307,63.47475965,-67.42161235
38.86182738,8.86626390,5.36419246,0.33608492,-1.41972645,-2.65762292

>  <Name>
1yrj_lig

>  <RI>
0

>  <Rbt.Current_Directory>
/home/itssahil/PROJECTS/Mol_Feturizer/New_Systems/rnas/1yrj

>  <Rbt.Executable>
rbdock ($Id: //depot/dev/client3/rdock/2013.1/src/exe/rbdock.cxx#4 $)

>  <Rbt.Library>
libRbt.so (2013.1, Build901 2013/11/27)

>  <Rbt.Parameter_File>
/export/apps/rDock/src/rDock_2013.1_src/data/scripts/dock_solv.prm

>  <Rbt.Receptor>
prm/pocket_docking_8.prm

>  <SCORE>
-18.6814

>  <SCORE.INTER>
-14.9077

>  <SCORE.INTER.CONST>
1

>  <SCORE.INTER.POLAR>
-1.87568

>  <SCORE.INTER.ROT>
6

>  <SCORE.INTER.SOLV>
12.0781

>  <SCORE.INTER.VDW>
-15.3122

>  <SCORE.INTER.norm>
-0.402911

>  <SCORE.INTRA>
-3.77919

>  <SCORE.INTRA.DIHEDRAL>
-9.71173

>  <SCORE.INTRA.DIHEDRAL.0>
15.6389

>  <SCORE.INTRA.POLAR>
0

>  <SCORE.INTRA.POLAR.0>
0

>  <SCORE.INTRA.REPUL>
0

>  <SCORE.INTRA.REPUL.0>
0

>  <SCORE.INTRA.SOLV>
-1.28883

>  <SCORE.INTRA.SOLV.lig_0>
-90.9181

>  <SCORE.INTRA.VDW>
1.72109

>  <SCORE.INTRA.VDW.0>
-3.14158

>  <SCORE.INTRA.norm>
-0.10214

>  <SCORE.RESTR>
0.00550763

>  <SCORE.RESTR.CAVITY>
0.00550763

>  <SCORE.RESTR.norm>
0.000148855

>  <SCORE.SYSTEM>
0

>  <SCORE.SYSTEM.CONST>
0

>  <SCORE.SYSTEM.DIHEDRAL>
0

>  <SCORE.SYSTEM.SOLV>
0

>  <SCORE.SYSTEM.norm>
0

>  <SCORE.heavy>
37

>  <SCORE.norm>
-0.504903

>  <RMSD>
9.337

$$$$
1yrj_lig
 OpenBabel11021811423D
libRbt.so/2013.1/901 2013/11/27
 37 40  0  0  0  0  0  0  0  0999 V2000
   37.5357    6.5624    9.4385 C   0  0  1  0  0  0  0  0  0  0  0  0
   37.9227    5.1729    8.8955 C   0  0  1  0  0  0  0  0  0  0  0  0
   38.6866    5.2716    7.5654 C   0  0  0  0  0  0  0  0  0  0  0  0
   37.8586    6.0837    6.5356 C   0  0  1  0  0  0  0  0  0  0  0  0
   37.5388    7.4810    7.0998 C   0  0  1  0  0  0  0  0  0  0  0  0
   36.7037    8.2942    6.0231 C   0  0  1  0  0  0  0  0  0  0  0  0
   37.5161    8.4184    4.7239 C   0  0  1  0  0  0  0  0  0  0  0  0
   37.8526    6.9916    4.2265 C   0  0  2  0  0  0  0  0  0  0  0  0
   37.4121    9.4519    2.3942 C   0  0  0  0  0  0  0  0  0  0  0  0
   38.7029    4.3979    9.8742 N   0  0  0  0  0  0  0  0  0  0  0  0
   36.7568    9.2271    3.7205 N   0  0  0  0  0  0  0  0  0  0  0  0
   38.6451    7.2967    9.9892 O   0  0  0  0  0  0  0  0  0  0  0  0
   36.8267    7.3114    8.3826 O   0  0  0  0  0  0  0  0  0  0  0  0
   38.5702    6.2408    5.2465 O   0  0  0  0  0  0  0  0  0  0  0  0
   35.5215    7.5862    5.7135 O   0  0  0  0  0  0  0  0  0  0  0  0
   38.6634    7.0145    3.0510 O   0  0  0  0  0  0  0  0  0  0  0  0
   38.7238    5.7373    2.3737 C   0  0  2  0  0  0  0  0  0  0  0  0
   39.7209    5.7149    1.2037 C   0  0  1  0  0  0  0  0  0  0  0  0
   39.2254    6.5996    0.0289 C   0  0  2  0  0  0  0  0  0  0  0  0
   37.8622    6.1325   -0.4274 C   0  0  1  0  0  0  0  0  0  0  0  0
   36.8760    6.1946    0.7629 C   0  0  1  0  0  0  0  0  0  0  0  0
   35.4798    5.6923    0.4022 C   0  0  0  0  0  0  0  0  0  0  0  0
   37.4162    6.9952   -1.5411 N   0  0  0  0  0  0  0  0  0  0  0  0
   37.3831    5.3613    1.8678 O   0  0  0  0  0  0  0  0  0  0  0  0
   41.0030    6.1327    1.6944 O   0  0  0  0  0  0  0  0  0  0  0  0
   40.1393    6.4965   -1.0716 O   0  0  0  0  0  0  0  0  0  0  0  0
   34.5817    6.0366    1.4233 O   0  0  0  0  0  0  0  0  0  0  0  0
   38.5168    8.6638   10.6441 C   0  0  1  0  0  0  0  0  0  0  0  0
   37.8121    8.4533   12.0025 C   0  0  1  0  0  0  0  0  0  0  0  0
   37.6927    9.7847   12.7831 C   0  0  2  0  0  0  0  0  0  0  0  0
   39.0854   10.3834   13.0135 C   0  0  1  0  0  0  0  0  0  0  0  0
   39.7903   10.6344   11.6560 C   0  0  0  0  0  0  0  0  0  0  0  0
   39.9124    9.3026   10.9082 C   0  0  2  0  0  0  0  0  0  0  0  0
   38.9631   11.6612   13.7503 N   0  0  0  0  0  0  0  0  0  0  0  0
   40.5953    9.5774    9.6468 N   0  0  0  0  0  0  0  0  0  0  0  0
   36.4847    7.9342   11.7695 O   0  0  0  0  0  0  0  0  0  0  0  0
   37.0514    9.5259   14.0505 O   0  0  0  0  0  0  0  0  0  0  0  0
  1  2  1  0  0  0  0
  1 12  1  6  0  0  0
  1 13  1  0  0  0  0
  2  3  1  0  0  0  0
  2 10  1  1  0  0  0
  4  3  1  1  0  0  0
  4  5  1  0  0  0  0
  4 14  1  0  0  0  0
  5  6  1  0  0  0  0
  5 13  1  1  0  0  0
  6  7  1  0  0  0  0
  6 15  1  6  0  0  0
  7  8  1  0  0  0  0
  7 11  1  6  0  0  0
  8 14  1  0  0  0  0
  8 16  1  6  0  0  0
  9 11  1  0  0  0  0
 17 16  1  6  0  0  0
 17 18  1  0  0  0  0
 17 24  1  0  0  0  0
 18 19  1  0  0  0  0
 18 25  1  1  0  0  0
 19 20  1  0  0  0  0
 19 26  1  6  0  0  0
 20 21  1  0  0  0  0
 20 23  1  6  0  0  0
 21 22  1  6  0  0  0
 21 24  1  0  0  0  0
 22 27  1  0  0  0  0
 28 12  1  1  0  0  0
 28 29  1  0  0  0  0
 28 33  1  0  0  0  0
 29 30  1  0  0  0  0
 29 36  1  6  0  0  0
 30 31  1  0  0  0  0
 30 37  1  1  0  0  0
 31 32  1  0  0  0  0
 31 34  1  6  0  0  0
 32 33  1  0  0  0  0
 33 35  1  6  0  0  0
M  END
>  <CHROM.1>
-177.14610648,179.69365338,-165.62945777,-173.35784675,-167.62955417,71.69895820
38.00998949,7.44058217,6.17160364,1.53089223,0.53005849,1.36057463

>  <Name>
1yrj_lig

>  <RI>
0

>  <Rbt.Current_Directory>
/home/itssahil/PROJECTS/Mol_Feturizer/New_Systems/rnas/1yrj

>  <Rbt.Executable>
rbdock ($Id: //depot/dev/client3/rdock/2013.1/src/exe/rbdock.cxx#4 $)

>  <Rbt.Library>
libRbt.so (2013.1, Build901 2013/11/27)

>  <Rbt.Parameter_File>
/export/apps/rDock/src/rDock_2013.1_src/data/scripts/dock_solv.prm

>  <Rbt.Receptor>
prm/pocket_docking_8.prm

>  <SCORE>
-30.0905

>  <SCORE.INTER>
-23.2678

>  <SCORE.INTER.CONST>
1

>  <SCORE.INTER.POLAR>
-3.72732

>  <SCORE.INTER.ROT>
6

>  <SCORE.INTER.SOLV>
14.7685

>  <SCORE.INTER.VDW>
-15.6103

>  <SCORE.INTER.norm>
-0.628859

>  <SCORE.INTRA>
-6.8227

>  <SCORE.INTRA.DIHEDRAL>
-13.1105

>  <SCORE.INTRA.DIHEDRAL.0>
15.6389

>  <SCORE.INTRA.POLAR>
0

>  <SCORE.INTRA.POLAR.0>
0

>  <SCORE.INTRA.REPUL>
0

>  <SCORE.INTRA.REPUL.0>
0

>  <SCORE.INTRA.SOLV>
-2.55171

>  <SCORE.INTRA.SOLV.lig_0>
-90.9181

>  <SCORE.INTRA.VDW>
1.00838

>  <SCORE.INTRA.VDW.0>
-3.14158

>  <SCORE.INTRA.norm>
-0.184397

>  <SCORE.RESTR>
0

>  <SCORE.RESTR.CAVITY>
0

>  <SCORE.RESTR.norm>
0

>  <SCORE.SYSTEM>
0

>  <SCORE.SYSTEM.CONST>
0

>  <SCORE.SYSTEM.DIHEDRAL>
0

>  <SCORE.SYSTEM.SOLV>
0

>  <SCORE.SYSTEM.norm>
0

>  <SCORE.heavy>
37

>  <SCORE.norm>
-0.813256

>  <RMSD>
9.339

$$$$
1yrj_lig
 OpenBabel11021811423D
libRbt.so/2013.1/901 2013/11/27
 37 40  0  0  0  0  0  0  0  0999 V2000
   38.7443    1.9754    9.9571 C   0  0  1  0  0  0  0  0  0  0  0  0
   38.3362    2.4102    8.5359 C   0  0  1  0  0  0  0  0  0  0  0  0
   39.3238    3.4284    7.9441 C   0  0  0  0  0  0  0  0  0  0  0  0
   39.4723    4.6419    8.8987 C   0  0  1  0  0  0  0  0  0  0  0  0
   39.9297    4.1656   10.2904 C   0  0  1  0  0  0  0  0  0  0  0  0
   40.0862    5.4257   11.2420 C   0  0  1  0  0  0  0  0  0  0  0  0
   41.1173    6.3987   10.6474 C   0  0  1  0  0  0  0  0  0  0  0  0
   40.6365    6.8072    9.2338 C   0  0  2  0  0  0  0  0  0  0  0  0
   42.7129    7.8932   11.9616 C   0  0  0  0  0  0  0  0  0  0  0  0
   38.1881    1.2592    7.6302 N   0  0  0  0  0  0  0  0  0  0  0  0
   41.3081    7.5655   11.5636 N   0  0  0  0  0  0  0  0  0  0  0  0
   39.8729    1.0817    9.9858 O   0  0  0  0  0  0  0  0  0  0  0  0
   38.9506    3.1780   10.7877 O   0  0  0  0  0  0  0  0  0  0  0  0
   40.4451    5.6360    8.3907 O   0  0  0  0  0  0  0  0  0  0  0  0
   38.8546    6.1128   11.3174 O   0  0  0  0  0  0  0  0  0  0  0  0
   41.5717    7.6664    8.5805 O   0  0  0  0  0  0  0  0  0  0  0  0
   41.1860    8.0077    7.2284 C   0  0  2  0  0  0  0  0  0  0  0  0
   42.0481    9.1213    6.6118 C   0  0  1  0  0  0  0  0  0  0  0  0
   41.7789   10.4849    7.3021 C   0  0  2  0  0  0  0  0  0  0  0  0
   40.3114   10.8325    7.1997 C   0  0  1  0  0  0  0  0  0  0  0  0
   39.4733    9.7088    7.8541 C   0  0  1  0  0  0  0  0  0  0  0  0
   37.9698    9.9555    7.7525 C   0  0  0  0  0  0  0  0  0  0  0  0
   40.0861   12.1306    7.8686 N   0  0  0  0  0  0  0  0  0  0  0  0
   39.7651    8.4255    7.1904 O   0  0  0  0  0  0  0  0  0  0  0  0
   43.4255    8.7295    6.7031 O   0  0  0  0  0  0  0  0  0  0  0  0
   42.5414   11.5125    6.6546 O   0  0  0  0  0  0  0  0  0  0  0  0
   37.2814    8.9091    8.3841 O   0  0  0  0  0  0  0  0  0  0  0  0
   40.7764    0.8167    8.7908 C   0  0  1  0  0  0  0  0  0  0  0  0
   42.1681    1.3911    9.1362 C   0  0  1  0  0  0  0  0  0  0  0  0
   43.1856    1.1114    8.0037 C   0  0  2  0  0  0  0  0  0  0  0  0
   43.2981   -0.3985    7.7620 C   0  0  1  0  0  0  0  0  0  0  0  0
   41.9146   -0.9827    7.3780 C   0  0  0  0  0  0  0  0  0  0  0  0
   40.9283   -0.7092    8.5184 C   0  0  2  0  0  0  0  0  0  0  0  0
   44.2639   -0.6582    6.6709 N   0  0  0  0  0  0  0  0  0  0  0  0
   39.6459   -1.2885    8.1275 N   0  0  0  0  0  0  0  0  0  0  0  0
   42.0572    2.8201    9.3145 O   0  0  0  0  0  0  0  0  0  0  0  0
   44.4702    1.6462    8.3890 O   0  0  0  0  0  0  0  0  0  0  0  0
  1  2  1  0  0  0  0
  1 12  1  6  0  0  0
  1 13  1  0  0  0  0
  2  3  1  0  0  0  0
  2 10  1  6  0  0  0
  4  3  1  6  0  0  0
  4  5  1  0  0  0  0
  4 14  1  0  0  0  0
  5  6  1  0  0  0  0
  5 13  1  1  0  0  0
  6  7  1  0  0  0  0
  6 15  1  6  0  0  0
  7  8  1  0  0  0  0
  7 11  1  1  0  0  0
  8 14  1  0  0  0  0
  8 16  1  6  0  0  0
  9 11  1  0  0  0  0
 17 16  1  1  0  0  0
 17 18  1  0  0  0  0
 17 24  1  0  0  0  0
 18 19  1  0  0  0  0
 18 25  1  1  0  0  0
 19 20  1  0  0  0  0
 19 26  1  6  0  0  0
 20 21  1  0  0  0  0
 20 23  1  1  0  0  0
 21 22  1  6  0  0  0
 21 24  1  0  0  0  0
 22 27  1  0  0  0  0
 28 12  1  1  0  0  0
 28 29  1  0  0  0  0
 28 33  1  0  0  0  0
 29 30  1  0  0  0  0
 29 36  1  6  0  0  0
 30 31  1  0  0  0  0
 30 37  1  1  0  0  0
 31 32  1  0  0  0  0
 31 34  1  6  0  0  0
 32 33  1  0  0  0  0
 33 35  1  6  0  0  0
M  END
>  <CHROM.1>
12.68722941,127.53109816,176.82240545,169.71602383,-179.07455622,113.43908061
40.76615189,5.11066902,8.65166912,1.49019499,-0.45617948,3.05344521

>  <Name>
1yrj_lig

>  <RI>
0

>  <Rbt.Current_Directory>
/home/itssahil/PROJECTS/Mol_Feturizer/New_Systems/rnas/1yrj

>  <Rbt.Executable>
rbdock ($Id: //depot/dev/client3/rdock/2013.1/src/exe/rbdock.cxx#4 $)

>  <Rbt.Library>
libRbt.so (2013.1, Build901 2013/11/27)

>  <Rbt.Parameter_File>
/export/apps/rDock/src/rDock_2013.1_src/data/scripts/dock_solv.prm

>  <Rbt.Receptor>
prm/pocket_docking_6.prm

>  <SCORE>
-22.0182

>  <SCORE.INTER>
-23.6905

>  <SCORE.INTER.CONST>
1

>  <SCORE.INTER.POLAR>
-0.89259

>  <SCORE.INTER.ROT>
6

>  <SCORE.INTER.SOLV>
17.9436

>  <SCORE.INTER.VDW>
-26.3995

>  <SCORE.INTER.norm>
-0.640283

>  <SCORE.INTRA>
1.67226

>  <SCORE.INTRA.DIHEDRAL>
-0.527598

>  <SCORE.INTRA.DIHEDRAL.0>
15.6389

>  <SCORE.INTRA.POLAR>
0

>  <SCORE.INTRA.POLAR.0>
0

>  <SCORE.INTRA.REPUL>
0.00319362

>  <SCORE.INTRA.REPUL.0>
0

>  <SCORE.INTRA.SOLV>
2.52425

>  <SCORE.INTRA.SOLV.lig_0>
-90.9181

>  <SCORE.INTRA.VDW>
0.657971

>  <SCORE.INTRA.VDW.0>
-3.14158

>  <SCORE.INTRA.norm>
0.0451963

>  <SCORE.RESTR>
0

>  <SCORE.RESTR.CAVITY>
0

>  <SCORE.RESTR.norm>
0

>  <SCORE.SYSTEM>
0

>  <SCORE.SYSTEM.CONST>
0

>  <SCORE.SYSTEM.DIHEDRAL>
0

>  <SCORE.SYSTEM.SOLV>
0

>  <SCORE.SYSTEM.norm>
0

>  <SCORE.heavy>
37

>  <SCORE.norm>
-0.595087

>  <RMSD>
9.354

$$$$
1yrj_lig
 OpenBabel11021811423D
libRbt.so/2013.1/901 2013/11/27
 37 40  0  0  0  0  0  0  0  0999 V2000
   38.6351   -0.0087    8.0502 C   0  0  1  0  0  0  0  0  0  0  0  0
   39.2396    0.0300    9.4674 C   0  0  1  0  0  0  0  0  0  0  0  0
   38.7420    1.2440   10.2679 C   0  0  0  0  0  0  0  0  0  0  0  0
   39.0265    2.5513    9.4833 C   0  0  1  0  0  0  0  0  0  0  0  0
   38.3620    2.4887    8.0949 C   0  0  1  0  0  0  0  0  0  0  0  0
   38.6571    3.8413    7.3194 C   0  0  1  0  0  0  0  0  0  0  0  0
   38.1022    5.0296    8.1216 C   0  0  1  0  0  0  0  0  0  0  0  0
   38.7633    5.0182    9.5213 C   0  0  2  0  0  0  0  0  0  0  0  0
   37.1184    7.0360    6.8916 C   0  0  0  0  0  0  0  0  0  0  0  0
   38.9764   -1.2128   10.2113 N   0  0  0  0  0  0  0  0  0  0  0  0
   38.3315    6.3043    7.3732 N   0  0  0  0  0  0  0  0  0  0  0  0
   37.2508   -0.4038    8.0234 O   0  0  0  0  0  0  0  0  0  0  0  0
   38.8675    1.2920    7.3922 O   0  0  0  0  0  0  0  0  0  0  0  0
   38.5297    3.7500   10.1967 O   0  0  0  0  0  0  0  0  0  0  0  0
   40.0531    4.0240    7.2089 O   0  0  0  0  0  0  0  0  0  0  0  0
   38.2560    6.0579   10.3586 O   0  0  0  0  0  0  0  0  0  0  0  0
   38.6481    5.9179   11.7443 C   0  0  2  0  0  0  0  0  0  0  0  0
   38.0219    6.9783   12.6647 C   0  0  1  0  0  0  0  0  0  0  0  0
   38.6094    8.3858   12.3778 C   0  0  2  0  0  0  0  0  0  0  0  0
   40.1115    8.3600   12.5443 C   0  0  1  0  0  0  0  0  0  0  0  0
   40.7137    7.3059   11.5853 C   0  0  1  0  0  0  0  0  0  0  0  0
   42.2292    7.1781   11.7220 C   0  0  0  0  0  0  0  0  0  0  0  0
   40.6410    9.7100   12.2606 N   0  0  0  0  0  0  0  0  0  0  0  0
   40.1228    5.9859   11.8693 O   0  0  0  0  0  0  0  0  0  0  0  0
   36.5976    6.9399   12.4948 O   0  0  0  0  0  0  0  0  0  0  0  0
   38.0603    9.3353   13.3019 O   0  0  0  0  0  0  0  0  0  0  0  0
   42.6816    6.1155   10.9257 O   0  0  0  0  0  0  0  0  0  0  0  0
   36.7760   -1.8110    7.6937 C   0  0  1  0  0  0  0  0  0  0  0  0
   35.3580   -1.9637    8.2869 C   0  0  1  0  0  0  0  0  0  0  0  0
   34.7549   -3.3479    7.9460 C   0  0  2  0  0  0  0  0  0  0  0  0
   34.6987   -3.5344    6.4251 C   0  0  1  0  0  0  0  0  0  0  0  0
   36.1213   -3.4204    5.8200 C   0  0  0  0  0  0  0  0  0  0  0  0
   36.6922   -2.0385    6.1552 C   0  0  2  0  0  0  0  0  0  0  0  0
   34.1316   -4.8638    6.1065 N   0  0  0  0  0  0  0  0  0  0  0  0
   38.0213   -1.9639    5.5546 N   0  0  0  0  0  0  0  0  0  0  0  0
   35.4315   -1.8334    9.7234 O   0  0  0  0  0  0  0  0  0  0  0  0
   33.4246   -3.4262    8.5018 O   0  0  0  0  0  0  0  0  0  0  0  0
  1  2  1  0  0  0  0
  1 12  1  1  0  0  0
  1 13  1  0  0  0  0
  2  3  1  0  0  0  0
  2 10  1  1  0  0  0
  4  3  1  1  0  0  0
  4  5  1  0  0  0  0
  4 14  1  0  0  0  0
  5  6  1  0  0  0  0
  5 13  1  6  0  0  0
  6  7  1  0  0  0  0
  6 15  1  1  0  0  0
  7  8  1  0  0  0  0
  7 11  1  6  0  0  0
  8 14  1  0  0  0  0
  8 16  1  1  0  0  0
  9 11  1  0  0  0  0
 17 16  1  6  0  0  0
 17 18  1  0  0  0  0
 17 24  1  0  0  0  0
 18 19  1  0  0  0  0
 18 25  1  6  0  0  0
 19 20  1  0  0  0  0
 19 26  1  1  0  0  0
 20 21  1  0  0  0  0
 20 23  1  6  0  0  0
 21 22  1  1  0  0  0
 21 24  1  0  0  0  0
 22 27  1  0  0  0  0
 28 12  1  6  0  0  0
 28 29  1  0  0  0  0
 28 33  1  0  0  0  0
 29 30  1  0  0  0  0
 29 36  1  1  0  0  0
 30 31  1  0  0  0  0
 30 37  1  6  0  0  0
 31 32  1  0  0  0  0
 31 34  1  1  0  0  0
 32 33  1  0  0  0  0
 33 35  1  1  0  0  0
M  END
>  <CHROM.1>
-99.16754889,114.51206328,168.42329631,-175.89489970,174.01490485,158.55904432
38.07847107,2.77513576,9.31463077,-1.99511187,0.68691379,0.67322679

>  <Name>
1yrj_lig

>  <RI>
0

>  <Rbt.Current_Directory>
/home/itssahil/PROJECTS/Mol_Feturizer/New_Systems/rnas/1yrj

>  <Rbt.Executable>
rbdock ($Id: //depot/dev/client3/rdock/2013.1/src/exe/rbdock.cxx#4 $)

>  <Rbt.Library>
libRbt.so (2013.1, Build901 2013/11/27)

>  <Rbt.Parameter_File>
/export/apps/rDock/src/rDock_2013.1_src/data/scripts/dock_solv.prm

>  <Rbt.Receptor>
prm/pocket_docking_8.prm

>  <SCORE>
-25.6838

>  <SCORE.INTER>
-22.8789

>  <SCORE.INTER.CONST>
1

>  <SCORE.INTER.POLAR>
-1.8286

>  <SCORE.INTER.ROT>
6

>  <SCORE.INTER.SOLV>
18.2769

>  <SCORE.INTER.VDW>
-22.8496

>  <SCORE.INTER.norm>
-0.61835

>  <SCORE.INTRA>
-2.80484

>  <SCORE.INTRA.DIHEDRAL>
-6.30643

>  <SCORE.INTRA.DIHEDRAL.0>
15.6389

>  <SCORE.INTRA.POLAR>
0

>  <SCORE.INTRA.POLAR.0>
0

>  <SCORE.INTRA.REPUL>
0

>  <SCORE.INTRA.REPUL.0>
0

>  <SCORE.INTRA.SOLV>
-0.882826

>  <SCORE.INTRA.SOLV.lig_0>
-90.9181

>  <SCORE.INTRA.VDW>
0.789793

>  <SCORE.INTRA.VDW.0>
-3.14158

>  <SCORE.INTRA.norm>
-0.0758064

>  <SCORE.RESTR>
0

>  <SCORE.RESTR.CAVITY>
0

>  <SCORE.RESTR.norm>
0

>  <SCORE.SYSTEM>
0

>  <SCORE.SYSTEM.CONST>
0

>  <SCORE.SYSTEM.DIHEDRAL>
0

>  <SCORE.SYSTEM.SOLV>
0

>  <SCORE.SYSTEM.norm>
0

>  <SCORE.heavy>
37

>  <SCORE.norm>
-0.694156

>  <RMSD>
9.480

$$$$
1yrj_lig
 OpenBabel11021811423D
libRbt.so/2013.1/901 2013/11/27
 37 40  0  0  0  0  0  0  0  0999 V2000
   40.4838    5.9990   11.6158 C   0  0  1  0  0  0  0  0  0  0  0  0
   40.4026    4.9624   10.4781 C   0  0  1  0  0  0  0  0  0  0  0  0
   40.2200    5.6321    9.1068 C   0  0  0  0  0  0  0  0  0  0  0  0
   38.9788    6.5620    9.1301 C   0  0  1  0  0  0  0  0  0  0  0  0
   39.1267    7.6116   10.2479 C   0  0  1  0  0  0  0  0  0  0  0  0
   37.8518    8.5564   10.2413 C   0  0  1  0  0  0  0  0  0  0  0  0
   37.7277    9.2489    8.8744 C   0  0  1  0  0  0  0  0  0  0  0  0
   37.6318    8.1533    7.7850 C   0  0  2  0  0  0  0  0  0  0  0  0
   36.5782   11.2943    9.8752 C   0  0  0  0  0  0  0  0  0  0  0  0
   41.5766    4.0745   10.4587 N   0  0  0  0  0  0  0  0  0  0  0  0
   36.5571   10.1801    8.8766 N   0  0  0  0  0  0  0  0  0  0  0  0
   41.7345    6.7109   11.6601 O   0  0  0  0  0  0  0  0  0  0  0  0
   39.3191    6.9016   11.5285 O   0  0  0  0  0  0  0  0  0  0  0  0
   38.7817    7.2624    7.8405 O   0  0  0  0  0  0  0  0  0  0  0  0
   36.6888    7.7765   10.4246 O   0  0  0  0  0  0  0  0  0  0  0  0
   37.5757    8.7114    6.4716 O   0  0  0  0  0  0  0  0  0  0  0  0
   37.9275    7.7664    5.4339 C   0  0  2  0  0  0  0  0  0  0  0  0
   39.3667    7.9339    4.9199 C   0  0  1  0  0  0  0  0  0  0  0  0
   39.5259    9.2551    4.1216 C   0  0  2  0  0  0  0  0  0  0  0  0
   38.5457    9.2824    2.9712 C   0  0  1  0  0  0  0  0  0  0  0  0
   37.1070    9.1418    3.5225 C   0  0  1  0  0  0  0  0  0  0  0  0
   36.0507    9.1110    2.4201 C   0  0  0  0  0  0  0  0  0  0  0  0
   38.7178   10.5517    2.2346 N   0  0  0  0  0  0  0  0  0  0  0  0
   36.9933    7.8890    4.2906 O   0  0  0  0  0  0  0  0  0  0  0  0
   40.2581    7.8674    6.0424 O   0  0  0  0  0  0  0  0  0  0  0  0
   40.8567    9.3430    3.5943 O   0  0  0  0  0  0  0  0  0  0  0  0
   35.9947   10.3643    1.7924 O   0  0  0  0  0  0  0  0  0  0  0  0
   41.8820    8.1366   12.1701 C   0  0  1  0  0  0  0  0  0  0  0  0
   41.4169    9.0762   11.0357 C   0  0  1  0  0  0  0  0  0  0  0  0
   41.4652   10.5579   11.4813 C   0  0  2  0  0  0  0  0  0  0  0  0
   40.5781   10.7629   12.7150 C   0  0  1  0  0  0  0  0  0  0  0  0
   41.0568    9.8523   13.8745 C   0  0  0  0  0  0  0  0  0  0  0  0
   40.9855    8.3913   13.4179 C   0  0  2  0  0  0  0  0  0  0  0  0
   40.6377   12.1787   13.1421 N   0  0  0  0  0  0  0  0  0  0  0  0
   41.4259    7.5669   14.5401 N   0  0  0  0  0  0  0  0  0  0  0  0
   42.2890    8.9080    9.8969 O   0  0  0  0  0  0  0  0  0  0  0  0
   40.9982   11.3865   10.3950 O   0  0  0  0  0  0  0  0  0  0  0  0
  1  2  1  0  0  0  0
  1 12  1  6  0  0  0
  1 13  1  0  0  0  0
  2  3  1  0  0  0  0
  2 10  1  6  0  0  0
  4  3  1  6  0  0  0
  4  5  1  0  0  0  0
  4 14  1  0  0  0  0
  5  6  1  0  0  0  0
  5 13  1  1  0  0  0
  6  7  1  0  0  0  0
  6 15  1  6  0  0  0
  7  8  1  0  0  0  0
  7 11  1  1  0  0  0
  8 14  1  0  0  0  0
  8 16  1  6  0  0  0
  9 11  1  0  0  0  0
 17 16  1  1  0  0  0
 17 18  1  0  0  0  0
 17 24  1  0  0  0  0
 18 19  1  0  0  0  0
 18 25  1  1  0  0  0
 19 20  1  0  0  0  0
 19 26  1  6  0  0  0
 20 21  1  0  0  0  0
 20 23  1  1  0  0  0
 21 22  1  6  0  0  0
 21 24  1  0  0  0  0
 22 27  1  0  0  0  0
 28 12  1  6  0  0  0
 28 29  1  0  0  0  0
 28 33  1  0  0  0  0
 29 30  1  0  0  0  0
 29 36  1  6  0  0  0
 30 31  1  0  0  0  0
 30 37  1  6  0  0  0
 31 32  1  0  0  0  0
 31 34  1  1  0  0  0
 32 33  1  0  0  0  0
 33 35  1  1  0  0  0
M  END
>  <CHROM.1>
150.10780808,60.34602452,160.71470240,-100.71845815,-67.50808152,-79.25493210
39.31852324,8.52215062,8.56590939,-0.62659357,1.14337956,-2.37530138

>  <Name>
1yrj_lig

>  <RI>
0

>  <Rbt.Current_Directory>
/home/itssahil/PROJECTS/Mol_Feturizer/New_Systems/rnas/1yrj

>  <Rbt.Executable>
rbdock ($Id: //depot/dev/client3/rdock/2013.1/src/exe/rbdock.cxx#4 $)

>  <Rbt.Library>
libRbt.so (2013.1, Build901 2013/11/27)

>  <Rbt.Parameter_File>
/export/apps/rDock/src/rDock_2013.1_src/data/scripts/dock_solv.prm

>  <Rbt.Receptor>
prm/pocket_docking_8.prm

>  <SCORE>
-11.4719

>  <SCORE.INTER>
-12.5734

>  <SCORE.INTER.CONST>
1

>  <SCORE.INTER.POLAR>
-1.27923

>  <SCORE.INTER.ROT>
6

>  <SCORE.INTER.SOLV>
20.7123

>  <SCORE.INTER.VDW>
-18.6223

>  <SCORE.INTER.norm>
-0.339823

>  <SCORE.INTRA>
1.10158

>  <SCORE.INTRA.DIHEDRAL>
-2.97248

>  <SCORE.INTRA.DIHEDRAL.0>
15.6389

>  <SCORE.INTRA.POLAR>
0

>  <SCORE.INTRA.POLAR.0>
0

>  <SCORE.INTRA.REPUL>
0

>  <SCORE.INTRA.REPUL.0>
0

>  <SCORE.INTRA.SOLV>
0.392104

>  <SCORE.INTRA.SOLV.lig_0>
-90.9181

>  <SCORE.INTRA.VDW>
2.39176

>  <SCORE.INTRA.VDW.0>
-3.14158

>  <SCORE.INTRA.norm>
0.0297724

>  <SCORE.RESTR>
0

>  <SCORE.RESTR.CAVITY>
0

>  <SCORE.RESTR.norm>
0

>  <SCORE.SYSTEM>
0

>  <SCORE.SYSTEM.CONST>
0

>  <SCORE.SYSTEM.DIHEDRAL>
0

>  <SCORE.SYSTEM.SOLV>
0

>  <SCORE.SYSTEM.norm>
0

>  <SCORE.heavy>
37

>  <SCORE.norm>
-0.31005

>  <RMSD>
9.517

$$$$
1yrj_lig
 OpenBabel11021811423D
libRbt.so/2013.1/901 2013/11/27
 37 40  0  0  0  0  0  0  0  0999 V2000
   40.4840    0.6360    8.5560 C   0  0  1  0  0  0  0  0  0  0  0  0
   41.9576    1.0091    8.8108 C   0  0  1  0  0  0  0  0  0  0  0  0
   42.0987    2.0389    9.9430 C   0  0  0  0  0  0  0  0  0  0  0  0
   41.2316    3.2880    9.6370 C   0  0  1  0  0  0  0  0  0  0  0  0
   39.7610    2.8741    9.4400 C   0  0  1  0  0  0  0  0  0  0  0  0
   38.8951    4.1700    9.1417 C   0  0  1  0  0  0  0  0  0  0  0  0
   39.0176    5.1559   10.3149 C   0  0  1  0  0  0  0  0  0  0  0  0
   40.5152    5.5006   10.5015 C   0  0  2  0  0  0  0  0  0  0  0  0
   37.8536    7.2275   11.2423 C   0  0  0  0  0  0  0  0  0  0  0  0
   42.7834   -0.1759    9.0948 N   0  0  0  0  0  0  0  0  0  0  0  0
   38.1642    6.3585   10.0643 N   0  0  0  0  0  0  0  0  0  0  0  0
   39.9212   -0.2185    9.5691 O   0  0  0  0  0  0  0  0  0  0  0  0
   39.7021    1.8720    8.3567 O   0  0  0  0  0  0  0  0  0  0  0  0
   41.3030    4.2960   10.7193 O   0  0  0  0  0  0  0  0  0  0  0  0
   39.4007    4.8182    7.9933 O   0  0  0  0  0  0  0  0  0  0  0  0
   40.7274    6.3677   11.6163 O   0  0  0  0  0  0  0  0  0  0  0  0
   42.0909    6.8406   11.7208 C   0  0  2  0  0  0  0  0  0  0  0  0
   42.2524    8.0250   12.6876 C   0  0  1  0  0  0  0  0  0  0  0  0
   41.5845    9.3058   12.1203 C   0  0  2  0  0  0  0  0  0  0  0  0
   42.1759    9.6395   10.7699 C   0  0  1  0  0  0  0  0  0  0  0  0
   41.9716    8.4415    9.8125 C   0  0  1  0  0  0  0  0  0  0  0  0
   42.5844    8.6742    8.4333 C   0  0  0  0  0  0  0  0  0  0  0  0
   41.5181   10.8581   10.2546 N   0  0  0  0  0  0  0  0  0  0  0  0
   42.5993    7.2381   10.3872 O   0  0  0  0  0  0  0  0  0  0  0  0
   41.7077    7.6471   13.9602 O   0  0  0  0  0  0  0  0  0  0  0  0
   41.8183   10.4064   13.0096 O   0  0  0  0  0  0  0  0  0  0  0  0
   41.8092    8.0229    7.4624 O   0  0  0  0  0  0  0  0  0  0  0  0
   39.0145   -1.4034    9.2722 C   0  0  1  0  0  0  0  0  0  0  0  0
   38.9802   -2.2800   10.5437 C   0  0  1  0  0  0  0  0  0  0  0  0
   38.0251   -3.4852   10.3668 C   0  0  2  0  0  0  0  0  0  0  0  0
   36.6101   -2.9894   10.0457 C   0  0  1  0  0  0  0  0  0  0  0  0
   36.6234   -2.1381    8.7504 C   0  0  0  0  0  0  0  0  0  0  0  0
   37.5612   -0.9433    8.9531 C   0  0  2  0  0  0  0  0  0  0  0  0
   35.7049   -4.1465    9.8670 N   0  0  0  0  0  0  0  0  0  0  0  0
   37.5326   -0.1589    7.7216 N   0  0  0  0  0  0  0  0  0  0  0  0
   40.3094   -2.7793   10.8080 O   0  0  0  0  0  0  0  0  0  0  0  0
   38.0128   -4.2534   11.5893 O   0  0  0  0  0  0  0  0  0  0  0  0
  1  2  1  0  0  0  0
  1 12  1  1  0  0  0
  1 13  1  0  0  0  0
  2  3  1  0  0  0  0
  2 10  1  1  0  0  0
  4  3  1  1  0  0  0
  4  5  1  0  0  0  0
  4 14  1  0  0  0  0
  5  6  1  0  0  0  0
  5 13  1  6  0  0  0
  6  7  1  0  0  0  0
  6 15  1  6  0  0  0
  7  8  1  0  0  0  0
  7 11  1  6  0  0  0
  8 14  1  0  0  0  0
  8 16  1  1  0  0  0
  9 11  1  0  0  0  0
 17 16  1  6  0  0  0
 17 18  1  0  0  0  0
 17 24  1  0  0  0  0
 18 19  1  0  0  0  0
 18 25  1  1  0  0  0
 19 20  1  0  0  0  0
 19 26  1  1  0  0  0
 20 21  1  0  0  0  0
 20 23  1  6  0  0  0
 21 22  1  6  0  0  0
 21 24  1  0  0  0  0
 22 27  1  0  0  0  0
 28 12  1  1  0  0  0
 28 29  1  0  0  0  0
 28 33  1  0  0  0  0
 29 30  1  0  0  0  0
 29 36  1  6  0  0  0
 30 31  1  0  0  0  0
 30 37  1  1  0  0  0
 31 32  1  0  0  0  0
 31 34  1  6  0  0  0
 32 33  1  0  0  0  0
 33 35  1  6  0  0  0
M  END
>  <CHROM.1>
-138.21551129,163.12806802,-172.84639190,165.79743751,-147.34045031,163.44576376
40.13453047,3.43626142,10.11250422,-1.86784683,-0.17243131,0.06034816

>  <Name>
1yrj_lig

>  <RI>
0

>  <Rbt.Current_Directory>
/home/itssahil/PROJECTS/Mol_Feturizer/New_Systems/rnas/1yrj

>  <Rbt.Executable>
rbdock ($Id: //depot/dev/client3/rdock/2013.1/src/exe/rbdock.cxx#4 $)

>  <Rbt.Library>
libRbt.so (2013.1, Build901 2013/11/27)

>  <Rbt.Parameter_File>
/export/apps/rDock/src/rDock_2013.1_src/data/scripts/dock_solv.prm

>  <Rbt.Receptor>
prm/pocket_docking_6.prm

>  <SCORE>
-16.9474

>  <SCORE.INTER>
-15.0207

>  <SCORE.INTER.CONST>
1

>  <SCORE.INTER.POLAR>
0

>  <SCORE.INTER.ROT>
6

>  <SCORE.INTER.SOLV>
17.6968

>  <SCORE.INTER.VDW>
-23.5127

>  <SCORE.INTER.norm>
-0.405964

>  <SCORE.INTRA>
-1.9267

>  <SCORE.INTRA.DIHEDRAL>
-4.26076

>  <SCORE.INTRA.DIHEDRAL.0>
15.6389

>  <SCORE.INTRA.POLAR>
0

>  <SCORE.INTRA.POLAR.0>
0

>  <SCORE.INTRA.REPUL>
0.0447186

>  <SCORE.INTRA.REPUL.0>
0

>  <SCORE.INTRA.SOLV>
-0.585395

>  <SCORE.INTRA.SOLV.lig_0>
-90.9181

>  <SCORE.INTRA.VDW>
0.272786

>  <SCORE.INTRA.VDW.0>
-3.14158

>  <SCORE.INTRA.norm>
-0.0520729

>  <SCORE.RESTR>
0

>  <SCORE.RESTR.CAVITY>
0

>  <SCORE.RESTR.norm>
0

>  <SCORE.SYSTEM>
0

>  <SCORE.SYSTEM.CONST>
0

>  <SCORE.SYSTEM.DIHEDRAL>
0

>  <SCORE.SYSTEM.SOLV>
0

>  <SCORE.SYSTEM.norm>
0

>  <SCORE.heavy>
37

>  <SCORE.norm>
-0.458037

>  <RMSD>
9.528

$$$$
1yrj_lig
 OpenBabel11021811423D
libRbt.so/2013.1/901 2013/11/27
 37 40  0  0  0  0  0  0  0  0999 V2000
   39.2296    0.2996    9.2028 C   0  0  1  0  0  0  0  0  0  0  0  0
   38.0570    0.6732    8.2750 C   0  0  1  0  0  0  0  0  0  0  0  0
   38.3035    2.0065    7.5512 C   0  0  0  0  0  0  0  0  0  0  0  0
   38.6017    3.1250    8.5836 C   0  0  1  0  0  0  0  0  0  0  0  0
   39.8104    2.7312    9.4537 C   0  0  1  0  0  0  0  0  0  0  0  0
   40.1016    3.8963   10.4909 C   0  0  1  0  0  0  0  0  0  0  0  0
   40.3940    5.2021    9.7340 C   0  0  1  0  0  0  0  0  0  0  0  0
   39.1723    5.5260    8.8401 C   0  0  2  0  0  0  0  0  0  0  0  0
   42.1639    6.4981   11.0357 C   0  0  0  0  0  0  0  0  0  0  0  0
   37.7680   -0.3900    7.2988 N   0  0  0  0  0  0  0  0  0  0  0  0
   40.7193    6.2940   10.7033 N   0  0  0  0  0  0  0  0  0  0  0  0
   40.3995   -0.1580    8.4991 O   0  0  0  0  0  0  0  0  0  0  0  0
   39.5147    1.4365   10.0999 O   0  0  0  0  0  0  0  0  0  0  0  0
   38.8851    4.4244    7.9327 O   0  0  0  0  0  0  0  0  0  0  0  0
   38.9534    4.1176   11.2829 O   0  0  0  0  0  0  0  0  0  0  0  0
   39.3853    6.6968    8.0505 O   0  0  0  0  0  0  0  0  0  0  0  0
   40.4423    6.5431    7.0744 C   0  0  2  0  0  0  0  0  0  0  0  0
   41.0730    7.8776    6.6443 C   0  0  1  0  0  0  0  0  0  0  0  0
   40.0774    8.7230    5.8063 C   0  0  2  0  0  0  0  0  0  0  0  0
   39.6253    7.9365    4.5973 C   0  0  1  0  0  0  0  0  0  0  0  0
   38.9694    6.6151    5.0634 C   0  0  1  0  0  0  0  0  0  0  0  0
   38.5247    5.7319    3.8998 C   0  0  0  0  0  0  0  0  0  0  0  0
   38.6768    8.7641    3.8235 N   0  0  0  0  0  0  0  0  0  0  0  0
   39.9318    5.8449    5.8715 O   0  0  0  0  0  0  0  0  0  0  0  0
   41.5148    8.5688    7.8216 O   0  0  0  0  0  0  0  0  0  0  0  0
   40.7213    9.9241    5.3593 O   0  0  0  0  0  0  0  0  0  0  0  0
   39.6115    5.5087    3.0414 O   0  0  0  0  0  0  0  0  0  0  0  0
   41.5466   -0.9093    9.1579 C   0  0  1  0  0  0  0  0  0  0  0  0
   42.1710    0.0401   10.2043 C   0  0  1  0  0  0  0  0  0  0  0  0
   43.3124   -0.6580   10.9827 C   0  0  2  0  0  0  0  0  0  0  0  0
   42.7778   -1.9136   11.6818 C   0  0  1  0  0  0  0  0  0  0  0  0
   42.1810   -2.8927   10.6388 C   0  0  0  0  0  0  0  0  0  0  0  0
   41.0438   -2.1874    9.8922 C   0  0  2  0  0  0  0  0  0  0  0  0
   43.8763   -2.5820   12.4147 N   0  0  0  0  0  0  0  0  0  0  0  0
   40.4977   -3.1452    8.9345 N   0  0  0  0  0  0  0  0  0  0  0  0
   42.7129    1.1957    9.5283 O   0  0  0  0  0  0  0  0  0  0  0  0
   43.8412    0.2635   11.9604 O   0  0  0  0  0  0  0  0  0  0  0  0
  1  2  1  0  0  0  0
  1 12  1  6  0  0  0
  1 13  1  0  0  0  0
  2  3  1  0  0  0  0
  2 10  1  6  0  0  0
  4  3  1  6  0  0  0
  4  5  1  0  0  0  0
  4 14  1  0  0  0  0
  5  6  1  0  0  0  0
  5 13  1  1  0  0  0
  6  7  1  0  0  0  0
  6 15  1  1  0  0  0
  7  8  1  0  0  0  0
  7 11  1  1  0  0  0
  8 14  1  0  0  0  0
  8 16  1  6  0  0  0
  9 11  1  0  0  0  0
 17 16  1  1  0  0  0
 17 18  1  0  0  0  0
 17 24  1  0  0  0  0
 18 19  1  0  0  0  0
 18 25  1  1  0  0  0
 19 20  1  0  0  0  0
 19 26  1  6  0  0  0
 20 21  1  0  0  0  0
 20 23  1  1  0  0  0
 21 22  1  6  0  0  0
 21 24  1  0  0  0  0
 22 27  1  0  0  0  0
 28 12  1  1  0  0  0
 28 29  1  0  0  0  0
 28 33  1  0  0  0  0
 29 30  1  0  0  0  0
 29 36  1  6  0  0  0
 30 31  1  0  0  0  0
 30 37  1  1  0  0  0
 31 32  1  0  0  0  0
 31 34  1  6  0  0  0
 32 33  1  0  0  0  0
 33 35  1  6  0  0  0
M  END
>  <CHROM.1>
-163.89084286,92.38406902,65.28647337,-156.06418442,54.40133255,-62.81136883
40.40254005,3.34211747,8.40529057,1.22281060,0.98316264,2.95228277

>  <Name>
1yrj_lig

>  <RI>
0

>  <Rbt.Current_Directory>
/home/itssahil/PROJECTS/Mol_Feturizer/New_Systems/rnas/1yrj

>  <Rbt.Executable>
rbdock ($Id: //depot/dev/client3/rdock/2013.1/src/exe/rbdock.cxx#4 $)

>  <Rbt.Library>
libRbt.so (2013.1, Build901 2013/11/27)

>  <Rbt.Parameter_File>
/export/apps/rDock/src/rDock_2013.1_src/data/scripts/dock_solv.prm

>  <Rbt.Receptor>
prm/pocket_docking_4.prm

>  <SCORE>
-29.9914

>  <SCORE.INTER>
-24.373

>  <SCORE.INTER.CONST>
1

>  <SCORE.INTER.POLAR>
-1.51641

>  <SCORE.INTER.ROT>
6

>  <SCORE.INTER.SOLV>
16.2087

>  <SCORE.INTER.VDW>
-24.1969

>  <SCORE.INTER.norm>
-0.658731

>  <SCORE.INTRA>
-5.61886

>  <SCORE.INTRA.DIHEDRAL>
-10.9165

>  <SCORE.INTRA.DIHEDRAL.0>
15.6389

>  <SCORE.INTRA.POLAR>
0

>  <SCORE.INTRA.POLAR.0>
0

>  <SCORE.INTRA.REPUL>
0

>  <SCORE.INTRA.REPUL.0>
0

>  <SCORE.INTRA.SOLV>
-0.212432

>  <SCORE.INTRA.SOLV.lig_0>
-90.9181

>  <SCORE.INTRA.VDW>
-0.0543791

>  <SCORE.INTRA.VDW.0>
-3.14158

>  <SCORE.INTRA.norm>
-0.151861

>  <SCORE.RESTR>
0.000502718

>  <SCORE.RESTR.CAVITY>
0.000502718

>  <SCORE.RESTR.norm>
1.3587e-05

>  <SCORE.SYSTEM>
0

>  <SCORE.SYSTEM.CONST>
0

>  <SCORE.SYSTEM.DIHEDRAL>
0

>  <SCORE.SYSTEM.SOLV>
0

>  <SCORE.SYSTEM.norm>
0

>  <SCORE.heavy>
37

>  <SCORE.norm>
-0.810578

>  <RMSD>
9.547

$$$$
1yrj_lig
 OpenBabel11021811423D
libRbt.so/2013.1/901 2013/11/27
 37 40  0  0  0  0  0  0  0  0999 V2000
   39.4428    6.7560    9.1648 C   0  0  1  0  0  0  0  0  0  0  0  0
   38.6673    5.5345    8.6335 C   0  0  1  0  0  0  0  0  0  0  0  0
   39.1519    5.1133    7.2371 C   0  0  0  0  0  0  0  0  0  0  0  0
   39.0727    6.3163    6.2613 C   0  0  1  0  0  0  0  0  0  0  0  0
   39.9019    7.4941    6.8074 C   0  0  1  0  0  0  0  0  0  0  0  0
   39.8146    8.7050    5.7856 C   0  0  1  0  0  0  0  0  0  0  0  0
   40.3536    8.2655    4.4146 C   0  0  1  0  0  0  0  0  0  0  0  0
   39.5204    7.0523    3.9345 C   0  0  2  0  0  0  0  0  0  0  0  0
   41.3489    9.4228    2.3709 C   0  0  0  0  0  0  0  0  0  0  0  0
   38.7357    4.3939    9.5616 N   0  0  0  0  0  0  0  0  0  0  0  0
   40.3217    9.4158    3.4590 N   0  0  0  0  0  0  0  0  0  0  0  0
   40.7841    6.4487    9.5886 O   0  0  0  0  0  0  0  0  0  0  0  0
   39.3984    7.8310    8.1543 O   0  0  0  0  0  0  0  0  0  0  0  0
   39.5664    5.9715    4.9086 O   0  0  0  0  0  0  0  0  0  0  0  0
   38.4626    9.0724    5.6076 O   0  0  0  0  0  0  0  0  0  0  0  0
   39.9963    6.5381    2.6901 O   0  0  0  0  0  0  0  0  0  0  0  0
   38.9782    5.8431    1.9324 C   0  0  2  0  0  0  0  0  0  0  0  0
   39.3439    5.6543    0.4511 C   0  0  1  0  0  0  0  0  0  0  0  0
   39.3383    7.0100   -0.3041 C   0  0  2  0  0  0  0  0  0  0  0  0
   37.9832    7.6667   -0.1723 C   0  0  1  0  0  0  0  0  0  0  0  0
   37.6576    7.8697    1.3265 C   0  0  1  0  0  0  0  0  0  0  0  0
   36.2794    8.4863    1.5549 C   0  0  0  0  0  0  0  0  0  0  0  0
   38.0105    8.9547   -0.8960 N   0  0  0  0  0  0  0  0  0  0  0  0
   37.6896    6.5689    2.0188 O   0  0  0  0  0  0  0  0  0  0  0  0
   40.6185    4.9990    0.3801 O   0  0  0  0  0  0  0  0  0  0  0  0
   39.6088    6.7888   -1.6951 O   0  0  0  0  0  0  0  0  0  0  0  0
   36.2548    9.7841    1.0229 O   0  0  0  0  0  0  0  0  0  0  0  0
   41.7310    7.4636   10.2113 C   0  0  1  0  0  0  0  0  0  0  0  0
   42.0052    8.5453    9.1432 C   0  0  1  0  0  0  0  0  0  0  0  0
   42.9115    9.6681    9.7037 C   0  0  2  0  0  0  0  0  0  0  0  0
   42.2514   10.3112   10.9291 C   0  0  1  0  0  0  0  0  0  0  0  0
   42.0038    9.2430   12.0248 C   0  0  0  0  0  0  0  0  0  0  0  0
   41.0925    8.1512   11.4544 C   0  0  2  0  0  0  0  0  0  0  0  0
   43.1279   11.3758   11.4664 N   0  0  0  0  0  0  0  0  0  0  0  0
   40.8692    7.1764   12.5187 N   0  0  0  0  0  0  0  0  0  0  0  0
   42.6696    7.9360    8.0148 O   0  0  0  0  0  0  0  0  0  0  0  0
   43.1139   10.6607    8.6749 O   0  0  0  0  0  0  0  0  0  0  0  0
  1  2  1  0  0  0  0
  1 12  1  6  0  0  0
  1 13  1  0  0  0  0
  2  3  1  0  0  0  0
  2 10  1  1  0  0  0
  4  3  1  1  0  0  0
  4  5  1  0  0  0  0
  4 14  1  0  0  0  0
  5  6  1  0  0  0  0
  5 13  1  1  0  0  0
  6  7  1  0  0  0  0
  6 15  1  6  0  0  0
  7  8  1  0  0  0  0
  7 11  1  6  0  0  0
  8 14  1  0  0  0  0
  8 16  1  6  0  0  0
  9 11  1  0  0  0  0
 17 16  1  1  0  0  0
 17 18  1  0  0  0  0
 17 24  1  0  0  0  0
 18 19  1  0  0  0  0
 18 25  1  1  0  0  0
 19 20  1  0  0  0  0
 19 26  1  6  0  0  0
 20 21  1  0  0  0  0
 20 23  1  6  0  0  0
 21 22  1  6  0  0  0
 21 24  1  0  0  0  0
 22 27  1  0  0  0  0
 28 12  1  6  0  0  0
 28 29  1  0  0  0  0
 28 33  1  0  0  0  0
 29 30  1  0  0  0  0
 29 36  1  6  0  0  0
 30 31  1  0  0  0  0
 30 37  1  6  0  0  0
 31 32  1  0  0  0  0
 31 34  1  1  0  0  0
 32 33  1  0  0  0  0
 33 35  1  1  0  0  0
M  END
>  <CHROM.1>
-177.00573594,151.02598096,-154.62741370,162.98001922,-64.70761834,-63.65228125
39.94411664,7.68926879,5.56934694,0.99335005,1.02929848,1.97403660

>  <Name>
1yrj_lig

>  <RI>
0

>  <Rbt.Current_Directory>
/home/itssahil/PROJECTS/Mol_Feturizer/New_Systems/rnas/1yrj

>  <Rbt.Executable>
rbdock ($Id: //depot/dev/client3/rdock/2013.1/src/exe/rbdock.cxx#4 $)

>  <Rbt.Library>
libRbt.so (2013.1, Build901 2013/11/27)

>  <Rbt.Parameter_File>
/export/apps/rDock/src/rDock_2013.1_src/data/scripts/dock_solv.prm

>  <Rbt.Receptor>
prm/pocket_docking_8.prm

>  <SCORE>
-16.8867

>  <SCORE.INTER>
-10.8653

>  <SCORE.INTER.CONST>
1

>  <SCORE.INTER.POLAR>
-1.45528

>  <SCORE.INTER.ROT>
6

>  <SCORE.INTER.SOLV>
10.5338

>  <SCORE.INTER.VDW>
-13.5039

>  <SCORE.INTER.norm>
-0.293658

>  <SCORE.INTRA>
-6.02834

>  <SCORE.INTRA.DIHEDRAL>
-10.7145

>  <SCORE.INTRA.DIHEDRAL.0>
15.6389

>  <SCORE.INTRA.POLAR>
0

>  <SCORE.INTRA.POLAR.0>
0

>  <SCORE.INTRA.REPUL>
0

>  <SCORE.INTRA.REPUL.0>
0

>  <SCORE.INTRA.SOLV>
-0.445662

>  <SCORE.INTRA.SOLV.lig_0>
-90.9181

>  <SCORE.INTRA.VDW>
-0.448241

>  <SCORE.INTRA.VDW.0>
-3.14158

>  <SCORE.INTRA.norm>
-0.162928

>  <SCORE.RESTR>
0.00695299

>  <SCORE.RESTR.CAVITY>
0.00695299

>  <SCORE.RESTR.norm>
0.000187919

>  <SCORE.SYSTEM>
0

>  <SCORE.SYSTEM.CONST>
0

>  <SCORE.SYSTEM.DIHEDRAL>
0

>  <SCORE.SYSTEM.SOLV>
0

>  <SCORE.SYSTEM.norm>
0

>  <SCORE.heavy>
37

>  <SCORE.norm>
-0.456398

>  <RMSD>
9.641

$$$$
1yrj_lig
 OpenBabel11021811423D
libRbt.so/2013.1/901 2013/11/27
 37 40  0  0  0  0  0  0  0  0999 V2000
   38.2146    5.1877    8.8291 C   0  0  1  0  0  0  0  0  0  0  0  0
   38.2547    3.9652    7.8915 C   0  0  1  0  0  0  0  0  0  0  0  0
   39.1539    4.2116    6.6695 C   0  0  0  0  0  0  0  0  0  0  0  0
   38.7006    5.4948    5.9257 C   0  0  1  0  0  0  0  0  0  0  0  0
   38.7244    6.6983    6.8871 C   0  0  1  0  0  0  0  0  0  0  0  0
   38.2696    7.9982    6.0988 C   0  0  1  0  0  0  0  0  0  0  0  0
   39.2189    8.2444    4.9149 C   0  0  1  0  0  0  0  0  0  0  0  0
   39.1955    6.9898    4.0083 C   0  0  2  0  0  0  0  0  0  0  0  0
   39.0561   10.7900    4.9130 C   0  0  0  0  0  0  0  0  0  0  0  0
   38.6783    2.7448    8.5973 N   0  0  0  0  0  0  0  0  0  0  0  0
   38.8273    9.4964    4.1963 N   0  0  0  0  0  0  0  0  0  0  0  0
   39.4190    5.3658    9.5978 O   0  0  0  0  0  0  0  0  0  0  0  0
   37.8600    6.3857    8.0431 O   0  0  0  0  0  0  0  0  0  0  0  0
   39.5617    5.7980    4.7598 O   0  0  0  0  0  0  0  0  0  0  0  0
   36.9772    7.7962    5.5664 O   0  0  0  0  0  0  0  0  0  0  0  0
   40.1017    7.1085    2.9109 O   0  0  0  0  0  0  0  0  0  0  0  0
   39.7250    6.3032    1.7693 C   0  0  2  0  0  0  0  0  0  0  0  0
   40.8197    6.2226    0.6929 C   0  0  1  0  0  0  0  0  0  0  0  0
   41.0100    7.5901   -0.0156 C   0  0  2  0  0  0  0  0  0  0  0  0
   39.7016    8.0413   -0.6231 C   0  0  1  0  0  0  0  0  0  0  0  0
   38.6298    8.1411    0.4881 C   0  0  1  0  0  0  0  0  0  0  0  0
   37.2579    8.5458   -0.0467 C   0  0  0  0  0  0  0  0  0  0  0  0
   39.9133    9.3454   -1.2849 N   0  0  0  0  0  0  0  0  0  0  0  0
   38.4862    6.8339    1.1538 O   0  0  0  0  0  0  0  0  0  0  0  0
   42.0286    5.7591    1.3115 O   0  0  0  0  0  0  0  0  0  0  0  0
   41.9825    7.4605   -1.0617 O   0  0  0  0  0  0  0  0  0  0  0  0
   36.8273    7.6006   -0.9896 O   0  0  0  0  0  0  0  0  0  0  0  0
   39.4729    6.0864   10.9365 C   0  0  1  0  0  0  0  0  0  0  0  0
   40.9390    6.5167   11.1631 C   0  0  1  0  0  0  0  0  0  0  0  0
   41.0891    7.3224   12.4763 C   0  0  2  0  0  0  0  0  0  0  0  0
   40.1895    8.5633   12.4351 C   0  0  1  0  0  0  0  0  0  0  0  0
   38.7093    8.1441   12.2450 C   0  0  0  0  0  0  0  0  0  0  0  0
   38.5809    7.3631   10.9329 C   0  0  2  0  0  0  0  0  0  0  0  0
   40.3294    9.3227   13.6977 N   0  0  0  0  0  0  0  0  0  0  0  0
   37.1738    7.0027   10.7816 N   0  0  0  0  0  0  0  0  0  0  0  0
   41.7687    5.3376   11.2477 O   0  0  0  0  0  0  0  0  0  0  0  0
   42.4695    7.7187   12.6246 O   0  0  0  0  0  0  0  0  0  0  0  0
  1  2  1  0  0  0  0
  1 12  1  6  0  0  0
  1 13  1  0  0  0  0
  2  3  1  0  0  0  0
  2 10  1  1  0  0  0
  4  3  1  1  0  0  0
  4  5  1  0  0  0  0
  4 14  1  0  0  0  0
  5  6  1  0  0  0  0
  5 13  1  1  0  0  0
  6  7  1  0  0  0  0
  6 15  1  6  0  0  0
  7  8  1  0  0  0  0
  7 11  1  6  0  0  0
  8 14  1  0  0  0  0
  8 16  1  6  0  0  0
  9 11  1  0  0  0  0
 17 16  1  1  0  0  0
 17 18  1  0  0  0  0
 17 24  1  0  0  0  0
 18 19  1  0  0  0  0
 18 25  1  1  0  0  0
 19 20  1  0  0  0  0
 19 26  1  6  0  0  0
 20 21  1  0  0  0  0
 20 23  1  1  0  0  0
 21 22  1  6  0  0  0
 21 24  1  0  0  0  0
 22 27  1  0  0  0  0
 28 12  1  6  0  0  0
 28 29  1  0  0  0  0
 28 33  1  0  0  0  0
 29 30  1  0  0  0  0
 29 36  1  1  0  0  0
 30 31  1  0  0  0  0
 30 37  1  6  0  0  0
 31 32  1  0  0  0  0
 31 34  1  1  0  0  0
 32 33  1  0  0  0  0
 33 35  1  1  0  0  0
M  END
>  <CHROM.1>
-154.54436487,69.64714421,-154.55061639,-169.35011621,59.38904419,-159.39639079
39.40008155,7.01039000,5.89118489,-0.90765726,1.52110992,-2.16385224

>  <Name>
1yrj_lig

>  <RI>
0

>  <Rbt.Current_Directory>
/home/itssahil/PROJECTS/Mol_Feturizer/New_Systems/rnas/1yrj

>  <Rbt.Executable>
rbdock ($Id: //depot/dev/client3/rdock/2013.1/src/exe/rbdock.cxx#4 $)

>  <Rbt.Library>
libRbt.so (2013.1, Build901 2013/11/27)

>  <Rbt.Parameter_File>
/export/apps/rDock/src/rDock_2013.1_src/data/scripts/dock_solv.prm

>  <Rbt.Receptor>
prm/pocket_docking_8.prm

>  <SCORE>
-13.8553

>  <SCORE.INTER>
-10.8324

>  <SCORE.INTER.CONST>
1

>  <SCORE.INTER.POLAR>
-0.768606

>  <SCORE.INTER.ROT>
6

>  <SCORE.INTER.SOLV>
15.5111

>  <SCORE.INTER.VDW>
-17.4299

>  <SCORE.INTER.norm>
-0.292768

>  <SCORE.INTRA>
-3.03526

>  <SCORE.INTRA.DIHEDRAL>
-7.57363

>  <SCORE.INTRA.DIHEDRAL.0>
15.6389

>  <SCORE.INTRA.POLAR>
0

>  <SCORE.INTRA.POLAR.0>
0

>  <SCORE.INTRA.REPUL>
0

>  <SCORE.INTRA.REPUL.0>
0

>  <SCORE.INTRA.SOLV>
0.067976

>  <SCORE.INTRA.SOLV.lig_0>
-90.9181

>  <SCORE.INTRA.VDW>
0.717564

>  <SCORE.INTRA.VDW.0>
-3.14158

>  <SCORE.INTRA.norm>
-0.0820342

>  <SCORE.RESTR>
0.0124276

>  <SCORE.RESTR.CAVITY>
0.0124276

>  <SCORE.RESTR.norm>
0.000335882

>  <SCORE.SYSTEM>
0

>  <SCORE.SYSTEM.CONST>
0

>  <SCORE.SYSTEM.DIHEDRAL>
0

>  <SCORE.SYSTEM.SOLV>
0

>  <SCORE.SYSTEM.norm>
0

>  <SCORE.heavy>
37

>  <SCORE.norm>
-0.374466

>  <RMSD>
9.670

$$$$
1yrj_lig
 OpenBabel11021811423D
libRbt.so/2013.1/901 2013/11/27
 37 40  0  0  0  0  0  0  0  0999 V2000
   40.0265    1.4985    9.7127 C   0  0  1  0  0  0  0  0  0  0  0  0
   38.7264    1.7360    8.9197 C   0  0  1  0  0  0  0  0  0  0  0  0
   38.7893    3.0308    8.0939 C   0  0  0  0  0  0  0  0  0  0  0  0
   39.1321    4.2319    9.0133 C   0  0  1  0  0  0  0  0  0  0  0  0
   40.4622    3.9729    9.7459 C   0  0  1  0  0  0  0  0  0  0  0  0
   40.7955    5.2204   10.6682 C   0  0  1  0  0  0  0  0  0  0  0  0
   40.9016    6.4884    9.8055 C   0  0  1  0  0  0  0  0  0  0  0  0
   39.5606    6.6755    9.0550 C   0  0  2  0  0  0  0  0  0  0  0  0
   42.5403    7.5636   11.4381 C   0  0  0  0  0  0  0  0  0  0  0  0
   38.3957    0.5941    8.0516 N   0  0  0  0  0  0  0  0  0  0  0  0
   41.2654    7.6605   10.6605 N   0  0  0  0  0  0  0  0  0  0  0  0
   41.1311    1.0685    8.8953 O   0  0  0  0  0  0  0  0  0  0  0  0
   40.3386    2.7083   10.4988 O   0  0  0  0  0  0  0  0  0  0  0  0
   39.2427    5.5002    8.2571 O   0  0  0  0  0  0  0  0  0  0  0  0
   39.7397    5.4223   11.5842 O   0  0  0  0  0  0  0  0  0  0  0  0
   39.5936    7.8020    8.1778 O   0  0  0  0  0  0  0  0  0  0  0  0
   40.6191    7.7049    7.1617 C   0  0  2  0  0  0  0  0  0  0  0  0
   40.7842    8.9926    6.3381 C   0  0  1  0  0  0  0  0  0  0  0  0
   39.5509    9.2372    5.4284 C   0  0  2  0  0  0  0  0  0  0  0  0
   39.3393    8.0492    4.5181 C   0  0  1  0  0  0  0  0  0  0  0  0
   39.1472    6.7762    5.3759 C   0  0  1  0  0  0  0  0  0  0  0  0
   38.9743    5.5146    4.5331 C   0  0  0  0  0  0  0  0  0  0  0  0
   38.1580    8.3094    3.6695 N   0  0  0  0  0  0  0  0  0  0  0  0
   40.3244    6.5821    6.2413 O   0  0  0  0  0  0  0  0  0  0  0  0
   41.0154   10.0816    7.2433 O   0  0  0  0  0  0  0  0  0  0  0  0
   39.7703   10.4021    4.6211 O   0  0  0  0  0  0  0  0  0  0  0  0
   38.7670    4.4139    5.3777 O   0  0  0  0  0  0  0  0  0  0  0  0
   41.7442   -0.3223    8.9604 C   0  0  1  0  0  0  0  0  0  0  0  0
   42.2726   -0.5199   10.3984 C   0  0  1  0  0  0  0  0  0  0  0  0
   42.8599   -1.9394   10.5885 C   0  0  2  0  0  0  0  0  0  0  0  0
   41.7893   -2.9941   10.2846 C   0  0  1  0  0  0  0  0  0  0  0  0
   41.2759   -2.8309    8.8311 C   0  0  0  0  0  0  0  0  0  0  0  0
   40.6849   -1.4264    8.6700 C   0  0  2  0  0  0  0  0  0  0  0  0
   42.3604   -4.3485   10.4575 N   0  0  0  0  0  0  0  0  0  0  0  0
   40.1978   -1.3185    7.2974 N   0  0  0  0  0  0  0  0  0  0  0  0
   43.3130    0.4483   10.6555 O   0  0  0  0  0  0  0  0  0  0  0  0
   43.3144   -2.0768   11.9521 O   0  0  0  0  0  0  0  0  0  0  0  0
  1  2  1  0  0  0  0
  1 12  1  6  0  0  0
  1 13  1  0  0  0  0
  2  3  1  0  0  0  0
  2 10  1  6  0  0  0
  4  3  1  6  0  0  0
  4  5  1  0  0  0  0
  4 14  1  0  0  0  0
  5  6  1  0  0  0  0
  5 13  1  1  0  0  0
  6  7  1  0  0  0  0
  6 15  1  1  0  0  0
  7  8  1  0  0  0  0
  7 11  1  1  0  0  0
  8 14  1  0  0  0  0
  8 16  1  6  0  0  0
  9 11  1  0  0  0  0
 17 16  1  1  0  0  0
 17 18  1  0  0  0  0
 17 24  1  0  0  0  0
 18 19  1  0  0  0  0
 18 25  1  1  0  0  0
 19 20  1  0  0  0  0
 19 26  1  6  0  0  0
 20 21  1  0  0  0  0
 20 23  1  1  0  0  0
 21 22  1  6  0  0  0
 21 24  1  0  0  0  0
 22 27  1  0  0  0  0
 28 12  1  1  0  0  0
 28 29  1  0  0  0  0
 28 33  1  0  0  0  0
 29 30  1  0  0  0  0
 29 36  1  6  0  0  0
 30 31  1  0  0  0  0
 30 37  1  1  0  0  0
 31 32  1  0  0  0  0
 31 34  1  6  0  0  0
 32 33  1  0  0  0  0
 33 35  1  6  0  0  0
M  END
>  <CHROM.1>
-111.53617257,58.18271091,59.78843899,-172.19325011,-178.27873559,-60.35551287
40.46546918,3.83110344,8.41672514,-1.13840434,-1.13421333,0.04769485

>  <Name>
1yrj_lig

>  <RI>
0

>  <Rbt.Current_Directory>
/home/itssahil/PROJECTS/Mol_Feturizer/New_Systems/rnas/1yrj

>  <Rbt.Executable>
rbdock ($Id: //depot/dev/client3/rdock/2013.1/src/exe/rbdock.cxx#4 $)

>  <Rbt.Library>
libRbt.so (2013.1, Build901 2013/11/27)

>  <Rbt.Parameter_File>
/export/apps/rDock/src/rDock_2013.1_src/data/scripts/dock_solv.prm

>  <Rbt.Receptor>
prm/pocket_docking_3.prm

>  <SCORE>
-17.8946

>  <SCORE.INTER>
-16.1014

>  <SCORE.INTER.CONST>
1

>  <SCORE.INTER.POLAR>
0

>  <SCORE.INTER.ROT>
6

>  <SCORE.INTER.SOLV>
12.4676

>  <SCORE.INTER.VDW>
-22.4901

>  <SCORE.INTER.norm>
-0.435172

>  <SCORE.INTRA>
-1.79321

>  <SCORE.INTRA.DIHEDRAL>
-8.49435

>  <SCORE.INTRA.DIHEDRAL.0>
15.6389

>  <SCORE.INTRA.POLAR>
0

>  <SCORE.INTRA.POLAR.0>
0

>  <SCORE.INTRA.REPUL>
0

>  <SCORE.INTRA.REPUL.0>
0

>  <SCORE.INTRA.SOLV>
2.67607

>  <SCORE.INTRA.SOLV.lig_0>
-90.9181

>  <SCORE.INTRA.VDW>
1.11593

>  <SCORE.INTRA.VDW.0>
-3.14158

>  <SCORE.INTRA.norm>
-0.0484651

>  <SCORE.RESTR>
0

>  <SCORE.RESTR.CAVITY>
0

>  <SCORE.RESTR.norm>
0

>  <SCORE.SYSTEM>
0

>  <SCORE.SYSTEM.CONST>
0

>  <SCORE.SYSTEM.DIHEDRAL>
0

>  <SCORE.SYSTEM.SOLV>
0

>  <SCORE.SYSTEM.norm>
0

>  <SCORE.heavy>
37

>  <SCORE.norm>
-0.483637

>  <RMSD>
9.676

$$$$
1yrj_lig
 OpenBabel11021811423D
libRbt.so/2013.1/901 2013/11/27
 37 40  0  0  0  0  0  0  0  0999 V2000
   40.2344    0.6660    8.8583 C   0  0  1  0  0  0  0  0  0  0  0  0
   41.7312    0.9880    9.0355 C   0  0  1  0  0  0  0  0  0  0  0  0
   41.9546    2.1348   10.0342 C   0  0  0  0  0  0  0  0  0  0  0  0
   41.1430    3.3833    9.6005 C   0  0  1  0  0  0  0  0  0  0  0  0
   39.6486    3.0275    9.4855 C   0  0  1  0  0  0  0  0  0  0  0  0
   38.8407    4.3233    9.0539 C   0  0  1  0  0  0  0  0  0  0  0  0
   39.0445    5.4324   10.0988 C   0  0  1  0  0  0  0  0  0  0  0  0
   40.5620    5.7169   10.2113 C   0  0  2  0  0  0  0  0  0  0  0  0
   37.8396    7.5558   10.8375 C   0  0  0  0  0  0  0  0  0  0  0  0
   42.5042   -0.1975    9.4406 N   0  0  0  0  0  0  0  0  0  0  0  0
   38.2457    6.6406    9.7255 N   0  0  0  0  0  0  0  0  0  0  0  0
   39.6575   -0.0326    9.9775 O   0  0  0  0  0  0  0  0  0  0  0  0
   39.5101    1.9096    8.5303 O   0  0  0  0  0  0  0  0  0  0  0  0
   41.2943    4.5063   10.5537 O   0  0  0  0  0  0  0  0  0  0  0  0
   39.3465    4.8044    7.8262 O   0  0  0  0  0  0  0  0  0  0  0  0
   40.8478    6.6965   11.2104 O   0  0  0  0  0  0  0  0  0  0  0  0
   42.2173    7.1622   11.1786 C   0  0  2  0  0  0  0  0  0  0  0  0
   42.5382    8.1861   12.2797 C   0  0  1  0  0  0  0  0  0  0  0  0
   41.8089    9.5316   12.0228 C   0  0  2  0  0  0  0  0  0  0  0  0
   42.1938   10.0745   10.6657 C   0  0  1  0  0  0  0  0  0  0  0  0
   41.8319    9.0354    9.5783 C   0  0  1  0  0  0  0  0  0  0  0  0
   42.2322    9.4832    8.1744 C   0  0  0  0  0  0  0  0  0  0  0  0
   41.4814   11.3507   10.4486 N   0  0  0  0  0  0  0  0  0  0  0  0
   42.5236    7.7648    9.8603 O   0  0  0  0  0  0  0  0  0  0  0  0
   42.1872    7.6119   13.5470 O   0  0  0  0  0  0  0  0  0  0  0  0
   42.1885   10.4852   13.0245 O   0  0  0  0  0  0  0  0  0  0  0  0
   41.5607   10.6726    7.8547 O   0  0  0  0  0  0  0  0  0  0  0  0
   39.1914   -1.4798    9.9259 C   0  0  1  0  0  0  0  0  0  0  0  0
   38.3799   -1.6505    8.6227 C   0  0  1  0  0  0  0  0  0  0  0  0
   37.9140   -3.1155    8.4414 C   0  0  2  0  0  0  0  0  0  0  0  0
   39.1279   -4.0519    8.4176 C   0  0  1  0  0  0  0  0  0  0  0  0
   39.9318   -3.9181    9.7361 C   0  0  0  0  0  0  0  0  0  0  0  0
   40.3965   -2.4658    9.8871 C   0  0  2  0  0  0  0  0  0  0  0  0
   38.6748   -5.4515    8.2552 N   0  0  0  0  0  0  0  0  0  0  0  0
   41.1627   -2.3850   11.1278 N   0  0  0  0  0  0  0  0  0  0  0  0
   37.2146   -0.7991    8.6781 O   0  0  0  0  0  0  0  0  0  0  0  0
   37.1845   -3.2222    7.2000 O   0  0  0  0  0  0  0  0  0  0  0  0
  1  2  1  0  0  0  0
  1 12  1  1  0  0  0
  1 13  1  0  0  0  0
  2  3  1  0  0  0  0
  2 10  1  1  0  0  0
  4  3  1  1  0  0  0
  4  5  1  0  0  0  0
  4 14  1  0  0  0  0
  5  6  1  0  0  0  0
  5 13  1  6  0  0  0
  6  7  1  0  0  0  0
  6 15  1  6  0  0  0
  7  8  1  0  0  0  0
  7 11  1  6  0  0  0
  8 14  1  0  0  0  0
  8 16  1  1  0  0  0
  9 11  1  0  0  0  0
 17 16  1  6  0  0  0
 17 18  1  0  0  0  0
 17 24  1  0  0  0  0
 18 19  1  0  0  0  0
 18 25  1  1  0  0  0
 19 20  1  0  0  0  0
 19 26  1  1  0  0  0
 20 21  1  0  0  0  0
 20 23  1  6  0  0  0
 21 22  1  6  0  0  0
 21 24  1  0  0  0  0
 22 27  1  0  0  0  0
 28 12  1  6  0  0  0
 28 29  1  0  0  0  0
 28 33  1  0  0  0  0
 29 30  1  0  0  0  0
 29 36  1  1  0  0  0
 30 31  1  0  0  0  0
 30 37  1  6  0  0  0
 31 32  1  0  0  0  0
 31 34  1  1  0  0  0
 32 33  1  0  0  0  0
 33 35  1  1  0  0  0
M  END
>  <CHROM.1>
-111.32298135,154.38852673,-169.49387849,-178.29516354,-60.62594685,-45.47758487
40.37961227,3.58532655,9.82383307,-1.83928997,-0.71085982,-0.02530728

>  <Name>
1yrj_lig

>  <RI>
0

>  <Rbt.Current_Directory>
/home/itssahil/PROJECTS/Mol_Feturizer/New_Systems/rnas/1yrj

>  <Rbt.Executable>
rbdock ($Id: //depot/dev/client3/rdock/2013.1/src/exe/rbdock.cxx#4 $)

>  <Rbt.Library>
libRbt.so (2013.1, Build901 2013/11/27)

>  <Rbt.Parameter_File>
/export/apps/rDock/src/rDock_2013.1_src/data/scripts/dock_solv.prm

>  <Rbt.Receptor>
prm/pocket_docking_5.prm

>  <SCORE>
-18.4688

>  <SCORE.INTER>
-16.3955

>  <SCORE.INTER.CONST>
1

>  <SCORE.INTER.POLAR>
-0.722453

>  <SCORE.INTER.ROT>
6

>  <SCORE.INTER.SOLV>
10.6088

>  <SCORE.INTER.VDW>
-19.6584

>  <SCORE.INTER.norm>
-0.44312

>  <SCORE.INTRA>
-2.07331

>  <SCORE.INTRA.DIHEDRAL>
-6.82518

>  <SCORE.INTRA.DIHEDRAL.0>
15.6389

>  <SCORE.INTRA.POLAR>
0

>  <SCORE.INTRA.POLAR.0>
0

>  <SCORE.INTRA.REPUL>
0

>  <SCORE.INTRA.REPUL.0>
0

>  <SCORE.INTRA.SOLV>
1.96668

>  <SCORE.INTRA.SOLV.lig_0>
-90.9181

>  <SCORE.INTRA.VDW>
0.355937

>  <SCORE.INTRA.VDW.0>
-3.14158

>  <SCORE.INTRA.norm>
-0.0560355

>  <SCORE.RESTR>
0

>  <SCORE.RESTR.CAVITY>
0

>  <SCORE.RESTR.norm>
0

>  <SCORE.SYSTEM>
0

>  <SCORE.SYSTEM.CONST>
0

>  <SCORE.SYSTEM.DIHEDRAL>
0

>  <SCORE.SYSTEM.SOLV>
0

>  <SCORE.SYSTEM.norm>
0

>  <SCORE.heavy>
37

>  <SCORE.norm>
-0.499156

>  <RMSD>
9.792

$$$$
1yrj_lig
 OpenBabel11021811423D
libRbt.so/2013.1/901 2013/11/27
 37 40  0  0  0  0  0  0  0  0999 V2000
   41.4144   -0.1610    8.5012 C   0  0  1  0  0  0  0  0  0  0  0  0
   42.7319    0.5773    8.1936 C   0  0  1  0  0  0  0  0  0  0  0  0
   42.9972    1.7136    9.1940 C   0  0  0  0  0  0  0  0  0  0  0  0
   41.7872    2.6832    9.2306 C   0  0  1  0  0  0  0  0  0  0  0  0
   40.5035    1.9117    9.5909 C   0  0  1  0  0  0  0  0  0  0  0  0
   39.2852    2.9276    9.6343 C   0  0  1  0  0  0  0  0  0  0  0  0
   39.5598    4.0209   10.6796 C   0  0  1  0  0  0  0  0  0  0  0  0
   40.8818    4.7310   10.2998 C   0  0  2  0  0  0  0  0  0  0  0  0
   38.2795    5.9942    9.6930 C   0  0  0  0  0  0  0  0  0  0  0  0
   43.8805   -0.3425    8.1516 N   0  0  0  0  0  0  0  0  0  0  0  0
   38.3938    4.9542   10.7628 N   0  0  0  0  0  0  0  0  0  0  0  0
   41.4915   -1.0254    9.6502 O   0  0  0  0  0  0  0  0  0  0  0  0
   40.3224    0.8266    8.6055 O   0  0  0  0  0  0  0  0  0  0  0  0
   41.9777    3.7770   10.2104 O   0  0  0  0  0  0  0  0  0  0  0  0
   39.1617    3.5661    8.3807 O   0  0  0  0  0  0  0  0  0  0  0  0
   41.2467    5.7255   11.2576 O   0  0  0  0  0  0  0  0  0  0  0  0
   42.3062    6.5981   10.7997 C   0  0  2  0  0  0  0  0  0  0  0  0
   42.5174    7.8250   11.7018 C   0  0  1  0  0  0  0  0  0  0  0  0
   41.3204    8.8074   11.5998 C   0  0  2  0  0  0  0  0  0  0  0  0
   41.1255    9.2334   10.1627 C   0  0  1  0  0  0  0  0  0  0  0  0
   40.8863    7.9810    9.2865 C   0  0  1  0  0  0  0  0  0  0  0  0
   40.7267    8.3160    7.8053 C   0  0  0  0  0  0  0  0  0  0  0  0
   39.9785   10.1627   10.0973 N   0  0  0  0  0  0  0  0  0  0  0  0
   42.0295    7.0602    9.4196 O   0  0  0  0  0  0  0  0  0  0  0  0
   42.7307    7.3672   13.0449 O   0  0  0  0  0  0  0  0  0  0  0  0
   41.5835    9.9727   12.3934 O   0  0  0  0  0  0  0  0  0  0  0  0
   40.4489    7.1425    7.0887 O   0  0  0  0  0  0  0  0  0  0  0  0
   40.6096   -2.2483    9.8530 C   0  0  1  0  0  0  0  0  0  0  0  0
   41.2340   -3.0747   10.9989 C   0  0  1  0  0  0  0  0  0  0  0  0
   40.3686   -4.3146   11.3306 C   0  0  2  0  0  0  0  0  0  0  0  0
   38.9537   -3.8751   11.7254 C   0  0  1  0  0  0  0  0  0  0  0  0
   38.3005   -3.0755   10.5693 C   0  0  0  0  0  0  0  0  0  0  0  0
   39.1637   -1.8457   10.2689 C   0  0  2  0  0  0  0  0  0  0  0  0
   38.1288   -5.0656   12.0303 N   0  0  0  0  0  0  0  0  0  0  0  0
   38.5077   -1.1116    9.1902 N   0  0  0  0  0  0  0  0  0  0  0  0
   42.5467   -3.5225   10.5962 O   0  0  0  0  0  0  0  0  0  0  0  0
   40.9838   -5.0340   12.4209 O   0  0  0  0  0  0  0  0  0  0  0  0
  1  2  1  0  0  0  0
  1 12  1  1  0  0  0
  1 13  1  0  0  0  0
  2  3  1  0  0  0  0
  2 10  1  1  0  0  0
  4  3  1  1  0  0  0
  4  5  1  0  0  0  0
  4 14  1  0  0  0  0
  5  6  1  0  0  0  0
  5 13  1  6  0  0  0
  6  7  1  0  0  0  0
  6 15  1  6  0  0  0
  7  8  1  0  0  0  0
  7 11  1  6  0  0  0
  8 14  1  0  0  0  0
  8 16  1  1  0  0  0
  9 11  1  0  0  0  0
 17 16  1  1  0  0  0
 17 18  1  0  0  0  0
 17 24  1  0  0  0  0
 18 19  1  0  0  0  0
 18 25  1  1  0  0  0
 19 20  1  0  0  0  0
 19 26  1  1  0  0  0
 20 21  1  0  0  0  0
 20 23  1  1  0  0  0
 21 22  1  6  0  0  0
 21 24  1  0  0  0  0
 22 27  1  0  0  0  0
 28 12  1  1  0  0  0
 28 29  1  0  0  0  0
 28 33  1  0  0  0  0
 29 30  1  0  0  0  0
 29 36  1  6  0  0  0
 30 31  1  0  0  0  0
 30 37  1  1  0  0  0
 31 32  1  0  0  0  0
 31 34  1  6  0  0  0
 32 33  1  0  0  0  0
 33 35  1  6  0  0  0
M  END
>  <CHROM.1>
-154.02869720,-78.93505784,-167.53812096,168.93726814,-177.12040302,166.27799957
40.78184234,2.71830432,10.12171512,-1.63869808,0.09515540,-0.01873796

>  <Name>
1yrj_lig

>  <RI>
0

>  <Rbt.Current_Directory>
/home/itssahil/PROJECTS/Mol_Feturizer/New_Systems/rnas/1yrj

>  <Rbt.Executable>
rbdock ($Id: //depot/dev/client3/rdock/2013.1/src/exe/rbdock.cxx#4 $)

>  <Rbt.Library>
libRbt.so (2013.1, Build901 2013/11/27)

>  <Rbt.Parameter_File>
/export/apps/rDock/src/rDock_2013.1_src/data/scripts/dock_solv.prm

>  <Rbt.Receptor>
prm/pocket_docking_5.prm

>  <SCORE>
-21.8952

>  <SCORE.INTER>
-18.8102

>  <SCORE.INTER.CONST>
1

>  <SCORE.INTER.POLAR>
-0.691871

>  <SCORE.INTER.ROT>
6

>  <SCORE.INTER.SOLV>
19.249

>  <SCORE.INTER.VDW>
-24.2502

>  <SCORE.INTER.norm>
-0.508383

>  <SCORE.INTRA>
-3.08499

>  <SCORE.INTRA.DIHEDRAL>
-10.2217

>  <SCORE.INTRA.DIHEDRAL.0>
15.6389

>  <SCORE.INTRA.POLAR>
0

>  <SCORE.INTRA.POLAR.0>
0

>  <SCORE.INTRA.REPUL>
0.0577706

>  <SCORE.INTRA.REPUL.0>
0

>  <SCORE.INTRA.SOLV>
0.410084

>  <SCORE.INTRA.SOLV.lig_0>
-90.9181

>  <SCORE.INTRA.VDW>
1.53198

>  <SCORE.INTRA.VDW.0>
-3.14158

>  <SCORE.INTRA.norm>
-0.0833781

>  <SCORE.RESTR>
0

>  <SCORE.RESTR.CAVITY>
0

>  <SCORE.RESTR.norm>
0

>  <SCORE.SYSTEM>
0

>  <SCORE.SYSTEM.CONST>
0

>  <SCORE.SYSTEM.DIHEDRAL>
0

>  <SCORE.SYSTEM.SOLV>
0

>  <SCORE.SYSTEM.norm>
0

>  <SCORE.heavy>
37

>  <SCORE.norm>
-0.591761

>  <RMSD>
9.817

$$$$
1yrj_lig
 OpenBabel11021811423D
libRbt.so/2013.1/901 2013/11/27
 37 40  0  0  0  0  0  0  0  0999 V2000
   39.3384    0.2058    9.2653 C   0  0  1  0  0  0  0  0  0  0  0  0
   38.1439    0.4309    8.3177 C   0  0  1  0  0  0  0  0  0  0  0  0
   38.3191    1.7004    7.4691 C   0  0  0  0  0  0  0  0  0  0  0  0
   38.5651    2.9250    8.3886 C   0  0  1  0  0  0  0  0  0  0  0  0
   39.7963    2.6763    9.2804 C   0  0  1  0  0  0  0  0  0  0  0  0
   40.0331    3.9475   10.2003 C   0  0  1  0  0  0  0  0  0  0  0  0
   40.2553    5.1888    9.3210 C   0  0  1  0  0  0  0  0  0  0  0  0
   39.0146    5.3650    8.4121 C   0  0  2  0  0  0  0  0  0  0  0  0
   41.8432    6.4161   10.8953 C   0  0  0  0  0  0  0  0  0  0  0  0
   37.9046   -0.7331    7.4488 N   0  0  0  0  0  0  0  0  0  0  0  0
   40.5294    6.3823   10.1798 N   0  0  0  0  0  0  0  0  0  0  0  0
   40.5266   -0.2572    8.5968 O   0  0  0  0  0  0  0  0  0  0  0  0
   39.5697    1.4354   10.0485 O   0  0  0  0  0  0  0  0  0  0  0  0
   38.7793    4.1696    7.6154 O   0  0  0  0  0  0  0  0  0  0  0  0
   38.8789    4.1850   10.9788 O   0  0  0  0  0  0  0  0  0  0  0  0
   39.1642    6.4651    7.5137 O   0  0  0  0  0  0  0  0  0  0  0  0
   40.2798    6.3128    6.6050 C   0  0  2  0  0  0  0  0  0  0  0  0
   40.9346    7.6481    6.2153 C   0  0  1  0  0  0  0  0  0  0  0  0
   39.9920    8.4928    5.3174 C   0  0  2  0  0  0  0  0  0  0  0  0
   39.6166    7.7063    4.0824 C   0  0  1  0  0  0  0  0  0  0  0  0
   38.9344    6.3841    4.5066 C   0  0  1  0  0  0  0  0  0  0  0  0
   38.5636    5.5008    3.3174 C   0  0  0  0  0  0  0  0  0  0  0  0
   38.7170    8.5333    3.2516 N   0  0  0  0  0  0  0  0  0  0  0  0
   39.8456    5.6146    5.3726 O   0  0  0  0  0  0  0  0  0  0  0  0
   41.3019    8.3394    7.4179 O   0  0  0  0  0  0  0  0  0  0  0  0
   40.6612    9.6947    4.9116 O   0  0  0  0  0  0  0  0  0  0  0  0
   37.6391    6.1750    2.5058 O   0  0  0  0  0  0  0  0  0  0  0  0
   40.6463   -1.6156    7.9224 C   0  0  1  0  0  0  0  0  0  0  0  0
   42.0130   -1.6477    7.2032 C   0  0  1  0  0  0  0  0  0  0  0  0
   42.2624   -3.0225    6.5368 C   0  0  2  0  0  0  0  0  0  0  0  0
   42.2106   -4.1333    7.5925 C   0  0  1  0  0  0  0  0  0  0  0  0
   40.8300   -4.1365    8.2973 C   0  0  0  0  0  0  0  0  0  0  0  0
   40.6112   -2.7738    8.9630 C   0  0  2  0  0  0  0  0  0  0  0  0
   42.4387   -5.4455    6.9471 N   0  0  0  0  0  0  0  0  0  0  0  0
   39.3124   -2.8229    9.6290 N   0  0  0  0  0  0  0  0  0  0  0  0
   42.0314   -0.6287    6.1799 O   0  0  0  0  0  0  0  0  0  0  0  0
   43.5596   -3.0046    5.9031 O   0  0  0  0  0  0  0  0  0  0  0  0
  1  2  1  0  0  0  0
  1 12  1  6  0  0  0
  1 13  1  0  0  0  0
  2  3  1  0  0  0  0
  2 10  1  6  0  0  0
  4  3  1  6  0  0  0
  4  5  1  0  0  0  0
  4 14  1  0  0  0  0
  5  6  1  0  0  0  0
  5 13  1  1  0  0  0
  6  7  1  0  0  0  0
  6 15  1  1  0  0  0
  7  8  1  0  0  0  0
  7 11  1  1  0  0  0
  8 14  1  0  0  0  0
  8 16  1  6  0  0  0
  9 11  1  0  0  0  0
 17 16  1  1  0  0  0
 17 18  1  0  0  0  0
 17 24  1  0  0  0  0
 18 19  1  0  0  0  0
 18 25  1  1  0  0  0
 19 20  1  0  0  0  0
 19 26  1  6  0  0  0
 20 21  1  0  0  0  0
 20 23  1  6  0  0  0
 21 22  1  6  0  0  0
 21 24  1  0  0  0  0
 22 27  1  0  0  0  0
 28 12  1  1  0  0  0
 28 29  1  0  0  0  0
 28 33  1  0  0  0  0
 29 30  1  0  0  0  0
 29 36  1  6  0  0  0
 30 31  1  0  0  0  0
 30 37  1  1  0  0  0
 31 32  1  0  0  0  0
 31 34  1  6  0  0  0
 32 33  1  0  0  0  0
 33 35  1  6  0  0  0
M  END
>  <CHROM.1>
-66.34989437,70.20605565,61.36746252,-148.16176200,-62.02357784,173.93591005
40.08778410,2.80533428,7.35399246,0.37620080,-1.42346276,1.75702896

>  <Name>
1yrj_lig

>  <RI>
0

>  <Rbt.Current_Directory>
/home/itssahil/PROJECTS/Mol_Feturizer/New_Systems/rnas/1yrj

>  <Rbt.Executable>
rbdock ($Id: //depot/dev/client3/rdock/2013.1/src/exe/rbdock.cxx#4 $)

>  <Rbt.Library>
libRbt.so (2013.1, Build901 2013/11/27)

>  <Rbt.Parameter_File>
/export/apps/rDock/src/rDock_2013.1_src/data/scripts/dock_solv.prm

>  <Rbt.Receptor>
prm/pocket_docking_6.prm

>  <SCORE>
-23.7906

>  <SCORE.INTER>
-20.7058

>  <SCORE.INTER.CONST>
1

>  <SCORE.INTER.POLAR>
-0.987162

>  <SCORE.INTER.ROT>
6

>  <SCORE.INTER.SOLV>
11.5665

>  <SCORE.INTER.VDW>
-21.9688

>  <SCORE.INTER.norm>
-0.559617

>  <SCORE.INTRA>
-3.08476

>  <SCORE.INTRA.DIHEDRAL>
-11.1168

>  <SCORE.INTRA.DIHEDRAL.0>
15.6389

>  <SCORE.INTRA.POLAR>
0

>  <SCORE.INTRA.POLAR.0>
0

>  <SCORE.INTRA.REPUL>
0

>  <SCORE.INTRA.REPUL.0>
0

>  <SCORE.INTRA.SOLV>
3.25604

>  <SCORE.INTRA.SOLV.lig_0>
-90.9181

>  <SCORE.INTRA.VDW>
0.845602

>  <SCORE.INTRA.VDW.0>
-3.14158

>  <SCORE.INTRA.norm>
-0.083372

>  <SCORE.RESTR>
0

>  <SCORE.RESTR.CAVITY>
0

>  <SCORE.RESTR.norm>
0

>  <SCORE.SYSTEM>
0

>  <SCORE.SYSTEM.CONST>
0

>  <SCORE.SYSTEM.DIHEDRAL>
0

>  <SCORE.SYSTEM.SOLV>
0

>  <SCORE.SYSTEM.norm>
0

>  <SCORE.heavy>
37

>  <SCORE.norm>
-0.642989

>  <RMSD>
9.820

$$$$
1yrj_lig
 OpenBabel11021811423D
libRbt.so/2013.1/901 2013/11/27
 37 40  0  0  0  0  0  0  0  0999 V2000
   39.9976    0.4273    8.7729 C   0  0  1  0  0  0  0  0  0  0  0  0
   41.5061    0.7056    8.9229 C   0  0  1  0  0  0  0  0  0  0  0  0
   41.7790    1.8712    9.8868 C   0  0  0  0  0  0  0  0  0  0  0  0
   41.0020    3.1331    9.4289 C   0  0  1  0  0  0  0  0  0  0  0  0
   39.4957    2.8226    9.3420 C   0  0  1  0  0  0  0  0  0  0  0  0
   38.7240    4.1316    8.8848 C   0  0  1  0  0  0  0  0  0  0  0  0
   38.9767    5.2615    9.8963 C   0  0  1  0  0  0  0  0  0  0  0  0
   40.5038    5.4999    9.9823 C   0  0  2  0  0  0  0  0  0  0  0  0
   37.7957    7.4105   10.5987 C   0  0  0  0  0  0  0  0  0  0  0  0
   42.2462   -0.4928    9.3509 N   0  0  0  0  0  0  0  0  0  0  0  0
   38.2120    6.4843    9.4996 N   0  0  0  0  0  0  0  0  0  0  0  0
   39.4135   -0.2217    9.9177 O   0  0  0  0  0  0  0  0  0  0  0  0
   39.3091    1.6843    8.4196 O   0  0  0  0  0  0  0  0  0  0  0  0
   41.2015    4.2760   10.3490 O   0  0  0  0  0  0  0  0  0  0  0  0
   39.2287    4.5628    7.6382 O   0  0  0  0  0  0  0  0  0  0  0  0
   40.8337    6.4965   10.9506 O   0  0  0  0  0  0  0  0  0  0  0  0
   42.2028    6.9550   10.8548 C   0  0  2  0  0  0  0  0  0  0  0  0
   42.5557    8.0390   11.8863 C   0  0  1  0  0  0  0  0  0  0  0  0
   41.8219    9.3700   11.5729 C   0  0  2  0  0  0  0  0  0  0  0  0
   42.1705    9.8332   10.1769 C   0  0  1  0  0  0  0  0  0  0  0  0
   41.7769    8.7349    9.1610 C   0  0  1  0  0  0  0  0  0  0  0  0
   42.1393    9.1004    7.7234 C   0  0  0  0  0  0  0  0  0  0  0  0
   41.4547   11.0974    9.9067 N   0  0  0  0  0  0  0  0  0  0  0  0
   42.4738    7.4802    9.4963 O   0  0  0  0  0  0  0  0  0  0  0  0
   42.2385    7.5393   13.1935 O   0  0  0  0  0  0  0  0  0  0  0  0
   42.2307   10.3781   12.5076 O   0  0  0  0  0  0  0  0  0  0  0  0
   41.3541   10.1851    7.3055 O   0  0  0  0  0  0  0  0  0  0  0  0
   39.1510   -1.7178   10.0032 C   0  0  1  0  0  0  0  0  0  0  0  0
   38.3810   -2.1185    8.7255 C   0  0  1  0  0  0  0  0  0  0  0  0
   38.1222   -3.6441    8.6835 C   0  0  2  0  0  0  0  0  0  0  0  0
   39.4534   -4.4028    8.7408 C   0  0  1  0  0  0  0  0  0  0  0  0
   40.2209   -4.0380   10.0372 C   0  0  0  0  0  0  0  0  0  0  0  0
   40.4804   -2.5279   10.0502 C   0  0  2  0  0  0  0  0  0  0  0  0
   39.1982   -5.8604    8.7115 N   0  0  0  0  0  0  0  0  0  0  0  0
   41.2184   -2.2278   11.2742 N   0  0  0  0  0  0  0  0  0  0  0  0
   37.1093   -1.4340    8.7074 O   0  0  0  0  0  0  0  0  0  0  0  0
   37.4241   -3.9648    7.4610 O   0  0  0  0  0  0  0  0  0  0  0  0
  1  2  1  0  0  0  0
  1 12  1  1  0  0  0
  1 13  1  0  0  0  0
  2  3  1  0  0  0  0
  2 10  1  1  0  0  0
  4  3  1  1  0  0  0
  4  5  1  0  0  0  0
  4 14  1  0  0  0  0
  5  6  1  0  0  0  0
  5 13  1  6  0  0  0
  6  7  1  0  0  0  0
  6 15  1  6  0  0  0
  7  8  1  0  0  0  0
  7 11  1  6  0  0  0
  8 14  1  0  0  0  0
  8 16  1  1  0  0  0
  9 11  1  0  0  0  0
 17 16  1  6  0  0  0
 17 18  1  0  0  0  0
 17 24  1  0  0  0  0
 18 19  1  0  0  0  0
 18 25  1  1  0  0  0
 19 20  1  0  0  0  0
 19 26  1  1  0  0  0
 20 21  1  0  0  0  0
 20 23  1  6  0  0  0
 21 22  1  6  0  0  0
 21 24  1  0  0  0  0
 22 27  1  0  0  0  0
 28 12  1  6  0  0  0
 28 29  1  0  0  0  0
 28 33  1  0  0  0  0
 29 30  1  0  0  0  0
 29 36  1  1  0  0  0
 30 31  1  0  0  0  0
 30 37  1  6  0  0  0
 31 32  1  0  0  0  0
 31 34  1  1  0  0  0
 32 33  1  0  0  0  0
 33 35  1  1  0  0  0
M  END
>  <CHROM.1>
-98.86512709,151.67957719,-167.19296779,179.36966572,-66.97456344,-50.64466850
40.35258546,3.32514025,9.67500898,1.82473528,0.71985679,3.07467452

>  <Name>
1yrj_lig

>  <RI>
0

>  <Rbt.Current_Directory>
/home/itssahil/PROJECTS/Mol_Feturizer/New_Systems/rnas/1yrj

>  <Rbt.Executable>
rbdock ($Id: //depot/dev/client3/rdock/2013.1/src/exe/rbdock.cxx#4 $)

>  <Rbt.Library>
libRbt.so (2013.1, Build901 2013/11/27)

>  <Rbt.Parameter_File>
/export/apps/rDock/src/rDock_2013.1_src/data/scripts/dock_solv.prm

>  <Rbt.Receptor>
prm/pocket_docking_7.prm

>  <SCORE>
-19.4289

>  <SCORE.INTER>
-17.2835

>  <SCORE.INTER.CONST>
1

>  <SCORE.INTER.POLAR>
-0.876262

>  <SCORE.INTER.ROT>
6

>  <SCORE.INTER.SOLV>
10.5024

>  <SCORE.INTER.VDW>
-19.7023

>  <SCORE.INTER.norm>
-0.467122

>  <SCORE.INTRA>
-2.14538

>  <SCORE.INTRA.DIHEDRAL>
-8.49456

>  <SCORE.INTRA.DIHEDRAL.0>
15.6389

>  <SCORE.INTRA.POLAR>
0

>  <SCORE.INTRA.POLAR.0>
0

>  <SCORE.INTRA.REPUL>
0

>  <SCORE.INTRA.REPUL.0>
0

>  <SCORE.INTRA.SOLV>
3.23383

>  <SCORE.INTRA.SOLV.lig_0>
-90.9181

>  <SCORE.INTRA.VDW>
0.484985

>  <SCORE.INTRA.VDW.0>
-3.14158

>  <SCORE.INTRA.norm>
-0.0579832

>  <SCORE.RESTR>
0

>  <SCORE.RESTR.CAVITY>
0

>  <SCORE.RESTR.norm>
0

>  <SCORE.SYSTEM>
0

>  <SCORE.SYSTEM.CONST>
0

>  <SCORE.SYSTEM.DIHEDRAL>
0

>  <SCORE.SYSTEM.SOLV>
0

>  <SCORE.SYSTEM.norm>
0

>  <SCORE.heavy>
37

>  <SCORE.norm>
-0.525106

>  <RMSD>
9.842

$$$$
1yrj_lig
 OpenBabel11021811423D
libRbt.so/2013.1/901 2013/11/27
 37 40  0  0  0  0  0  0  0  0999 V2000
   39.3588   10.9836    7.8443 C   0  0  1  0  0  0  0  0  0  0  0  0
   39.4897   11.9721    6.6690 C   0  0  1  0  0  0  0  0  0  0  0  0
   38.7955   11.4483    5.4017 C   0  0  0  0  0  0  0  0  0  0  0  0
   39.3424   10.0433    5.0378 C   0  0  1  0  0  0  0  0  0  0  0  0
   39.1449    9.0774    6.2214 C   0  0  1  0  0  0  0  0  0  0  0  0
   39.7001    7.6464    5.8186 C   0  0  1  0  0  0  0  0  0  0  0  0
   38.9503    7.1301    4.5798 C   0  0  1  0  0  0  0  0  0  0  0  0
   39.1394    8.1579    3.4378 C   0  0  2  0  0  0  0  0  0  0  0  0
   38.4660    4.6319    4.4034 C   0  0  0  0  0  0  0  0  0  0  0  0
   38.9773   13.3082    7.0148 N   0  0  0  0  0  0  0  0  0  0  0  0
   39.4328    5.7598    4.2235 N   0  0  0  0  0  0  0  0  0  0  0  0
   38.0436   10.9531    8.4294 O   0  0  0  0  0  0  0  0  0  0  0  0
   39.8165    9.6508    7.4053 O   0  0  0  0  0  0  0  0  0  0  0  0
   38.6758    9.4770    3.8430 O   0  0  0  0  0  0  0  0  0  0  0  0
   41.0645    7.7535    5.4698 O   0  0  0  0  0  0  0  0  0  0  0  0
   38.4202    7.7856    2.2614 O   0  0  0  0  0  0  0  0  0  0  0  0
   39.1029    8.1440    1.0371 C   0  0  2  0  0  0  0  0  0  0  0  0
   40.4252    7.3868    0.8328 C   0  0  1  0  0  0  0  0  0  0  0  0
   41.4954    7.8421    1.8603 C   0  0  2  0  0  0  0  0  0  0  0  0
   41.7157    9.3332    1.7473 C   0  0  1  0  0  0  0  0  0  0  0  0
   40.3750   10.0672    1.9866 C   0  0  1  0  0  0  0  0  0  0  0  0
   40.4955   11.5827    1.8429 C   0  0  0  0  0  0  0  0  0  0  0  0
   42.7341    9.7364    2.7390 N   0  0  0  0  0  0  0  0  0  0  0  0
   39.3755    9.6000    1.0093 O   0  0  0  0  0  0  0  0  0  0  0  0
   40.1576    5.9795    0.9156 O   0  0  0  0  0  0  0  0  0  0  0  0
   42.7355    7.1724    1.5942 O   0  0  0  0  0  0  0  0  0  0  0  0
   39.2224   12.1635    1.9417 O   0  0  0  0  0  0  0  0  0  0  0  0
   37.6697   10.1014    9.6332 C   0  0  1  0  0  0  0  0  0  0  0  0
   37.7831    8.6236    9.1981 C   0  0  1  0  0  0  0  0  0  0  0  0
   37.4858    7.6682   10.3792 C   0  0  2  0  0  0  0  0  0  0  0  0
   38.4598    7.9411   11.5315 C   0  0  1  0  0  0  0  0  0  0  0  0
   38.3305    9.4120   12.0033 C   0  0  0  0  0  0  0  0  0  0  0  0
   38.6444   10.3392   10.8245 C   0  0  2  0  0  0  0  0  0  0  0  0
   38.1629    7.0322   12.6612 N   0  0  0  0  0  0  0  0  0  0  0  0
   38.5297   11.7109   11.3124 N   0  0  0  0  0  0  0  0  0  0  0  0
   36.8279    8.3675    8.1455 O   0  0  0  0  0  0  0  0  0  0  0  0
   37.6299    6.3056    9.9239 O   0  0  0  0  0  0  0  0  0  0  0  0
  1  2  1  0  0  0  0
  1 12  1  6  0  0  0
  1 13  1  0  0  0  0
  2  3  1  0  0  0  0
  2 10  1  1  0  0  0
  4  3  1  1  0  0  0
  4  5  1  0  0  0  0
  4 14  1  0  0  0  0
  5  6  1  0  0  0  0
  5 13  1  1  0  0  0
  6  7  1  0  0  0  0
  6 15  1  6  0  0  0
  7  8  1  0  0  0  0
  7 11  1  6  0  0  0
  8 14  1  0  0  0  0
  8 16  1  6  0  0  0
  9 11  1  0  0  0  0
 17 16  1  1  0  0  0
 17 18  1  0  0  0  0
 17 24  1  0  0  0  0
 18 19  1  0  0  0  0
 18 25  1  1  0  0  0
 19 20  1  0  0  0  0
 19 26  1  6  0  0  0
 20 21  1  0  0  0  0
 20 23  1  1  0  0  0
 21 22  1  6  0  0  0
 21 24  1  0  0  0  0
 22 27  1  0  0  0  0
 28 12  1  6  0  0  0
 28 29  1  0  0  0  0
 28 33  1  0  0  0  0
 29 30  1  0  0  0  0
 29 36  1  6  0  0  0
 30 31  1  0  0  0  0
 30 37  1  6  0  0  0
 31 32  1  0  0  0  0
 31 34  1  1  0  0  0
 32 33  1  0  0  0  0
 33 35  1  1  0  0  0
M  END
>  <CHROM.1>
-177.62520435,112.18023325,-145.09487523,65.35881305,174.19492074,-65.75866802
39.29879701,8.95926255,5.65707719,-2.84243179,-1.30609772,-2.91334424

>  <Name>
1yrj_lig

>  <RI>
0

>  <Rbt.Current_Directory>
/home/itssahil/PROJECTS/Mol_Feturizer/New_Systems/rnas/1yrj

>  <Rbt.Executable>
rbdock ($Id: //depot/dev/client3/rdock/2013.1/src/exe/rbdock.cxx#4 $)

>  <Rbt.Library>
libRbt.so (2013.1, Build901 2013/11/27)

>  <Rbt.Parameter_File>
/export/apps/rDock/src/rDock_2013.1_src/data/scripts/dock_solv.prm

>  <Rbt.Receptor>
prm/pocket_docking_8.prm

>  <SCORE>
-15.7278

>  <SCORE.INTER>
-13.5929

>  <SCORE.INTER.CONST>
1

>  <SCORE.INTER.POLAR>
-1.85377

>  <SCORE.INTER.ROT>
6

>  <SCORE.INTER.SOLV>
24.5948

>  <SCORE.INTER.VDW>
-18.6809

>  <SCORE.INTER.norm>
-0.367374

>  <SCORE.INTRA>
-2.13498

>  <SCORE.INTRA.DIHEDRAL>
-9.4319

>  <SCORE.INTRA.DIHEDRAL.0>
15.6389

>  <SCORE.INTRA.POLAR>
0

>  <SCORE.INTRA.POLAR.0>
0

>  <SCORE.INTRA.REPUL>
0

>  <SCORE.INTRA.REPUL.0>
0

>  <SCORE.INTRA.SOLV>
1.61491

>  <SCORE.INTRA.SOLV.lig_0>
-90.9181

>  <SCORE.INTRA.VDW>
1.77351

>  <SCORE.INTRA.VDW.0>
-3.14158

>  <SCORE.INTRA.norm>
-0.0577023

>  <SCORE.RESTR>
0

>  <SCORE.RESTR.CAVITY>
0

>  <SCORE.RESTR.norm>
0

>  <SCORE.SYSTEM>
0

>  <SCORE.SYSTEM.CONST>
0

>  <SCORE.SYSTEM.DIHEDRAL>
0

>  <SCORE.SYSTEM.SOLV>
0

>  <SCORE.SYSTEM.norm>
0

>  <SCORE.heavy>
37

>  <SCORE.norm>
-0.425077

>  <RMSD>
9.852

$$$$
1yrj_lig
 OpenBabel11021811423D
libRbt.so/2013.1/901 2013/11/27
 37 40  0  0  0  0  0  0  0  0999 V2000
   39.2559   -0.1327    9.3727 C   0  0  1  0  0  0  0  0  0  0  0  0
   38.0596    0.1218    8.4348 C   0  0  1  0  0  0  0  0  0  0  0  0
   38.2805    1.3589    7.5497 C   0  0  0  0  0  0  0  0  0  0  0  0
   38.5952    2.5949    8.4323 C   0  0  1  0  0  0  0  0  0  0  0  0
   39.8262    2.3137    9.3146 C   0  0  1  0  0  0  0  0  0  0  0  0
   40.1337    3.5966   10.1964 C   0  0  1  0  0  0  0  0  0  0  0  0
   40.3998    4.8025    9.2808 C   0  0  1  0  0  0  0  0  0  0  0  0
   39.1557    5.0114    8.3836 C   0  0  2  0  0  0  0  0  0  0  0  0
   41.1685    7.2333    9.3643 C   0  0  0  0  0  0  0  0  0  0  0  0
   37.7552   -1.0526    7.6011 N   0  0  0  0  0  0  0  0  0  0  0  0
   40.7402    6.0046   10.1033 N   0  0  0  0  0  0  0  0  0  0  0  0
   40.4122   -0.6675    8.7018 O   0  0  0  0  0  0  0  0  0  0  0  0
   39.5541    1.1053   10.1191 O   0  0  0  0  0  0  0  0  0  0  0  0
   38.8549    3.8073    7.6229 O   0  0  0  0  0  0  0  0  0  0  0  0
   39.0027    3.9076   10.9830 O   0  0  0  0  0  0  0  0  0  0  0  0
   39.3427    6.0791    7.4538 O   0  0  0  0  0  0  0  0  0  0  0  0
   38.1693    6.3501    6.6516 C   0  0  2  0  0  0  0  0  0  0  0  0
   38.3233    5.9220    5.1831 C   0  0  1  0  0  0  0  0  0  0  0  0
   39.3480    6.8217    4.4422 C   0  0  2  0  0  0  0  0  0  0  0  0
   38.9203    8.2688    4.5304 C   0  0  1  0  0  0  0  0  0  0  0  0
   38.8031    8.6772    6.0180 C   0  0  1  0  0  0  0  0  0  0  0  0
   38.3270   10.1164    6.2014 C   0  0  0  0  0  0  0  0  0  0  0  0
   39.9158    9.0992    3.8214 N   0  0  0  0  0  0  0  0  0  0  0  0
   37.8389    7.7935    6.6976 O   0  0  0  0  0  0  0  0  0  0  0  0
   38.6961    4.5367    5.1528 O   0  0  0  0  0  0  0  0  0  0  0  0
   39.4111    6.4441    3.0600 O   0  0  0  0  0  0  0  0  0  0  0  0
   38.2382   10.4077    7.5708 O   0  0  0  0  0  0  0  0  0  0  0  0
   41.6033   -1.2811    9.4222 C   0  0  1  0  0  0  0  0  0  0  0  0
   42.2180   -0.1756   10.3087 C   0  0  1  0  0  0  0  0  0  0  0  0
   43.4045   -0.7203   11.1403 C   0  0  2  0  0  0  0  0  0  0  0  0
   42.9357   -1.8845   12.0213 C   0  0  1  0  0  0  0  0  0  0  0  0
   42.3497   -3.0181   11.1413 C   0  0  0  0  0  0  0  0  0  0  0  0
   41.1680   -2.4617   10.3400 C   0  0  2  0  0  0  0  0  0  0  0  0
   44.0770   -2.4076   12.8051 N   0  0  0  0  0  0  0  0  0  0  0  0
   40.6340   -3.5607    9.5400 N   0  0  0  0  0  0  0  0  0  0  0  0
   42.6984    0.8931    9.4642 O   0  0  0  0  0  0  0  0  0  0  0  0
   43.9229    0.3449   11.9657 O   0  0  0  0  0  0  0  0  0  0  0  0
  1  2  1  0  0  0  0
  1 12  1  6  0  0  0
  1 13  1  0  0  0  0
  2  3  1  0  0  0  0
  2 10  1  6  0  0  0
  4  3  1  6  0  0  0
  4  5  1  0  0  0  0
  4 14  1  0  0  0  0
  5  6  1  0  0  0  0
  5 13  1  1  0  0  0
  6  7  1  0  0  0  0
  6 15  1  1  0  0  0
  7  8  1  0  0  0  0
  7 11  1  1  0  0  0
  8 14  1  0  0  0  0
  8 16  1  6  0  0  0
  9 11  1  0  0  0  0
 17 16  1  1  0  0  0
 17 18  1  0  0  0  0
 17 24  1  0  0  0  0
 18 19  1  0  0  0  0
 18 25  1  1  0  0  0
 19 20  1  0  0  0  0
 19 26  1  6  0  0  0
 20 21  1  0  0  0  0
 20 23  1  6  0  0  0
 21 22  1  6  0  0  0
 21 24  1  0  0  0  0
 22 27  1  0  0  0  0
 28 12  1  1  0  0  0
 28 29  1  0  0  0  0
 28 33  1  0  0  0  0
 29 30  1  0  0  0  0
 29 36  1  6  0  0  0
 30 31  1  0  0  0  0
 30 37  1  1  0  0  0
 31 32  1  0  0  0  0
 31 34  1  6  0  0  0
 32 33  1  0  0  0  0
 33 35  1  6  0  0  0
M  END
>  <CHROM.1>
-166.34167344,173.80030422,-176.67597706,-108.69970360,179.63129461,-61.52494409
40.03506319,3.19875710,8.37600959,1.09286800,0.93990781,3.06684885

>  <Name>
1yrj_lig

>  <RI>
0

>  <Rbt.Current_Directory>
/home/itssahil/PROJECTS/Mol_Feturizer/New_Systems/rnas/1yrj

>  <Rbt.Executable>
rbdock ($Id: //depot/dev/client3/rdock/2013.1/src/exe/rbdock.cxx#4 $)

>  <Rbt.Library>
libRbt.so (2013.1, Build901 2013/11/27)

>  <Rbt.Parameter_File>
/export/apps/rDock/src/rDock_2013.1_src/data/scripts/dock_solv.prm

>  <Rbt.Receptor>
prm/pocket_docking_7.prm

>  <SCORE>
-24.6013

>  <SCORE.INTER>
-20.439

>  <SCORE.INTER.CONST>
1

>  <SCORE.INTER.POLAR>
-0.834307

>  <SCORE.INTER.ROT>
6

>  <SCORE.INTER.SOLV>
13.5204

>  <SCORE.INTER.VDW>
-22.9517

>  <SCORE.INTER.norm>
-0.552404

>  <SCORE.INTRA>
-4.16235

>  <SCORE.INTRA.DIHEDRAL>
-8.00514

>  <SCORE.INTRA.DIHEDRAL.0>
15.6389

>  <SCORE.INTRA.POLAR>
0

>  <SCORE.INTRA.POLAR.0>
0

>  <SCORE.INTRA.REPUL>
0

>  <SCORE.INTRA.REPUL.0>
0

>  <SCORE.INTRA.SOLV>
-1.49968

>  <SCORE.INTRA.SOLV.lig_0>
-90.9181

>  <SCORE.INTRA.VDW>
0.590061

>  <SCORE.INTRA.VDW.0>
-3.14158

>  <SCORE.INTRA.norm>
-0.112496

>  <SCORE.RESTR>
0

>  <SCORE.RESTR.CAVITY>
0

>  <SCORE.RESTR.norm>
0

>  <SCORE.SYSTEM>
0

>  <SCORE.SYSTEM.CONST>
0

>  <SCORE.SYSTEM.DIHEDRAL>
0

>  <SCORE.SYSTEM.SOLV>
0

>  <SCORE.SYSTEM.norm>
0

>  <SCORE.heavy>
37

>  <SCORE.norm>
-0.6649

>  <RMSD>
9.864

$$$$
1yrj_lig
 OpenBabel11021811423D
libRbt.so/2013.1/901 2013/11/27
 37 40  0  0  0  0  0  0  0  0999 V2000
   39.4750    0.1650    9.2304 C   0  0  1  0  0  0  0  0  0  0  0  0
   38.2197    0.3932    8.3657 C   0  0  1  0  0  0  0  0  0  0  0  0
   38.3202    1.6876    7.5430 C   0  0  0  0  0  0  0  0  0  0  0  0
   38.6033    2.8918    8.4786 C   0  0  1  0  0  0  0  0  0  0  0  0
   39.8921    2.6422    9.2847 C   0  0  1  0  0  0  0  0  0  0  0  0
   40.1652    3.8927   10.2225 C   0  0  1  0  0  0  0  0  0  0  0  0
   40.3111    5.1606    9.3654 C   0  0  1  0  0  0  0  0  0  0  0  0
   39.0130    5.3381    8.5409 C   0  0  2  0  0  0  0  0  0  0  0  0
   41.9545    6.3487   10.9127 C   0  0  0  0  0  0  0  0  0  0  0  0
   37.9454   -0.7517    7.4819 N   0  0  0  0  0  0  0  0  0  0  0  0
   40.6190    6.3359   10.2379 N   0  0  0  0  0  0  0  0  0  0  0  0
   40.6263   -0.2586    8.4766 O   0  0  0  0  0  0  0  0  0  0  0  0
   39.7348    1.3775   10.0311 O   0  0  0  0  0  0  0  0  0  0  0  0
   38.7478    4.1600    7.7280 O   0  0  0  0  0  0  0  0  0  0  0  0
   39.0586    4.0886   11.0778 O   0  0  0  0  0  0  0  0  0  0  0  0
   39.0876    6.4640    7.6655 O   0  0  0  0  0  0  0  0  0  0  0  0
   40.2358    6.4285    6.7858 C   0  0  2  0  0  0  0  0  0  0  0  0
   40.8685    7.8103    6.5540 C   0  0  1  0  0  0  0  0  0  0  0  0
   39.9344    8.7196    5.7120 C   0  0  2  0  0  0  0  0  0  0  0  0
   39.6198    8.0527    4.3925 C   0  0  1  0  0  0  0  0  0  0  0  0
   38.9583    6.6798    4.6590 C   0  0  1  0  0  0  0  0  0  0  0  0
   38.6493    5.9122    3.3756 C   0  0  0  0  0  0  0  0  0  0  0  0
   38.7270    8.9386    3.6170 N   0  0  0  0  0  0  0  0  0  0  0  0
   39.8602    5.8478    5.4756 O   0  0  0  0  0  0  0  0  0  0  0  0
   41.1785    8.3856    7.8315 O   0  0  0  0  0  0  0  0  0  0  0  0
   40.5854    9.9707    5.4514 O   0  0  0  0  0  0  0  0  0  0  0  0
   39.8472    5.6207    2.7063 O   0  0  0  0  0  0  0  0  0  0  0  0
   41.9076   -0.7831    9.1070 C   0  0  1  0  0  0  0  0  0  0  0  0
   41.5678   -2.1360    9.7704 C   0  0  1  0  0  0  0  0  0  0  0  0
   42.8284   -2.7891   10.3871 C   0  0  2  0  0  0  0  0  0  0  0  0
   43.8921   -3.0007    9.3032 C   0  0  1  0  0  0  0  0  0  0  0  0
   44.2700   -1.6449    8.6537 C   0  0  0  0  0  0  0  0  0  0  0  0
   43.0124   -1.0245    8.0361 C   0  0  2  0  0  0  0  0  0  0  0  0
   45.0984   -3.6149    9.9017 N   0  0  0  0  0  0  0  0  0  0  0  0
   43.4121    0.2382    7.4209 N   0  0  0  0  0  0  0  0  0  0  0  0
   40.6010   -1.9165   10.8206 O   0  0  0  0  0  0  0  0  0  0  0  0
   42.4586   -4.0575   10.9693 O   0  0  0  0  0  0  0  0  0  0  0  0
  1  2  1  0  0  0  0
  1 12  1  6  0  0  0
  1 13  1  0  0  0  0
  2  3  1  0  0  0  0
  2 10  1  6  0  0  0
  4  3  1  6  0  0  0
  4  5  1  0  0  0  0
  4 14  1  0  0  0  0
  5  6  1  0  0  0  0
  5 13  1  1  0  0  0
  6  7  1  0  0  0  0
  6 15  1  1  0  0  0
  7  8  1  0  0  0  0
  7 11  1  1  0  0  0
  8 14  1  0  0  0  0
  8 16  1  6  0  0  0
  9 11  1  0  0  0  0
 17 16  1  1  0  0  0
 17 18  1  0  0  0  0
 17 24  1  0  0  0  0
 18 19  1  0  0  0  0
 18 25  1  1  0  0  0
 19 20  1  0  0  0  0
 19 26  1  6  0  0  0
 20 21  1  0  0  0  0
 20 23  1  6  0  0  0
 21 22  1  6  0  0  0
 21 24  1  0  0  0  0
 22 27  1  0  0  0  0
 28 12  1  6  0  0  0
 28 29  1  0  0  0  0
 28 33  1  0  0  0  0
 29 30  1  0  0  0  0
 29 36  1  1  0  0  0
 30 31  1  0  0  0  0
 30 37  1  6  0  0  0
 31 32  1  0  0  0  0
 31 34  1  1  0  0  0
 32 33  1  0  0  0  0
 33 35  1  1  0  0  0
M  END
>  <CHROM.1>
-168.80396460,67.90957438,54.76584094,-142.14952929,63.19844943,67.18712905
40.50972557,3.05196717,7.99090011,-0.15913696,-1.33392912,1.02459255

>  <Name>
1yrj_lig

>  <RI>
0

>  <Rbt.Current_Directory>
/home/itssahil/PROJECTS/Mol_Feturizer/New_Systems/rnas/1yrj

>  <Rbt.Executable>
rbdock ($Id: //depot/dev/client3/rdock/2013.1/src/exe/rbdock.cxx#4 $)

>  <Rbt.Library>
libRbt.so (2013.1, Build901 2013/11/27)

>  <Rbt.Parameter_File>
/export/apps/rDock/src/rDock_2013.1_src/data/scripts/dock_solv.prm

>  <Rbt.Receptor>
prm/pocket_docking_6.prm

>  <SCORE>
-26.9918

>  <SCORE.INTER>
-22.92

>  <SCORE.INTER.CONST>
1

>  <SCORE.INTER.POLAR>
-1.7695

>  <SCORE.INTER.ROT>
6

>  <SCORE.INTER.SOLV>
13.1132

>  <SCORE.INTER.VDW>
-21.3527

>  <SCORE.INTER.norm>
-0.61946

>  <SCORE.INTRA>
-4.07177

>  <SCORE.INTRA.DIHEDRAL>
-9.44608

>  <SCORE.INTRA.DIHEDRAL.0>
15.6389

>  <SCORE.INTRA.POLAR>
0

>  <SCORE.INTRA.POLAR.0>
0

>  <SCORE.INTRA.REPUL>
0

>  <SCORE.INTRA.REPUL.0>
0

>  <SCORE.INTRA.SOLV>
-0.951547

>  <SCORE.INTRA.SOLV.lig_0>
-90.9181

>  <SCORE.INTRA.VDW>
1.12704

>  <SCORE.INTRA.VDW.0>
-3.14158

>  <SCORE.INTRA.norm>
-0.110048

>  <SCORE.RESTR>
0

>  <SCORE.RESTR.CAVITY>
0

>  <SCORE.RESTR.norm>
0

>  <SCORE.SYSTEM>
0

>  <SCORE.SYSTEM.CONST>
0

>  <SCORE.SYSTEM.DIHEDRAL>
0

>  <SCORE.SYSTEM.SOLV>
0

>  <SCORE.SYSTEM.norm>
0

>  <SCORE.heavy>
37

>  <SCORE.norm>
-0.729508

>  <RMSD>
9.870

$$$$
1yrj_lig
 OpenBabel11021811423D
libRbt.so/2013.1/901 2013/11/27
 37 40  0  0  0  0  0  0  0  0999 V2000
   39.3446    0.2517    9.3545 C   0  0  1  0  0  0  0  0  0  0  0  0
   38.1420    0.4586    8.4131 C   0  0  1  0  0  0  0  0  0  0  0  0
   38.3039    1.7185    7.5477 C   0  0  0  0  0  0  0  0  0  0  0  0
   38.5499    2.9556    8.4503 C   0  0  1  0  0  0  0  0  0  0  0  0
   39.7889    2.7247    9.3360 C   0  0  1  0  0  0  0  0  0  0  0  0
   40.0253    4.0083   10.2385 C   0  0  1  0  0  0  0  0  0  0  0  0
   40.2342    5.2398    9.3424 C   0  0  1  0  0  0  0  0  0  0  0  0
   38.9859    5.3982    8.4407 C   0  0  2  0  0  0  0  0  0  0  0  0
   41.8160    6.4831   10.9105 C   0  0  0  0  0  0  0  0  0  0  0  0
   37.9028   -0.7172    7.5603 N   0  0  0  0  0  0  0  0  0  0  0  0
   40.5080    6.4453   10.1845 N   0  0  0  0  0  0  0  0  0  0  0  0
   40.5304   -0.2130    8.6830 O   0  0  0  0  0  0  0  0  0  0  0  0
   39.5748    1.4920   10.1209 O   0  0  0  0  0  0  0  0  0  0  0  0
   38.7514    4.1918    7.6604 O   0  0  0  0  0  0  0  0  0  0  0  0
   38.8756    4.2490   11.0225 O   0  0  0  0  0  0  0  0  0  0  0  0
   39.1229    6.4879    7.5278 O   0  0  0  0  0  0  0  0  0  0  0  0
   40.2453    6.3406    6.6266 C   0  0  2  0  0  0  0  0  0  0  0  0
   40.8583    7.6821    6.1929 C   0  0  1  0  0  0  0  0  0  0  0  0
   39.8918    8.4654    5.2652 C   0  0  2  0  0  0  0  0  0  0  0  0
   39.5450    7.6259    4.0570 C   0  0  1  0  0  0  0  0  0  0  0  0
   38.9041    6.2978    4.5247 C   0  0  1  0  0  0  0  0  0  0  0  0
   38.5649    5.3633    3.3656 C   0  0  0  0  0  0  0  0  0  0  0  0
   38.6218    8.3951    3.1971 N   0  0  0  0  0  0  0  0  0  0  0  0
   39.8369    5.5875    5.4179 O   0  0  0  0  0  0  0  0  0  0  0  0
   41.2000    8.4251    7.3720 O   0  0  0  0  0  0  0  0  0  0  0  0
   40.5234    9.6736    4.8200 O   0  0  0  0  0  0  0  0  0  0  0  0
   38.0578    4.1572    3.8716 O   0  0  0  0  0  0  0  0  0  0  0  0
   41.5896   -1.0867    9.3381 C   0  0  1  0  0  0  0  0  0  0  0  0
   40.8816   -2.3682    9.8307 C   0  0  1  0  0  0  0  0  0  0  0  0
   41.8916   -3.3598   10.4573 C   0  0  2  0  0  0  0  0  0  0  0  0
   42.9682   -3.7297    9.4301 C   0  0  1  0  0  0  0  0  0  0  0  0
   43.7125   -2.4561    8.9540 C   0  0  0  0  0  0  0  0  0  0  0  0
   42.6978   -1.4967    8.3234 C   0  0  2  0  0  0  0  0  0  0  0  0
   43.9365   -4.6690   10.0390 N   0  0  0  0  0  0  0  0  0  0  0  0
   43.4381   -0.3212    7.8729 N   0  0  0  0  0  0  0  0  0  0  0  0
   39.9037   -2.0112   10.8318 O   0  0  0  0  0  0  0  0  0  0  0  0
   41.1818   -4.5453   10.8764 O   0  0  0  0  0  0  0  0  0  0  0  0
  1  2  1  0  0  0  0
  1 12  1  6  0  0  0
  1 13  1  0  0  0  0
  2  3  1  0  0  0  0
  2 10  1  6  0  0  0
  4  3  1  6  0  0  0
  4  5  1  0  0  0  0
  4 14  1  0  0  0  0
  5  6  1  0  0  0  0
  5 13  1  1  0  0  0
  6  7  1  0  0  0  0
  6 15  1  1  0  0  0
  7  8  1  0  0  0  0
  7 11  1  1  0  0  0
  8 14  1  0  0  0  0
  8 16  1  6  0  0  0
  9 11  1  0  0  0  0
 17 16  1  1  0  0  0
 17 18  1  0  0  0  0
 17 24  1  0  0  0  0
 18 19  1  0  0  0  0
 18 25  1  1  0  0  0
 19 20  1  0  0  0  0
 19 26  1  6  0  0  0
 20 21  1  0  0  0  0
 20 23  1  6  0  0  0
 21 22  1  6  0  0  0
 21 24  1  0  0  0  0
 22 27  1  0  0  0  0
 28 12  1  6  0  0  0
 28 29  1  0  0  0  0
 28 33  1  0  0  0  0
 29 30  1  0  0  0  0
 29 36  1  1  0  0  0
 30 31  1  0  0  0  0
 30 37  1  6  0  0  0
 31 32  1  0  0  0  0
 31 34  1  1  0  0  0
 32 33  1  0  0  0  0
 33 35  1  1  0  0  0
M  END
>  <CHROM.1>
-150.19145802,69.07881957,60.45023063,-149.64908397,176.81240869,57.77509879
40.22362868,2.82447232,7.98877958,-0.84416032,-1.29182391,0.32235266

>  <Name>
1yrj_lig

>  <RI>
0

>  <Rbt.Current_Directory>
/home/itssahil/PROJECTS/Mol_Feturizer/New_Systems/rnas/1yrj

>  <Rbt.Executable>
rbdock ($Id: //depot/dev/client3/rdock/2013.1/src/exe/rbdock.cxx#4 $)

>  <Rbt.Library>
libRbt.so (2013.1, Build901 2013/11/27)

>  <Rbt.Parameter_File>
/export/apps/rDock/src/rDock_2013.1_src/data/scripts/dock_solv.prm

>  <Rbt.Receptor>
prm/pocket_docking_7.prm

>  <SCORE>
-24.4923

>  <SCORE.INTER>
-20.9588

>  <SCORE.INTER.CONST>
1

>  <SCORE.INTER.POLAR>
-0.993656

>  <SCORE.INTER.ROT>
6

>  <SCORE.INTER.SOLV>
12.7977

>  <SCORE.INTER.VDW>
-22.5262

>  <SCORE.INTER.norm>
-0.566454

>  <SCORE.INTRA>
-3.53345

>  <SCORE.INTRA.DIHEDRAL>
-8.25307

>  <SCORE.INTRA.DIHEDRAL.0>
15.6389

>  <SCORE.INTRA.POLAR>
0

>  <SCORE.INTRA.POLAR.0>
0

>  <SCORE.INTRA.REPUL>
0

>  <SCORE.INTRA.REPUL.0>
0

>  <SCORE.INTRA.SOLV>
-1.17313

>  <SCORE.INTRA.SOLV.lig_0>
-90.9181

>  <SCORE.INTRA.VDW>
1.17965

>  <SCORE.INTRA.VDW.0>
-3.14158

>  <SCORE.INTRA.norm>
-0.0954986

>  <SCORE.RESTR>
0

>  <SCORE.RESTR.CAVITY>
0

>  <SCORE.RESTR.norm>
0

>  <SCORE.SYSTEM>
0

>  <SCORE.SYSTEM.CONST>
0

>  <SCORE.SYSTEM.DIHEDRAL>
0

>  <SCORE.SYSTEM.SOLV>
0

>  <SCORE.SYSTEM.norm>
0

>  <SCORE.heavy>
37

>  <SCORE.norm>
-0.661953

>  <RMSD>
9.870

$$$$
1yrj_lig
 OpenBabel11021811423D
libRbt.so/2013.1/901 2013/11/27
 37 40  0  0  0  0  0  0  0  0999 V2000
   45.6024   -1.0800   10.0663 C   0  0  1  0  0  0  0  0  0  0  0  0
   45.7371   -0.4177    8.6811 C   0  0  1  0  0  0  0  0  0  0  0  0
   44.3670   -0.1763    8.0276 C   0  0  0  0  0  0  0  0  0  0  0  0
   43.5699   -1.5049    7.9571 C   0  0  1  0  0  0  0  0  0  0  0  0
   43.4167   -2.1038    9.3681 C   0  0  1  0  0  0  0  0  0  0  0  0
   42.5877   -3.4533    9.2693 C   0  0  1  0  0  0  0  0  0  0  0  0
   41.2055   -3.1683    8.6595 C   0  0  1  0  0  0  0  0  0  0  0  0
   41.4154   -2.5241    7.2676 C   0  0  2  0  0  0  0  0  0  0  0  0
   39.5722   -4.7514    9.8139 C   0  0  0  0  0  0  0  0  0  0  0  0
   46.4993    0.8400    8.7449 N   0  0  0  0  0  0  0  0  0  0  0  0
   40.3986   -4.4268    8.6094 N   0  0  0  0  0  0  0  0  0  0  0  0
   45.1343   -0.1841   11.0917 O   0  0  0  0  0  0  0  0  0  0  0  0
   44.7647   -2.2890    9.9423 O   0  0  0  0  0  0  0  0  0  0  0  0
   42.2238   -1.3178    7.3692 O   0  0  0  0  0  0  0  0  0  0  0  0
   43.2521   -4.3500    8.4038 O   0  0  0  0  0  0  0  0  0  0  0  0
   40.1764   -2.1680    6.6531 O   0  0  0  0  0  0  0  0  0  0  0  0
   40.3380   -1.5752    5.3431 C   0  0  2  0  0  0  0  0  0  0  0  0
   39.0476   -1.5836    4.5073 C   0  0  1  0  0  0  0  0  0  0  0  0
   38.6636   -3.0266    4.0849 C   0  0  2  0  0  0  0  0  0  0  0  0
   39.7999   -3.6559    3.3118 C   0  0  1  0  0  0  0  0  0  0  0  0
   41.0743   -3.6595    4.1890 C   0  0  1  0  0  0  0  0  0  0  0  0
   42.2894   -4.2363    3.4660 C   0  0  0  0  0  0  0  0  0  0  0  0
   39.4070   -5.0278    2.9284 N   0  0  0  0  0  0  0  0  0  0  0  0
   41.4015   -2.2792    4.5893 O   0  0  0  0  0  0  0  0  0  0  0  0
   38.0115   -0.9473    5.2692 O   0  0  0  0  0  0  0  0  0  0  0  0
   37.5009   -2.9906    3.2460 O   0  0  0  0  0  0  0  0  0  0  0  0
   43.4171   -4.1341    4.2942 O   0  0  0  0  0  0  0  0  0  0  0  0
   45.0103   -0.5646   12.5594 C   0  0  1  0  0  0  0  0  0  0  0  0
   43.9265   -1.6611   12.6553 C   0  0  1  0  0  0  0  0  0  0  0  0
   43.7704   -2.1678   14.1096 C   0  0  2  0  0  0  0  0  0  0  0  0
   45.1073   -2.7203   14.6181 C   0  0  1  0  0  0  0  0  0  0  0  0
   46.1965   -1.6188   14.5621 C   0  0  0  0  0  0  0  0  0  0  0  0
   46.3458   -1.1439   13.1129 C   0  0  2  0  0  0  0  0  0  0  0  0
   44.9537   -3.1926   16.0123 N   0  0  0  0  0  0  0  0  0  0  0  0
   47.3900   -0.1229   13.0992 N   0  0  0  0  0  0  0  0  0  0  0  0
   42.6629   -1.1144   12.2189 O   0  0  0  0  0  0  0  0  0  0  0  0
   42.7661   -3.2047   14.1365 O   0  0  0  0  0  0  0  0  0  0  0  0
  1  2  1  0  0  0  0
  1 12  1  1  0  0  0
  1 13  1  0  0  0  0
  2  3  1  0  0  0  0
  2 10  1  1  0  0  0
  4  3  1  1  0  0  0
  4  5  1  0  0  0  0
  4 14  1  0  0  0  0
  5  6  1  0  0  0  0
  5 13  1  6  0  0  0
  6  7  1  0  0  0  0
  6 15  1  6  0  0  0
  7  8  1  0  0  0  0
  7 11  1  6  0  0  0
  8 14  1  0  0  0  0
  8 16  1  1  0  0  0
  9 11  1  0  0  0  0
 17 16  1  1  0  0  0
 17 18  1  0  0  0  0
 17 24  1  0  0  0  0
 18 19  1  0  0  0  0
 18 25  1  1  0  0  0
 19 20  1  0  0  0  0
 19 26  1  6  0  0  0
 20 21  1  0  0  0  0
 20 23  1  1  0  0  0
 21 22  1  6  0  0  0
 21 24  1  0  0  0  0
 22 27  1  0  0  0  0
 28 12  1  6  0  0  0
 28 29  1  0  0  0  0
 28 33  1  0  0  0  0
 29 30  1  0  0  0  0
 29 36  1  1  0  0  0
 30 31  1  0  0  0  0
 30 37  1  6  0  0  0
 31 32  1  0  0  0  0
 31 34  1  1  0  0  0
 32 33  1  0  0  0  0
 33 35  1  1  0  0  0
M  END
>  <CHROM.1>
-175.53565671,88.75469036,-179.40097950,162.44483847,176.59115253,-65.11378959
42.63687217,-2.27204945,8.67546248,-0.93958504,-0.51547600,-1.39790227

>  <Name>
1yrj_lig

>  <RI>
0

>  <Rbt.Current_Directory>
/home/itssahil/PROJECTS/Mol_Feturizer/New_Systems/rnas/1yrj

>  <Rbt.Executable>
rbdock ($Id: //depot/dev/client3/rdock/2013.1/src/exe/rbdock.cxx#4 $)

>  <Rbt.Library>
libRbt.so (2013.1, Build901 2013/11/27)

>  <Rbt.Parameter_File>
/export/apps/rDock/src/rDock_2013.1_src/data/scripts/dock_solv.prm

>  <Rbt.Receptor>
prm/pocket_docking_8.prm

>  <SCORE>
-15.3623

>  <SCORE.INTER>
-8.13015

>  <SCORE.INTER.CONST>
1

>  <SCORE.INTER.POLAR>
-0.859018

>  <SCORE.INTER.ROT>
6

>  <SCORE.INTER.SOLV>
10.5458

>  <SCORE.INTER.VDW>
-13.672

>  <SCORE.INTER.norm>
-0.219734

>  <SCORE.INTRA>
-7.23212

>  <SCORE.INTRA.DIHEDRAL>
-13.2867

>  <SCORE.INTRA.DIHEDRAL.0>
15.6389

>  <SCORE.INTRA.POLAR>
0

>  <SCORE.INTRA.POLAR.0>
0

>  <SCORE.INTRA.REPUL>
0.00875087

>  <SCORE.INTRA.REPUL.0>
0

>  <SCORE.INTRA.SOLV>
-1.86016

>  <SCORE.INTRA.SOLV.lig_0>
-90.9181

>  <SCORE.INTRA.VDW>
0.297545

>  <SCORE.INTRA.VDW.0>
-3.14158

>  <SCORE.INTRA.norm>
-0.195463

>  <SCORE.RESTR>
0

>  <SCORE.RESTR.CAVITY>
0

>  <SCORE.RESTR.norm>
0

>  <SCORE.SYSTEM>
0

>  <SCORE.SYSTEM.CONST>
0

>  <SCORE.SYSTEM.DIHEDRAL>
0

>  <SCORE.SYSTEM.SOLV>
0

>  <SCORE.SYSTEM.norm>
0

>  <SCORE.heavy>
37

>  <SCORE.norm>
-0.415197

>  <RMSD>
9.872

$$$$
1yrj_lig
 OpenBabel11021811423D
libRbt.so/2013.1/901 2013/11/27
 37 40  0  0  0  0  0  0  0  0999 V2000
   39.1067   -0.5867    9.4117 C   0  0  1  0  0  0  0  0  0  0  0  0
   37.9673   -0.3817    8.3943 C   0  0  1  0  0  0  0  0  0  0  0  0
   38.2644    0.7775    7.4296 C   0  0  0  0  0  0  0  0  0  0  0  0
   38.5635    2.0720    8.2299 C   0  0  1  0  0  0  0  0  0  0  0  0
   39.7398    1.8352    9.1959 C   0  0  1  0  0  0  0  0  0  0  0  0
   40.0330    3.1766    9.9915 C   0  0  1  0  0  0  0  0  0  0  0  0
   40.3761    4.3014    9.0012 C   0  0  1  0  0  0  0  0  0  0  0  0
   39.1856    4.4652    8.0253 C   0  0  2  0  0  0  0  0  0  0  0  0
   41.7847    5.4723   10.7764 C   0  0  0  0  0  0  0  0  0  0  0  0
   37.6774   -1.6112    7.6385 N   0  0  0  0  0  0  0  0  0  0  0  0
   40.7032    5.5568    9.7457 N   0  0  0  0  0  0  0  0  0  0  0  0
   40.2826   -1.1962    8.8468 O   0  0  0  0  0  0  0  0  0  0  0  0
   39.3966    0.6994   10.0754 O   0  0  0  0  0  0  0  0  0  0  0  0
   38.8948    3.2117    7.3446 O   0  0  0  0  0  0  0  0  0  0  0  0
   38.8709    3.5715   10.6901 O   0  0  0  0  0  0  0  0  0  0  0  0
   39.4469    5.4528    7.0273 O   0  0  0  0  0  0  0  0  0  0  0  0
   38.3377    5.6560    6.1206 C   0  0  2  0  0  0  0  0  0  0  0  0
   38.7567    6.2649    4.7725 C   0  0  1  0  0  0  0  0  0  0  0  0
   39.2164    7.7374    4.9420 C   0  0  2  0  0  0  0  0  0  0  0  0
   38.1097    8.5527    5.5707 C   0  0  1  0  0  0  0  0  0  0  0  0
   37.7315    7.9330    6.9369 C   0  0  1  0  0  0  0  0  0  0  0  0
   36.5826    8.6684    7.6232 C   0  0  0  0  0  0  0  0  0  0  0  0
   38.5780    9.9458    5.7232 N   0  0  0  0  0  0  0  0  0  0  0  0
   37.3185    6.5311    6.7453 O   0  0  0  0  0  0  0  0  0  0  0  0
   39.7821    5.4386    4.2025 O   0  0  0  0  0  0  0  0  0  0  0  0
   39.5276    8.2966    3.6585 O   0  0  0  0  0  0  0  0  0  0  0  0
   36.3725    8.1201    8.8972 O   0  0  0  0  0  0  0  0  0  0  0  0
   41.4387   -1.7378    9.6742 C   0  0  1  0  0  0  0  0  0  0  0  0
   42.1288   -0.5266   10.3396 C   0  0  1  0  0  0  0  0  0  0  0  0
   43.2855   -0.9796   11.2632 C   0  0  2  0  0  0  0  0  0  0  0  0
   42.7517   -1.9257   12.3453 C   0  0  1  0  0  0  0  0  0  0  0  0
   42.0885   -3.1649   11.6917 C   0  0  0  0  0  0  0  0  0  0  0  0
   40.9376   -2.6953   10.7957 C   0  0  2  0  0  0  0  0  0  0  0  0
   43.8642   -2.3634   13.2178 N   0  0  0  0  0  0  0  0  0  0  0  0
   40.3292   -3.8888   10.2143 N   0  0  0  0  0  0  0  0  0  0  0  0
   42.6685    0.3320    9.3113 O   0  0  0  0  0  0  0  0  0  0  0  0
   43.8765    0.1867   11.8757 O   0  0  0  0  0  0  0  0  0  0  0  0
  1  2  1  0  0  0  0
  1 12  1  6  0  0  0
  1 13  1  0  0  0  0
  2  3  1  0  0  0  0
  2 10  1  6  0  0  0
  4  3  1  6  0  0  0
  4  5  1  0  0  0  0
  4 14  1  0  0  0  0
  5  6  1  0  0  0  0
  5 13  1  1  0  0  0
  6  7  1  0  0  0  0
  6 15  1  6  0  0  0
  7  8  1  0  0  0  0
  7 11  1  1  0  0  0
  8 14  1  0  0  0  0
  8 16  1  6  0  0  0
  9 11  1  0  0  0  0
 17 16  1  1  0  0  0
 17 18  1  0  0  0  0
 17 24  1  0  0  0  0
 18 19  1  0  0  0  0
 18 25  1  1  0  0  0
 19 20  1  0  0  0  0
 19 26  1  6  0  0  0
 20 21  1  0  0  0  0
 20 23  1  1  0  0  0
 21 22  1  6  0  0  0
 21 24  1  0  0  0  0
 22 27  1  0  0  0  0
 28 12  1  1  0  0  0
 28 29  1  0  0  0  0
 28 33  1  0  0  0  0
 29 30  1  0  0  0  0
 29 36  1  6  0  0  0
 30 31  1  0  0  0  0
 30 37  1  1  0  0  0
 31 32  1  0  0  0  0
 31 34  1  1  0  0  0
 32 33  1  0  0  0  0
 33 35  1  6  0  0  0
M  END
>  <CHROM.1>
-168.29368114,55.11278816,-178.39589187,-157.62499520,-175.16672234,-67.73595214
39.83335822,2.84019400,8.57189582,1.10724518,0.82272376,3.02694810

>  <Name>
1yrj_lig

>  <RI>
0

>  <Rbt.Current_Directory>
/home/itssahil/PROJECTS/Mol_Feturizer/New_Systems/rnas/1yrj

>  <Rbt.Executable>
rbdock ($Id: //depot/dev/client3/rdock/2013.1/src/exe/rbdock.cxx#4 $)

>  <Rbt.Library>
libRbt.so (2013.1, Build901 2013/11/27)

>  <Rbt.Parameter_File>
/export/apps/rDock/src/rDock_2013.1_src/data/scripts/dock_solv.prm

>  <Rbt.Receptor>
prm/pocket_docking_4.prm

>  <SCORE>
-30.8511

>  <SCORE.INTER>
-24.6284

>  <SCORE.INTER.CONST>
1

>  <SCORE.INTER.POLAR>
-1.33515

>  <SCORE.INTER.ROT>
6

>  <SCORE.INTER.SOLV>
16.1013

>  <SCORE.INTER.VDW>
-24.9356

>  <SCORE.INTER.norm>
-0.665634

>  <SCORE.INTRA>
-6.2227

>  <SCORE.INTRA.DIHEDRAL>
-12.2822

>  <SCORE.INTRA.DIHEDRAL.0>
15.6389

>  <SCORE.INTRA.POLAR>
0

>  <SCORE.INTRA.POLAR.0>
0

>  <SCORE.INTRA.REPUL>
0

>  <SCORE.INTRA.REPUL.0>
0

>  <SCORE.INTRA.SOLV>
-2.09284

>  <SCORE.INTRA.SOLV.lig_0>
-90.9181

>  <SCORE.INTRA.VDW>
0.964817

>  <SCORE.INTRA.VDW.0>
-3.14158

>  <SCORE.INTRA.norm>
-0.168181

>  <SCORE.RESTR>
0

>  <SCORE.RESTR.CAVITY>
0

>  <SCORE.RESTR.norm>
0

>  <SCORE.SYSTEM>
0

>  <SCORE.SYSTEM.CONST>
0

>  <SCORE.SYSTEM.DIHEDRAL>
0

>  <SCORE.SYSTEM.SOLV>
0

>  <SCORE.SYSTEM.norm>
0

>  <SCORE.heavy>
37

>  <SCORE.norm>
-0.833814

>  <RMSD>
9.885

$$$$
1yrj_lig
 OpenBabel11021811423D
libRbt.so/2013.1/901 2013/11/27
 37 40  0  0  0  0  0  0  0  0999 V2000
   39.1826   -0.4741    9.4082 C   0  0  1  0  0  0  0  0  0  0  0  0
   38.0377   -0.2453    8.4021 C   0  0  1  0  0  0  0  0  0  0  0  0
   38.3284    0.9380    7.4652 C   0  0  0  0  0  0  0  0  0  0  0  0
   38.6301    2.2125    8.2960 C   0  0  1  0  0  0  0  0  0  0  0  0
   39.8117    1.9533    9.2497 C   0  0  1  0  0  0  0  0  0  0  0  0
   40.1074    3.2747   10.0770 C   0  0  1  0  0  0  0  0  0  0  0  0
   40.4440    4.4243    9.1134 C   0  0  1  0  0  0  0  0  0  0  0  0
   39.2483    4.6109    8.1480 C   0  0  2  0  0  0  0  0  0  0  0  0
   41.9279    5.5809   10.8358 C   0  0  0  0  0  0  0  0  0  0  0  0
   37.7453   -1.4559    7.6174 N   0  0  0  0  0  0  0  0  0  0  0  0
   40.7734    5.6613    9.8872 N   0  0  0  0  0  0  0  0  0  0  0  0
   40.3562   -1.0678    8.8223 O   0  0  0  0  0  0  0  0  0  0  0  0
   39.4743    0.7954   10.1023 O   0  0  0  0  0  0  0  0  0  0  0  0
   38.9554    3.3744    7.4377 O   0  0  0  0  0  0  0  0  0  0  0  0
   38.9484    3.6506   10.7912 O   0  0  0  0  0  0  0  0  0  0  0  0
   39.5032    5.6234    7.1736 O   0  0  0  0  0  0  0  0  0  0  0  0
   38.3740    5.8780    6.3055 C   0  0  2  0  0  0  0  0  0  0  0  0
   38.7699    6.5074    4.9598 C   0  0  1  0  0  0  0  0  0  0  0  0
   39.2749    7.9625    5.1493 C   0  0  2  0  0  0  0  0  0  0  0  0
   38.2101    8.7921    5.8296 C   0  0  1  0  0  0  0  0  0  0  0  0
   37.8552    8.1504    7.1918 C   0  0  1  0  0  0  0  0  0  0  0  0
   36.7478    8.9000    7.9290 C   0  0  0  0  0  0  0  0  0  0  0  0
   38.7211   10.1681    5.9999 N   0  0  0  0  0  0  0  0  0  0  0  0
   37.3982    6.7652    6.9805 O   0  0  0  0  0  0  0  0  0  0  0  0
   39.7548    5.6675    4.3405 O   0  0  0  0  0  0  0  0  0  0  0  0
   39.5636    8.5435    3.8703 O   0  0  0  0  0  0  0  0  0  0  0  0
   36.5661    8.3331    9.1992 O   0  0  0  0  0  0  0  0  0  0  0  0
   41.5137   -1.6354    9.6300 C   0  0  1  0  0  0  0  0  0  0  0  0
   42.2034   -0.4463   10.3346 C   0  0  1  0  0  0  0  0  0  0  0  0
   43.3615   -0.9284   11.2415 C   0  0  2  0  0  0  0  0  0  0  0  0
   42.8298   -1.9104   12.2922 C   0  0  1  0  0  0  0  0  0  0  0  0
   42.1671   -3.1280   11.5985 C   0  0  0  0  0  0  0  0  0  0  0  0
   41.0148   -2.6300   10.7197 C   0  0  2  0  0  0  0  0  0  0  0  0
   43.9437   -2.3758   13.1484 N   0  0  0  0  0  0  0  0  0  0  0  0
   40.4069   -3.8043   10.0997 N   0  0  0  0  0  0  0  0  0  0  0  0
   42.7411    0.4466    9.3348 O   0  0  0  0  0  0  0  0  0  0  0  0
   43.9520    0.2175   11.8918 O   0  0  0  0  0  0  0  0  0  0  0  0
  1  2  1  0  0  0  0
  1 12  1  6  0  0  0
  1 13  1  0  0  0  0
  2  3  1  0  0  0  0
  2 10  1  6  0  0  0
  4  3  1  6  0  0  0
  4  5  1  0  0  0  0
  4 14  1  0  0  0  0
  5  6  1  0  0  0  0
  5 13  1  1  0  0  0
  6  7  1  0  0  0  0
  6 15  1  6  0  0  0
  7  8  1  0  0  0  0
  7 11  1  1  0  0  0
  8 14  1  0  0  0  0
  8 16  1  6  0  0  0
  9 11  1  0  0  0  0
 17 16  1  1  0  0  0
 17 18  1  0  0  0  0
 17 24  1  0  0  0  0
 18 19  1  0  0  0  0
 18 25  1  1  0  0  0
 19 20  1  0  0  0  0
 19 26  1  6  0  0  0
 20 21  1  0  0  0  0
 20 23  1  1  0  0  0
 21 22  1  6  0  0  0
 21 24  1  0  0  0  0
 22 27  1  0  0  0  0
 28 12  1  1  0  0  0
 28 29  1  0  0  0  0
 28 33  1  0  0  0  0
 29 30  1  0  0  0  0
 29 36  1  6  0  0  0
 30 31  1  0  0  0  0
 30 37  1  1  0  0  0
 31 32  1  0  0  0  0
 31 34  1  6  0  0  0
 32 33  1  0  0  0  0
 33 35  1  6  0  0  0
M  END
>  <CHROM.1>
-167.93751025,59.59344069,-176.51405867,-157.07313293,-174.77797420,-67.49746487
39.91093906,2.97955760,8.65786330,1.10609831,0.83072207,3.06095906

>  <Name>
1yrj_lig

>  <RI>
0

>  <Rbt.Current_Directory>
/home/itssahil/PROJECTS/Mol_Feturizer/New_Systems/rnas/1yrj

>  <Rbt.Executable>
rbdock ($Id: //depot/dev/client3/rdock/2013.1/src/exe/rbdock.cxx#4 $)

>  <Rbt.Library>
libRbt.so (2013.1, Build901 2013/11/27)

>  <Rbt.Parameter_File>
/export/apps/rDock/src/rDock_2013.1_src/data/scripts/dock_solv.prm

>  <Rbt.Receptor>
prm/pocket_docking_5.prm

>  <SCORE>
-30.9354

>  <SCORE.INTER>
-24.5365

>  <SCORE.INTER.CONST>
1

>  <SCORE.INTER.POLAR>
-1.31835

>  <SCORE.INTER.ROT>
6

>  <SCORE.INTER.SOLV>
15.1857

>  <SCORE.INTER.VDW>
-24.625

>  <SCORE.INTER.norm>
-0.663148

>  <SCORE.INTRA>
-6.39891

>  <SCORE.INTRA.DIHEDRAL>
-12.1237

>  <SCORE.INTRA.DIHEDRAL.0>
15.6389

>  <SCORE.INTRA.POLAR>
0

>  <SCORE.INTRA.POLAR.0>
0

>  <SCORE.INTRA.REPUL>
0

>  <SCORE.INTRA.REPUL.0>
0

>  <SCORE.INTRA.SOLV>
-2.08522

>  <SCORE.INTRA.SOLV.lig_0>
-90.9181

>  <SCORE.INTRA.VDW>
0.70553

>  <SCORE.INTRA.VDW.0>
-3.14158

>  <SCORE.INTRA.norm>
-0.172944

>  <SCORE.RESTR>
0

>  <SCORE.RESTR.CAVITY>
0

>  <SCORE.RESTR.norm>
0

>  <SCORE.SYSTEM>
0

>  <SCORE.SYSTEM.CONST>
0

>  <SCORE.SYSTEM.DIHEDRAL>
0

>  <SCORE.SYSTEM.SOLV>
0

>  <SCORE.SYSTEM.norm>
0

>  <SCORE.heavy>
37

>  <SCORE.norm>
-0.836091

>  <RMSD>
9.893

$$$$
1yrj_lig
 OpenBabel11021811423D
libRbt.so/2013.1/901 2013/11/27
 37 40  0  0  0  0  0  0  0  0999 V2000
   39.2310   -0.4403    9.3780 C   0  0  1  0  0  0  0  0  0  0  0  0
   38.0881   -0.1961    8.3733 C   0  0  1  0  0  0  0  0  0  0  0  0
   38.3673    1.0192    7.4747 C   0  0  0  0  0  0  0  0  0  0  0  0
   38.6474    2.2716    8.3457 C   0  0  1  0  0  0  0  0  0  0  0  0
   39.8277    1.9991    9.2974 C   0  0  1  0  0  0  0  0  0  0  0  0
   40.1013    3.2984   10.1664 C   0  0  1  0  0  0  0  0  0  0  0  0
   40.4269    4.4815    9.2403 C   0  0  1  0  0  0  0  0  0  0  0  0
   39.2336    4.6815    8.2746 C   0  0  2  0  0  0  0  0  0  0  0  0
   41.0821    6.9459    9.3032 C   0  0  0  0  0  0  0  0  0  0  0  0
   37.8162   -1.3859    7.5502 N   0  0  0  0  0  0  0  0  0  0  0  0
   40.7356    5.6984   10.0534 N   0  0  0  0  0  0  0  0  0  0  0  0
   40.4155   -0.9998    8.7805 O   0  0  0  0  0  0  0  0  0  0  0  0
   39.5020    0.8112   10.1123 O   0  0  0  0  0  0  0  0  0  0  0  0
   38.9612    3.4636    7.5252 O   0  0  0  0  0  0  0  0  0  0  0  0
   38.9338    3.6364   10.8855 O   0  0  0  0  0  0  0  0  0  0  0  0
   39.4795    5.7268    7.3331 O   0  0  0  0  0  0  0  0  0  0  0  0
   38.3587    5.9786    6.4534 C   0  0  2  0  0  0  0  0  0  0  0  0
   38.7700    6.5799    5.0996 C   0  0  1  0  0  0  0  0  0  0  0  0
   39.2899    8.0324    5.2670 C   0  0  2  0  0  0  0  0  0  0  0  0
   38.2301    8.8855    5.9257 C   0  0  1  0  0  0  0  0  0  0  0  0
   37.8595    8.2717    7.2966 C   0  0  1  0  0  0  0  0  0  0  0  0
   36.7559    9.0462    8.0134 C   0  0  0  0  0  0  0  0  0  0  0  0
   38.7552   10.2585    6.0753 N   0  0  0  0  0  0  0  0  0  0  0  0
   37.3885    6.8881    7.1065 O   0  0  0  0  0  0  0  0  0  0  0  0
   39.7494    5.7185    4.5014 O   0  0  0  0  0  0  0  0  0  0  0  0
   39.5931    8.5878    3.9799 O   0  0  0  0  0  0  0  0  0  0  0  0
   36.5735    8.5162    9.2994 O   0  0  0  0  0  0  0  0  0  0  0  0
   41.5795   -1.5704    9.5767 C   0  0  1  0  0  0  0  0  0  0  0  0
   42.2287   -0.3946   10.3397 C   0  0  1  0  0  0  0  0  0  0  0  0
   43.3899   -0.8841   11.2388 C   0  0  2  0  0  0  0  0  0  0  0  0
   42.8742   -1.9246   12.2400 C   0  0  1  0  0  0  0  0  0  0  0  0
   42.2526   -3.1285   11.4869 C   0  0  0  0  0  0  0  0  0  0  0  0
   41.0964   -2.6242   10.6168 C   0  0  2  0  0  0  0  0  0  0  0  0
   43.9912   -2.3964   13.0886 N   0  0  0  0  0  0  0  0  0  0  0  0
   40.5276   -3.7865    9.9398 N   0  0  0  0  0  0  0  0  0  0  0  0
   42.7524    0.5547    9.3856 O   0  0  0  0  0  0  0  0  0  0  0  0
   43.9419    0.2481   11.9445 O   0  0  0  0  0  0  0  0  0  0  0  0
  1  2  1  0  0  0  0
  1 12  1  6  0  0  0
  1 13  1  0  0  0  0
  2  3  1  0  0  0  0
  2 10  1  6  0  0  0
  4  3  1  6  0  0  0
  4  5  1  0  0  0  0
  4 14  1  0  0  0  0
  5  6  1  0  0  0  0
  5 13  1  1  0  0  0
  6  7  1  0  0  0  0
  6 15  1  6  0  0  0
  7  8  1  0  0  0  0
  7 11  1  1  0  0  0
  8 14  1  0  0  0  0
  8 16  1  6  0  0  0
  9 11  1  0  0  0  0
 17 16  1  1  0  0  0
 17 18  1  0  0  0  0
 17 24  1  0  0  0  0
 18 19  1  0  0  0  0
 18 25  1  1  0  0  0
 19 20  1  0  0  0  0
 19 26  1  6  0  0  0
 20 21  1  0  0  0  0
 20 23  1  1  0  0  0
 21 22  1  6  0  0  0
 21 24  1  0  0  0  0
 22 27  1  0  0  0  0
 28 12  1  1  0  0  0
 28 29  1  0  0  0  0
 28 33  1  0  0  0  0
 29 30  1  0  0  0  0
 29 36  1  6  0  0  0
 30 31  1  0  0  0  0
 30 37  1  1  0  0  0
 31 32  1  0  0  0  0
 31 34  1  6  0  0  0
 32 33  1  0  0  0  0
 33 35  1  6  0  0  0
M  END
>  <CHROM.1>
-168.23522941,179.73204288,-177.42451710,-153.72909620,-173.91715042,-66.24891516
39.90790943,3.07800048,8.65938955,1.11005767,0.82739516,3.08188447

>  <Name>
1yrj_lig

>  <RI>
0

>  <Rbt.Current_Directory>
/home/itssahil/PROJECTS/Mol_Feturizer/New_Systems/rnas/1yrj

>  <Rbt.Executable>
rbdock ($Id: //depot/dev/client3/rdock/2013.1/src/exe/rbdock.cxx#4 $)

>  <Rbt.Library>
libRbt.so (2013.1, Build901 2013/11/27)

>  <Rbt.Parameter_File>
/export/apps/rDock/src/rDock_2013.1_src/data/scripts/dock_solv.prm

>  <Rbt.Receptor>
prm/pocket_docking_8.prm

>  <SCORE>
-28.5409

>  <SCORE.INTER>
-22.5228

>  <SCORE.INTER.CONST>
1

>  <SCORE.INTER.POLAR>
-1.26885

>  <SCORE.INTER.ROT>
6

>  <SCORE.INTER.SOLV>
14.5263

>  <SCORE.INTER.VDW>
-23.2278

>  <SCORE.INTER.norm>
-0.608725

>  <SCORE.INTRA>
-6.01804

>  <SCORE.INTRA.DIHEDRAL>
-11.629

>  <SCORE.INTRA.DIHEDRAL.0>
15.6389

>  <SCORE.INTRA.POLAR>
0

>  <SCORE.INTRA.POLAR.0>
0

>  <SCORE.INTRA.REPUL>
0

>  <SCORE.INTRA.REPUL.0>
0

>  <SCORE.INTRA.SOLV>
-2.00119

>  <SCORE.INTRA.SOLV.lig_0>
-90.9181

>  <SCORE.INTRA.VDW>
0.797061

>  <SCORE.INTRA.VDW.0>
-3.14158

>  <SCORE.INTRA.norm>
-0.16265

>  <SCORE.RESTR>
0

>  <SCORE.RESTR.CAVITY>
0

>  <SCORE.RESTR.norm>
0

>  <SCORE.SYSTEM>
0

>  <SCORE.SYSTEM.CONST>
0

>  <SCORE.SYSTEM.DIHEDRAL>
0

>  <SCORE.SYSTEM.SOLV>
0

>  <SCORE.SYSTEM.norm>
0

>  <SCORE.heavy>
37

>  <SCORE.norm>
-0.771374

>  <RMSD>
9.902

$$$$
1yrj_lig
 OpenBabel11021811423D
libRbt.so/2013.1/901 2013/11/27
 37 40  0  0  0  0  0  0  0  0999 V2000
   38.7428   -0.6780    9.5302 C   0  0  1  0  0  0  0  0  0  0  0  0
   37.5029   -0.3617    8.6712 C   0  0  1  0  0  0  0  0  0  0  0  0
   37.7771    0.7687    7.6665 C   0  0  0  0  0  0  0  0  0  0  0  0
   38.3003    2.0255    8.4097 C   0  0  1  0  0  0  0  0  0  0  0  0
   39.5669    1.6743    9.2131 C   0  0  1  0  0  0  0  0  0  0  0  0
   40.0880    2.9783    9.9520 C   0  0  1  0  0  0  0  0  0  0  0  0
   40.4010    4.0703    8.9161 C   0  0  1  0  0  0  0  0  0  0  0  0
   39.1124    4.3502    8.1052 C   0  0  2  0  0  0  0  0  0  0  0  0
   39.9551    6.1567   10.3141 C   0  0  0  0  0  0  0  0  0  0  0  0
   37.0007   -1.5549    7.9704 N   0  0  0  0  0  0  0  0  0  0  0  0
   40.9408    5.2858    9.6005 N   0  0  0  0  0  0  0  0  0  0  0  0
   39.7706   -1.3932    8.8194 O   0  0  0  0  0  0  0  0  0  0  0  0
   39.2379    0.5720   10.1394 O   0  0  0  0  0  0  0  0  0  0  0  0
   38.6170    3.1329    7.4791 O   0  0  0  0  0  0  0  0  0  0  0  0
   39.0713    3.4780   10.7953 O   0  0  0  0  0  0  0  0  0  0  0  0
   39.3307    5.3132    7.0735 O   0  0  0  0  0  0  0  0  0  0  0  0
   38.1070    5.7740    6.4539 C   0  0  2  0  0  0  0  0  0  0  0  0
   38.3113    6.3125    5.0285 C   0  0  1  0  0  0  0  0  0  0  0  0
   39.1043    7.6464    5.0423 C   0  0  2  0  0  0  0  0  0  0  0  0
   38.3831    8.6648    5.8953 C   0  0  1  0  0  0  0  0  0  0  0  0
   38.2194    8.1065    7.3288 C   0  0  1  0  0  0  0  0  0  0  0  0
   37.4550    9.0546    8.2500 C   0  0  0  0  0  0  0  0  0  0  0  0
   39.1631    9.9198    5.8926 N   0  0  0  0  0  0  0  0  0  0  0  0
   37.4806    6.8320    7.2804 O   0  0  0  0  0  0  0  0  0  0  0  0
   38.9672    5.2994    4.2523 O   0  0  0  0  0  0  0  0  0  0  0  0
   39.2113    8.1581    3.7067 O   0  0  0  0  0  0  0  0  0  0  0  0
   36.2023    9.3422    7.6880 O   0  0  0  0  0  0  0  0  0  0  0  0
   41.0276   -1.9462    9.4740 C   0  0  1  0  0  0  0  0  0  0  0  0
   41.8743   -0.7366    9.9278 C   0  0  1  0  0  0  0  0  0  0  0  0
   43.1523   -1.1954   10.6709 C   0  0  2  0  0  0  0  0  0  0  0  0
   42.7730   -2.0440   11.8904 C   0  0  1  0  0  0  0  0  0  0  0  0
   41.9536   -3.2823   11.4455 C   0  0  0  0  0  0  0  0  0  0  0  0
   40.6867   -2.8054   10.7275 C   0  0  2  0  0  0  0  0  0  0  0  0
   43.9994   -2.4884   12.5895 N   0  0  0  0  0  0  0  0  0  0  0  0
   39.9357   -3.9969   10.3412 N   0  0  0  0  0  0  0  0  0  0  0  0
   42.2650    0.0277    8.7663 O   0  0  0  0  0  0  0  0  0  0  0  0
   43.8904   -0.0283   11.0926 O   0  0  0  0  0  0  0  0  0  0  0  0
  1  2  1  0  0  0  0
  1 12  1  6  0  0  0
  1 13  1  0  0  0  0
  2  3  1  0  0  0  0
  2 10  1  6  0  0  0
  4  3  1  6  0  0  0
  4  5  1  0  0  0  0
  4 14  1  0  0  0  0
  5  6  1  0  0  0  0
  5 13  1  1  0  0  0
  6  7  1  0  0  0  0
  6 15  1  1  0  0  0
  7  8  1  0  0  0  0
  7 11  1  1  0  0  0
  8 14  1  0  0  0  0
  8 16  1  6  0  0  0
  9 11  1  0  0  0  0
 17 16  1  1  0  0  0
 17 18  1  0  0  0  0
 17 24  1  0  0  0  0
 18 19  1  0  0  0  0
 18 25  1  6  0  0  0
 19 20  1  0  0  0  0
 19 26  1  6  0  0  0
 20 21  1  0  0  0  0
 20 23  1  1  0  0  0
 21 22  1  1  0  0  0
 21 24  1  0  0  0  0
 22 27  1  0  0  0  0
 28 12  1  1  0  0  0
 28 29  1  0  0  0  0
 28 33  1  0  0  0  0
 29 30  1  0  0  0  0
 29 36  1  6  0  0  0
 30 31  1  0  0  0  0
 30 37  1  1  0  0  0
 31 32  1  0  0  0  0
 31 34  1  6  0  0  0
 32 33  1  0  0  0  0
 33 35  1  6  0  0  0
M  END
>  <CHROM.1>
-173.54935198,-76.37367465,-169.65713014,-155.87556815,56.50121525,-67.21231782
39.65418039,2.82395077,8.52863581,1.20714973,0.67866124,2.96973542

>  <Name>
1yrj_lig

>  <RI>
0

>  <Rbt.Current_Directory>
/home/itssahil/PROJECTS/Mol_Feturizer/New_Systems/rnas/1yrj

>  <Rbt.Executable>
rbdock ($Id: //depot/dev/client3/rdock/2013.1/src/exe/rbdock.cxx#4 $)

>  <Rbt.Library>
libRbt.so (2013.1, Build901 2013/11/27)

>  <Rbt.Parameter_File>
/export/apps/rDock/src/rDock_2013.1_src/data/scripts/dock_solv.prm

>  <Rbt.Receptor>
prm/pocket_docking_3.prm

>  <SCORE>
-25.9134

>  <SCORE.INTER>
-20.9306

>  <SCORE.INTER.CONST>
1

>  <SCORE.INTER.POLAR>
-0.786755

>  <SCORE.INTER.ROT>
6

>  <SCORE.INTER.SOLV>
13.5334

>  <SCORE.INTER.VDW>
-23.4423

>  <SCORE.INTER.norm>
-0.565691

>  <SCORE.INTRA>
-4.98288

>  <SCORE.INTRA.DIHEDRAL>
-11.8103

>  <SCORE.INTRA.DIHEDRAL.0>
15.6389

>  <SCORE.INTRA.POLAR>
0

>  <SCORE.INTRA.POLAR.0>
0

>  <SCORE.INTRA.REPUL>
0

>  <SCORE.INTRA.REPUL.0>
0

>  <SCORE.INTRA.SOLV>
-1.13975

>  <SCORE.INTRA.SOLV.lig_0>
-90.9181

>  <SCORE.INTRA.VDW>
1.49213

>  <SCORE.INTRA.VDW.0>
-3.14158

>  <SCORE.INTRA.norm>
-0.134672

>  <SCORE.RESTR>
0

>  <SCORE.RESTR.CAVITY>
0

>  <SCORE.RESTR.norm>
0

>  <SCORE.SYSTEM>
0

>  <SCORE.SYSTEM.CONST>
0

>  <SCORE.SYSTEM.DIHEDRAL>
0

>  <SCORE.SYSTEM.SOLV>
0

>  <SCORE.SYSTEM.norm>
0

>  <SCORE.heavy>
37

>  <SCORE.norm>
-0.700363

>  <RMSD>
9.923

$$$$
1yrj_lig
 OpenBabel11021811423D
libRbt.so/2013.1/901 2013/11/27
 37 40  0  0  0  0  0  0  0  0999 V2000
   39.2505   -0.0554    9.3795 C   0  0  1  0  0  0  0  0  0  0  0  0
   38.0582    0.2130    8.4404 C   0  0  1  0  0  0  0  0  0  0  0  0
   38.2869    1.4574    7.5678 C   0  0  0  0  0  0  0  0  0  0  0  0
   38.6039    2.6837    8.4630 C   0  0  1  0  0  0  0  0  0  0  0  0
   39.8310    2.3890    9.3464 C   0  0  1  0  0  0  0  0  0  0  0  0
   40.1411    3.6622   10.2413 C   0  0  1  0  0  0  0  0  0  0  0  0
   40.4150    4.8757    9.3380 C   0  0  1  0  0  0  0  0  0  0  0  0
   39.1746    5.0982    8.4390 C   0  0  2  0  0  0  0  0  0  0  0  0
   42.0486    6.0197   10.9284 C   0  0  0  0  0  0  0  0  0  0  0  0
   37.7515   -0.9523    7.5946 N   0  0  0  0  0  0  0  0  0  0  0  0
   40.7578    6.0685   10.1729 N   0  0  0  0  0  0  0  0  0  0  0  0
   40.4066   -0.5886    8.7070 O   0  0  0  0  0  0  0  0  0  0  0  0
   39.5515    1.1742   10.1385 O   0  0  0  0  0  0  0  0  0  0  0  0
   38.8711    3.9027    7.6660 O   0  0  0  0  0  0  0  0  0  0  0  0
   39.0089    3.9704   11.0274 O   0  0  0  0  0  0  0  0  0  0  0  0
   39.3688    6.1739    7.5200 O   0  0  0  0  0  0  0  0  0  0  0  0
   38.1357    6.6566    6.9367 C   0  0  2  0  0  0  0  0  0  0  0  0
   38.3539    7.6920    5.8213 C   0  0  1  0  0  0  0  0  0  0  0  0
   38.9001    9.0264    6.3952 C   0  0  2  0  0  0  0  0  0  0  0  0
   37.9492    9.5648    7.4396 C   0  0  1  0  0  0  0  0  0  0  0  0
   37.7737    8.5137    8.5611 C   0  0  1  0  0  0  0  0  0  0  0  0
   36.7872    8.9568    9.6392 C   0  0  0  0  0  0  0  0  0  0  0  0
   38.4976   10.8304    7.9695 N   0  0  0  0  0  0  0  0  0  0  0  0
   37.2730    7.2539    7.9826 O   0  0  0  0  0  0  0  0  0  0  0  0
   39.2338    7.1222    4.8415 O   0  0  0  0  0  0  0  0  0  0  0  0
   39.0204    9.9916    5.3413 O   0  0  0  0  0  0  0  0  0  0  0  0
   36.4809    7.8671   10.4678 O   0  0  0  0  0  0  0  0  0  0  0  0
   41.5817   -1.2365    9.4237 C   0  0  1  0  0  0  0  0  0  0  0  0
   42.2133   -0.1570   10.3303 C   0  0  1  0  0  0  0  0  0  0  0  0
   43.3845   -0.7377   11.1593 C   0  0  2  0  0  0  0  0  0  0  0  0
   42.8884   -1.9058   12.0197 C   0  0  1  0  0  0  0  0  0  0  0  0
   42.2850   -3.0140   11.1194 C   0  0  0  0  0  0  0  0  0  0  0  0
   41.1186   -2.4223   10.3210 C   0  0  2  0  0  0  0  0  0  0  0  0
   44.0151   -2.4632   12.8010 N   0  0  0  0  0  0  0  0  0  0  0  0
   40.5675   -3.4981    9.5015 N   0  0  0  0  0  0  0  0  0  0  0  0
   42.7190    0.9149    9.5049 O   0  0  0  0  0  0  0  0  0  0  0  0
   43.9194    0.3043   12.0035 O   0  0  0  0  0  0  0  0  0  0  0  0
  1  2  1  0  0  0  0
  1 12  1  6  0  0  0
  1 13  1  0  0  0  0
  2  3  1  0  0  0  0
  2 10  1  6  0  0  0
  4  3  1  6  0  0  0
  4  5  1  0  0  0  0
  4 14  1  0  0  0  0
  5  6  1  0  0  0  0
  5 13  1  1  0  0  0
  6  7  1  0  0  0  0
  6 15  1  1  0  0  0
  7  8  1  0  0  0  0
  7 11  1  1  0  0  0
  8 14  1  0  0  0  0
  8 16  1  6  0  0  0
  9 11  1  0  0  0  0
 17 16  1  1  0  0  0
 17 18  1  0  0  0  0
 17 24  1  0  0  0  0
 18 19  1  0  0  0  0
 18 25  1  6  0  0  0
 19 20  1  0  0  0  0
 19 26  1  6  0  0  0
 20 21  1  0  0  0  0
 20 23  1  1  0  0  0
 21 22  1  1  0  0  0
 21 24  1  0  0  0  0
 22 27  1  0  0  0  0
 28 12  1  1  0  0  0
 28 29  1  0  0  0  0
 28 33  1  0  0  0  0
 29 30  1  0  0  0  0
 29 36  1  6  0  0  0
 30 31  1  0  0  0  0
 30 37  1  1  0  0  0
 31 32  1  0  0  0  0
 31 34  1  6  0  0  0
 32 33  1  0  0  0  0
 33 35  1  6  0  0  0
M  END
>  <CHROM.1>
-165.19612065,67.24376327,-163.57165669,-172.85379967,168.48314741,-62.27154039
39.84877938,3.44109599,9.03257799,1.09665625,0.78551235,-3.09174653

>  <Name>
1yrj_lig

>  <RI>
0

>  <Rbt.Current_Directory>
/home/itssahil/PROJECTS/Mol_Feturizer/New_Systems/rnas/1yrj

>  <Rbt.Executable>
rbdock ($Id: //depot/dev/client3/rdock/2013.1/src/exe/rbdock.cxx#4 $)

>  <Rbt.Library>
libRbt.so (2013.1, Build901 2013/11/27)

>  <Rbt.Parameter_File>
/export/apps/rDock/src/rDock_2013.1_src/data/scripts/dock_solv.prm

>  <Rbt.Receptor>
prm/pocket_docking_6.prm

>  <SCORE>
-29.7631

>  <SCORE.INTER>
-22.9322

>  <SCORE.INTER.CONST>
1

>  <SCORE.INTER.POLAR>
-1.17685

>  <SCORE.INTER.ROT>
6

>  <SCORE.INTER.SOLV>
14.1729

>  <SCORE.INTER.VDW>
-23.6896

>  <SCORE.INTER.norm>
-0.61979

>  <SCORE.INTRA>
-6.83085

>  <SCORE.INTRA.DIHEDRAL>
-12.4917

>  <SCORE.INTRA.DIHEDRAL.0>
15.6389

>  <SCORE.INTRA.POLAR>
0

>  <SCORE.INTRA.POLAR.0>
0

>  <SCORE.INTRA.REPUL>
0

>  <SCORE.INTRA.REPUL.0>
0

>  <SCORE.INTRA.SOLV>
-1.79731

>  <SCORE.INTRA.SOLV.lig_0>
-90.9181

>  <SCORE.INTRA.VDW>
0.313671

>  <SCORE.INTRA.VDW.0>
-3.14158

>  <SCORE.INTRA.norm>
-0.184617

>  <SCORE.RESTR>
0

>  <SCORE.RESTR.CAVITY>
0

>  <SCORE.RESTR.norm>
0

>  <SCORE.SYSTEM>
0

>  <SCORE.SYSTEM.CONST>
0

>  <SCORE.SYSTEM.DIHEDRAL>
0

>  <SCORE.SYSTEM.SOLV>
0

>  <SCORE.SYSTEM.norm>
0

>  <SCORE.heavy>
37

>  <SCORE.norm>
-0.804408

>  <RMSD>
9.935

$$$$
1yrj_lig
 OpenBabel11021811423D
libRbt.so/2013.1/901 2013/11/27
 37 40  0  0  0  0  0  0  0  0999 V2000
   39.2264   -0.5128    9.2983 C   0  0  1  0  0  0  0  0  0  0  0  0
   38.1285   -0.2424    8.2509 C   0  0  1  0  0  0  0  0  0  0  0  0
   38.4590    0.9796    7.3791 C   0  0  0  0  0  0  0  0  0  0  0  0
   38.7189    2.2181    8.2759 C   0  0  1  0  0  0  0  0  0  0  0  0
   39.8559    1.9195    9.2714 C   0  0  1  0  0  0  0  0  0  0  0  0
   40.1099    3.2050   10.1664 C   0  0  1  0  0  0  0  0  0  0  0  0
   40.4875    4.3945    9.2686 C   0  0  1  0  0  0  0  0  0  0  0  0
   39.3372    4.6209    8.2578 C   0  0  2  0  0  0  0  0  0  0  0  0
   41.0992    6.8681    9.3855 C   0  0  0  0  0  0  0  0  0  0  0  0
   37.8756   -1.4190    7.4032 N   0  0  0  0  0  0  0  0  0  0  0  0
   40.7779    5.5978   10.1083 N   0  0  0  0  0  0  0  0  0  0  0  0
   40.4272   -1.0806    8.7426 O   0  0  0  0  0  0  0  0  0  0  0  0
   39.4826    0.7265   10.0580 O   0  0  0  0  0  0  0  0  0  0  0  0
   39.0805    3.4154    7.4832 O   0  0  0  0  0  0  0  0  0  0  0  0
   38.9182    3.5497   10.8415 O   0  0  0  0  0  0  0  0  0  0  0  0
   39.6341    5.6738    7.3397 O   0  0  0  0  0  0  0  0  0  0  0  0
   38.5329    5.9882    6.4554 C   0  0  2  0  0  0  0  0  0  0  0  0
   38.9828    6.5714    5.1059 C   0  0  1  0  0  0  0  0  0  0  0  0
   39.5786    7.9936    5.2814 C   0  0  2  0  0  0  0  0  0  0  0  0
   38.5625    8.8997    5.9381 C   0  0  1  0  0  0  0  0  0  0  0  0
   38.1526    8.3017    7.3048 C   0  0  1  0  0  0  0  0  0  0  0  0
   37.0881    9.1315    8.0191 C   0  0  0  0  0  0  0  0  0  0  0  0
   39.1594   10.2422    6.0956 N   0  0  0  0  0  0  0  0  0  0  0  0
   37.6093    6.9459    7.1071 O   0  0  0  0  0  0  0  0  0  0  0  0
   39.9179    5.6611    4.5093 O   0  0  0  0  0  0  0  0  0  0  0  0
   39.9177    8.5365    3.9980 O   0  0  0  0  0  0  0  0  0  0  0  0
   35.9283    9.1804    7.2315 O   0  0  0  0  0  0  0  0  0  0  0  0
   41.5634   -1.6490    9.5795 C   0  0  1  0  0  0  0  0  0  0  0  0
   42.2251   -0.4624   10.3144 C   0  0  1  0  0  0  0  0  0  0  0  0
   43.3585   -0.9462   11.2512 C   0  0  2  0  0  0  0  0  0  0  0  0
   42.8014   -1.9403   12.2770 C   0  0  1  0  0  0  0  0  0  0  0  0
   42.1665   -3.1553   11.5535 C   0  0  0  0  0  0  0  0  0  0  0  0
   41.0380   -2.6558   10.6452 C   0  0  2  0  0  0  0  0  0  0  0  0
   43.8920   -2.4072   13.1620 N   0  0  0  0  0  0  0  0  0  0  0  0
   40.4554   -3.8278    9.9972 N   0  0  0  0  0  0  0  0  0  0  0  0
   42.7873    0.4421    9.3388 O   0  0  0  0  0  0  0  0  0  0  0  0
   43.9230    0.1970   11.9286 O   0  0  0  0  0  0  0  0  0  0  0  0
  1  2  1  0  0  0  0
  1 12  1  6  0  0  0
  1 13  1  0  0  0  0
  2  3  1  0  0  0  0
  2 10  1  6  0  0  0
  4  3  1  6  0  0  0
  4  5  1  0  0  0  0
  4 14  1  0  0  0  0
  5  6  1  0  0  0  0
  5 13  1  1  0  0  0
  6  7  1  0  0  0  0
  6 15  1  6  0  0  0
  7  8  1  0  0  0  0
  7 11  1  1  0  0  0
  8 14  1  0  0  0  0
  8 16  1  6  0  0  0
  9 11  1  0  0  0  0
 17 16  1  1  0  0  0
 17 18  1  0  0  0  0
 17 24  1  0  0  0  0
 18 19  1  0  0  0  0
 18 25  1  1  0  0  0
 19 20  1  0  0  0  0
 19 26  1  6  0  0  0
 20 21  1  0  0  0  0
 20 23  1  1  0  0  0
 21 22  1  6  0  0  0
 21 24  1  0  0  0  0
 22 27  1  0  0  0  0
 28 12  1  1  0  0  0
 28 29  1  0  0  0  0
 28 33  1  0  0  0  0
 29 30  1  0  0  0  0
 29 36  1  6  0  0  0
 30 31  1  0  0  0  0
 30 37  1  1  0  0  0
 31 32  1  0  0  0  0
 31 34  1  1  0  0  0
 32 33  1  0  0  0  0
 33 35  1  6  0  0  0
M  END
>  <CHROM.1>
-169.55878317,-177.12178227,-174.96946874,-152.51336734,61.15038246,-68.26897699
39.97202147,3.05538876,8.58862046,1.16610231,0.76859611,3.01250322

>  <Name>
1yrj_lig

>  <RI>
0

>  <Rbt.Current_Directory>
/home/itssahil/PROJECTS/Mol_Feturizer/New_Systems/rnas/1yrj

>  <Rbt.Executable>
rbdock ($Id: //depot/dev/client3/rdock/2013.1/src/exe/rbdock.cxx#4 $)

>  <Rbt.Library>
libRbt.so (2013.1, Build901 2013/11/27)

>  <Rbt.Parameter_File>
/export/apps/rDock/src/rDock_2013.1_src/data/scripts/dock_solv.prm

>  <Rbt.Receptor>
prm/pocket_docking_4.prm

>  <SCORE>
-26.9192

>  <SCORE.INTER>
-21.5721

>  <SCORE.INTER.CONST>
1

>  <SCORE.INTER.POLAR>
-1.2997

>  <SCORE.INTER.ROT>
6

>  <SCORE.INTER.SOLV>
14.9967

>  <SCORE.INTER.VDW>
-22.648

>  <SCORE.INTER.norm>
-0.583029

>  <SCORE.INTRA>
-5.34708

>  <SCORE.INTRA.DIHEDRAL>
-11.4293

>  <SCORE.INTRA.DIHEDRAL.0>
15.6389

>  <SCORE.INTRA.POLAR>
0

>  <SCORE.INTRA.POLAR.0>
0

>  <SCORE.INTRA.REPUL>
0

>  <SCORE.INTRA.REPUL.0>
0

>  <SCORE.INTRA.SOLV>
-1.36032

>  <SCORE.INTRA.SOLV.lig_0>
-90.9181

>  <SCORE.INTRA.VDW>
1.04771

>  <SCORE.INTRA.VDW.0>
-3.14158

>  <SCORE.INTRA.norm>
-0.144516

>  <SCORE.RESTR>
0

>  <SCORE.RESTR.CAVITY>
0

>  <SCORE.RESTR.norm>
0

>  <SCORE.SYSTEM>
0

>  <SCORE.SYSTEM.CONST>
0

>  <SCORE.SYSTEM.DIHEDRAL>
0

>  <SCORE.SYSTEM.SOLV>
0

>  <SCORE.SYSTEM.norm>
0

>  <SCORE.heavy>
37

>  <SCORE.norm>
-0.727545

>  <RMSD>
9.936

$$$$
1yrj_lig
 OpenBabel11021811423D
libRbt.so/2013.1/901 2013/11/27
 37 40  0  0  0  0  0  0  0  0999 V2000
   39.2122   -0.1207    9.3557 C   0  0  1  0  0  0  0  0  0  0  0  0
   38.0247    0.1603    8.4143 C   0  0  1  0  0  0  0  0  0  0  0  0
   38.2668    1.4045    7.5449 C   0  0  0  0  0  0  0  0  0  0  0  0
   38.5927    2.6260    8.4435 C   0  0  1  0  0  0  0  0  0  0  0  0
   39.8150    2.3183    9.3292 C   0  0  1  0  0  0  0  0  0  0  0  0
   40.1344    3.5868   10.2275 C   0  0  1  0  0  0  0  0  0  0  0  0
   40.4215    4.7996    9.3274 C   0  0  1  0  0  0  0  0  0  0  0  0
   39.1853    5.0353    8.4259 C   0  0  2  0  0  0  0  0  0  0  0  0
   41.2718    7.2015    9.4468 C   0  0  0  0  0  0  0  0  0  0  0  0
   37.7095   -1.0003    7.5654 N   0  0  0  0  0  0  0  0  0  0  0  0
   40.7731    5.9875   10.1656 N   0  0  0  0  0  0  0  0  0  0  0  0
   40.3651   -0.6630    8.6849 O   0  0  0  0  0  0  0  0  0  0  0  0
   39.5225    1.1045   10.1181 O   0  0  0  0  0  0  0  0  0  0  0  0
   38.8729    3.8441    7.6496 O   0  0  0  0  0  0  0  0  0  0  0  0
   39.0032    3.9036   11.0114 O   0  0  0  0  0  0  0  0  0  0  0  0
   39.3914    6.1111    7.5095 O   0  0  0  0  0  0  0  0  0  0  0  0
   38.1690    6.5772    6.8914 C   0  0  2  0  0  0  0  0  0  0  0  0
   38.4084    7.5563    5.7306 C   0  0  1  0  0  0  0  0  0  0  0  0
   38.9623    8.9112    6.2462 C   0  0  2  0  0  0  0  0  0  0  0  0
   38.0066    9.5076    7.2540 C   0  0  1  0  0  0  0  0  0  0  0  0
   37.8097    8.5126    8.4222 C   0  0  1  0  0  0  0  0  0  0  0  0
   36.8172    9.0158    9.4679 C   0  0  0  0  0  0  0  0  0  0  0  0
   38.5624   10.7917    7.7290 N   0  0  0  0  0  0  0  0  0  0  0  0
   37.3022    7.2316    7.8990 O   0  0  0  0  0  0  0  0  0  0  0  0
   39.2921    6.9323    4.7879 O   0  0  0  0  0  0  0  0  0  0  0  0
   39.1025    9.8242    5.1490 O   0  0  0  0  0  0  0  0  0  0  0  0
   36.5094    7.9759   10.3577 O   0  0  0  0  0  0  0  0  0  0  0  0
   41.5347   -1.3188    9.4034 C   0  0  1  0  0  0  0  0  0  0  0  0
   42.2132   -0.2267   10.2595 C   0  0  1  0  0  0  0  0  0  0  0  0
   43.3829   -0.8113   11.0878 C   0  0  2  0  0  0  0  0  0  0  0  0
   42.8704   -1.9337   11.9981 C   0  0  1  0  0  0  0  0  0  0  0  0
   42.2193   -3.0550   11.1488 C   0  0  0  0  0  0  0  0  0  0  0  0
   41.0553   -2.4585   10.3505 C   0  0  2  0  0  0  0  0  0  0  0  0
   43.9954   -2.4953   12.7787 N   0  0  0  0  0  0  0  0  0  0  0  0
   40.4589   -3.5462    9.5798 N   0  0  0  0  0  0  0  0  0  0  0  0
   42.7332    0.8005    9.3875 O   0  0  0  0  0  0  0  0  0  0  0  0
   43.9625    0.2440   11.8848 O   0  0  0  0  0  0  0  0  0  0  0  0
  1  2  1  0  0  0  0
  1 12  1  6  0  0  0
  1 13  1  0  0  0  0
  2  3  1  0  0  0  0
  2 10  1  6  0  0  0
  4  3  1  6  0  0  0
  4  5  1  0  0  0  0
  4 14  1  0  0  0  0
  5  6  1  0  0  0  0
  5 13  1  1  0  0  0
  6  7  1  0  0  0  0
  6 15  1  1  0  0  0
  7  8  1  0  0  0  0
  7 11  1  1  0  0  0
  8 14  1  0  0  0  0
  8 16  1  6  0  0  0
  9 11  1  0  0  0  0
 17 16  1  1  0  0  0
 17 18  1  0  0  0  0
 17 24  1  0  0  0  0
 18 19  1  0  0  0  0
 18 25  1  6  0  0  0
 19 20  1  0  0  0  0
 19 26  1  6  0  0  0
 20 21  1  0  0  0  0
 20 23  1  1  0  0  0
 21 22  1  1  0  0  0
 21 24  1  0  0  0  0
 22 27  1  0  0  0  0
 28 12  1  1  0  0  0
 28 29  1  0  0  0  0
 28 33  1  0  0  0  0
 29 30  1  0  0  0  0
 29 36  1  6  0  0  0
 30 31  1  0  0  0  0
 30 37  1  1  0  0  0
 31 32  1  0  0  0  0
 31 34  1  6  0  0  0
 32 33  1  0  0  0  0
 33 35  1  6  0  0  0
M  END
>  <CHROM.1>
-165.41318494,171.51318246,-165.47019476,-169.82333962,169.47737514,-64.83628168
39.82942753,3.41542958,8.93452437,1.13120377,0.75376101,-3.13368353

>  <Name>
1yrj_lig

>  <RI>
0

>  <Rbt.Current_Directory>
/home/itssahil/PROJECTS/Mol_Feturizer/New_Systems/rnas/1yrj

>  <Rbt.Executable>
rbdock ($Id: //depot/dev/client3/rdock/2013.1/src/exe/rbdock.cxx#4 $)

>  <Rbt.Library>
libRbt.so (2013.1, Build901 2013/11/27)

>  <Rbt.Parameter_File>
/export/apps/rDock/src/rDock_2013.1_src/data/scripts/dock_solv.prm

>  <Rbt.Receptor>
prm/pocket_docking_5.prm

>  <SCORE>
-28.4161

>  <SCORE.INTER>
-21.363

>  <SCORE.INTER.CONST>
1

>  <SCORE.INTER.POLAR>
-1.16132

>  <SCORE.INTER.ROT>
6

>  <SCORE.INTER.SOLV>
13.64

>  <SCORE.INTER.VDW>
-22.5176

>  <SCORE.INTER.norm>
-0.577378

>  <SCORE.INTRA>
-7.05308

>  <SCORE.INTRA.DIHEDRAL>
-12.4987

>  <SCORE.INTRA.DIHEDRAL.0>
15.6389

>  <SCORE.INTRA.POLAR>
0

>  <SCORE.INTRA.POLAR.0>
0

>  <SCORE.INTRA.REPUL>
0

>  <SCORE.INTRA.REPUL.0>
0

>  <SCORE.INTRA.SOLV>
-1.78977

>  <SCORE.INTRA.SOLV.lig_0>
-90.9181

>  <SCORE.INTRA.VDW>
0.0911392

>  <SCORE.INTRA.VDW.0>
-3.14158

>  <SCORE.INTRA.norm>
-0.190624

>  <SCORE.RESTR>
0

>  <SCORE.RESTR.CAVITY>
0

>  <SCORE.RESTR.norm>
0

>  <SCORE.SYSTEM>
0

>  <SCORE.SYSTEM.CONST>
0

>  <SCORE.SYSTEM.DIHEDRAL>
0

>  <SCORE.SYSTEM.SOLV>
0

>  <SCORE.SYSTEM.norm>
0

>  <SCORE.heavy>
37

>  <SCORE.norm>
-0.768002

>  <RMSD>
9.937

$$$$
1yrj_lig
 OpenBabel11021811423D
libRbt.so/2013.1/901 2013/11/27
 37 40  0  0  0  0  0  0  0  0999 V2000
   39.0644   -0.3349    9.1969 C   0  0  1  0  0  0  0  0  0  0  0  0
   37.9098    0.0473    8.2501 C   0  0  1  0  0  0  0  0  0  0  0  0
   38.2399    1.3001    7.4232 C   0  0  0  0  0  0  0  0  0  0  0  0
   38.6270    2.4713    8.3636 C   0  0  1  0  0  0  0  0  0  0  0  0
   39.8154    2.0621    9.2543 C   0  0  1  0  0  0  0  0  0  0  0  0
   40.1988    3.2805   10.1958 C   0  0  1  0  0  0  0  0  0  0  0  0
   40.5723    4.5003    9.3378 C   0  0  1  0  0  0  0  0  0  0  0  0
   39.3658    4.8390    8.4289 C   0  0  2  0  0  0  0  0  0  0  0  0
   41.2855    6.9406    9.5449 C   0  0  0  0  0  0  0  0  0  0  0  0
   37.5365   -1.0653    7.3614 N   0  0  0  0  0  0  0  0  0  0  0  0
   40.9838    5.6382   10.2171 N   0  0  0  0  0  0  0  0  0  0  0  0
   40.1915   -0.9264    8.5237 O   0  0  0  0  0  0  0  0  0  0  0  0
   39.4381    0.8451   10.0010 O   0  0  0  0  0  0  0  0  0  0  0  0
   38.9924    3.6935    7.6118 O   0  0  0  0  0  0  0  0  0  0  0  0
   39.0780    3.6422   10.9753 O   0  0  0  0  0  0  0  0  0  0  0  0
   39.6504    5.9275    7.5494 O   0  0  0  0  0  0  0  0  0  0  0  0
   38.5049    6.3483    6.7720 C   0  0  2  0  0  0  0  0  0  0  0  0
   38.8840    6.9937    5.4290 C   0  0  1  0  0  0  0  0  0  0  0  0
   39.5635    8.3724    5.6425 C   0  0  2  0  0  0  0  0  0  0  0  0
   38.6462    9.2820    6.4275 C   0  0  1  0  0  0  0  0  0  0  0  0
   38.3074    8.6190    7.7836 C   0  0  1  0  0  0  0  0  0  0  0  0
   37.3423    9.4511    8.6250 C   0  0  0  0  0  0  0  0  0  0  0  0
   39.3213   10.5824    6.6183 N   0  0  0  0  0  0  0  0  0  0  0  0
   37.6821    7.3053    7.5479 O   0  0  0  0  0  0  0  0  0  0  0  0
   39.7248    6.0799    4.7098 O   0  0  0  0  0  0  0  0  0  0  0  0
   39.8350    8.9786    4.3714 O   0  0  0  0  0  0  0  0  0  0  0  0
   36.1529    9.6521    7.9089 O   0  0  0  0  0  0  0  0  0  0  0  0
   41.3698   -1.5658    9.2428 C   0  0  1  0  0  0  0  0  0  0  0  0
   42.1201   -0.4354    9.9813 C   0  0  1  0  0  0  0  0  0  0  0  0
   43.3057   -0.9954   10.8042 C   0  0  2  0  0  0  0  0  0  0  0  0
   42.7977   -2.0248   11.8206 C   0  0  1  0  0  0  0  0  0  0  0  0
   42.0740   -3.1848   11.0901 C   0  0  0  0  0  0  0  0  0  0  0  0
   40.8960   -2.6108   10.2960 C   0  0  2  0  0  0  0  0  0  0  0  0
   43.9372   -2.5641   12.5960 N   0  0  0  0  0  0  0  0  0  0  0  0
   40.2314   -3.7330    9.6388 N   0  0  0  0  0  0  0  0  0  0  0  0
   42.6342    0.5019    9.0102 O   0  0  0  0  0  0  0  0  0  0  0  0
   43.9535    0.0972   11.4906 O   0  0  0  0  0  0  0  0  0  0  0  0
  1  2  1  0  0  0  0
  1 12  1  6  0  0  0
  1 13  1  0  0  0  0
  2  3  1  0  0  0  0
  2 10  1  6  0  0  0
  4  3  1  6  0  0  0
  4  5  1  0  0  0  0
  4 14  1  0  0  0  0
  5  6  1  0  0  0  0
  5 13  1  1  0  0  0
  6  7  1  0  0  0  0
  6 15  1  1  0  0  0
  7  8  1  0  0  0  0
  7 11  1  1  0  0  0
  8 14  1  0  0  0  0
  8 16  1  6  0  0  0
  9 11  1  0  0  0  0
 17 16  1  1  0  0  0
 17 18  1  0  0  0  0
 17 24  1  0  0  0  0
 18 19  1  0  0  0  0
 18 25  1  1  0  0  0
 19 20  1  0  0  0  0
 19 26  1  6  0  0  0
 20 21  1  0  0  0  0
 20 23  1  1  0  0  0
 21 22  1  6  0  0  0
 21 24  1  0  0  0  0
 22 27  1  0  0  0  0
 28 12  1  1  0  0  0
 28 29  1  0  0  0  0
 28 33  1  0  0  0  0
 29 30  1  0  0  0  0
 29 36  1  6  0  0  0
 30 31  1  0  0  0  0
 30 37  1  1  0  0  0
 31 32  1  0  0  0  0
 31 34  1  6  0  0  0
 32 33  1  0  0  0  0
 33 35  1  6  0  0  0
M  END
>  <CHROM.1>
-171.08960903,-175.66338141,-174.70782832,-152.85179799,58.64939356,-67.12861456
39.94522184,3.24758754,8.63053938,1.21742870,0.69232363,3.03512985

>  <Name>
1yrj_lig

>  <RI>
0

>  <Rbt.Current_Directory>
/home/itssahil/PROJECTS/Mol_Feturizer/New_Systems/rnas/1yrj

>  <Rbt.Executable>
rbdock ($Id: //depot/dev/client3/rdock/2013.1/src/exe/rbdock.cxx#4 $)

>  <Rbt.Library>
libRbt.so (2013.1, Build901 2013/11/27)

>  <Rbt.Parameter_File>
/export/apps/rDock/src/rDock_2013.1_src/data/scripts/dock_solv.prm

>  <Rbt.Receptor>
prm/pocket_docking_3.prm

>  <SCORE>
-24.4699

>  <SCORE.INTER>
-19.4586

>  <SCORE.INTER.CONST>
1

>  <SCORE.INTER.POLAR>
-1.1358

>  <SCORE.INTER.ROT>
6

>  <SCORE.INTER.SOLV>
14.5393

>  <SCORE.INTER.VDW>
-21.6328

>  <SCORE.INTER.norm>
-0.525908

>  <SCORE.INTRA>
-5.33413

>  <SCORE.INTRA.DIHEDRAL>
-11.6909

>  <SCORE.INTRA.DIHEDRAL.0>
15.6389

>  <SCORE.INTRA.POLAR>
0

>  <SCORE.INTRA.POLAR.0>
0

>  <SCORE.INTRA.REPUL>
0

>  <SCORE.INTRA.REPUL.0>
0

>  <SCORE.INTRA.SOLV>
-1.33866

>  <SCORE.INTRA.SOLV.lig_0>
-90.9181

>  <SCORE.INTRA.VDW>
1.18065

>  <SCORE.INTRA.VDW.0>
-3.14158

>  <SCORE.INTRA.norm>
-0.144166

>  <SCORE.RESTR>
0.322813

>  <SCORE.RESTR.CAVITY>
0.322813

>  <SCORE.RESTR.norm>
0.00872467

>  <SCORE.SYSTEM>
0

>  <SCORE.SYSTEM.CONST>
0

>  <SCORE.SYSTEM.DIHEDRAL>
0

>  <SCORE.SYSTEM.SOLV>
0

>  <SCORE.SYSTEM.norm>
0

>  <SCORE.heavy>
37

>  <SCORE.norm>
-0.661349

>  <RMSD>
9.938

$$$$
1yrj_lig
 OpenBabel11021811423D
libRbt.so/2013.1/901 2013/11/27
 37 40  0  0  0  0  0  0  0  0999 V2000
   39.1366   -0.6037    9.3524 C   0  0  1  0  0  0  0  0  0  0  0  0
   37.9992   -0.3767    8.3374 C   0  0  1  0  0  0  0  0  0  0  0  0
   38.2956    0.8067    7.4024 C   0  0  0  0  0  0  0  0  0  0  0  0
   38.5892    2.0818    8.2351 C   0  0  1  0  0  0  0  0  0  0  0  0
   39.7638    1.8244    9.1980 C   0  0  1  0  0  0  0  0  0  0  0  0
   40.0514    3.1466   10.0271 C   0  0  1  0  0  0  0  0  0  0  0  0
   40.3938    4.2963    9.0657 C   0  0  1  0  0  0  0  0  0  0  0  0
   39.2054    4.4810    8.0910 C   0  0  2  0  0  0  0  0  0  0  0  0
   41.8572    5.4527   10.8058 C   0  0  0  0  0  0  0  0  0  0  0  0
   37.7145   -1.5880    7.5509 N   0  0  0  0  0  0  0  0  0  0  0  0
   40.7157    5.5339    9.8417 N   0  0  0  0  0  0  0  0  0  0  0  0
   40.3155   -1.1961    8.7757 O   0  0  0  0  0  0  0  0  0  0  0  0
   39.4214    0.6664   10.0483 O   0  0  0  0  0  0  0  0  0  0  0  0
   38.9196    3.2439    7.3789 O   0  0  0  0  0  0  0  0  0  0  0  0
   38.8864    3.5211   10.7322 O   0  0  0  0  0  0  0  0  0  0  0  0
   39.4665    5.4935    7.1183 O   0  0  0  0  0  0  0  0  0  0  0  0
   38.3573    5.7195    6.2171 C   0  0  2  0  0  0  0  0  0  0  0  0
   38.7747    6.3715    4.8889 C   0  0  1  0  0  0  0  0  0  0  0  0
   39.2275    7.8401    5.1041 C   0  0  2  0  0  0  0  0  0  0  0  0
   38.1165    8.6307    5.7564 C   0  0  1  0  0  0  0  0  0  0  0  0
   37.7399    7.9676    7.1024 C   0  0  1  0  0  0  0  0  0  0  0  0
   36.5871    8.6763    7.8098 C   0  0  0  0  0  0  0  0  0  0  0  0
   38.5784   10.0206    5.9521 N   0  0  0  0  0  0  0  0  0  0  0  0
   37.3335    6.5704    6.8674 O   0  0  0  0  0  0  0  0  0  0  0  0
   39.8043    5.5677    4.2948 O   0  0  0  0  0  0  0  0  0  0  0  0
   39.5373    8.4399    3.8387 O   0  0  0  0  0  0  0  0  0  0  0  0
   37.0120    9.9415    8.2420 O   0  0  0  0  0  0  0  0  0  0  0  0
   41.4832   -1.7298    9.5918 C   0  0  1  0  0  0  0  0  0  0  0  0
   42.1387   -0.5199   10.2936 C   0  0  1  0  0  0  0  0  0  0  0  0
   43.3044   -0.9678   11.2084 C   0  0  2  0  0  0  0  0  0  0  0  0
   42.7929   -1.9580   12.2615 C   0  0  1  0  0  0  0  0  0  0  0  0
   42.1651   -3.1955   11.5707 C   0  0  0  0  0  0  0  0  0  0  0  0
   41.0047   -2.7316   10.6841 C   0  0  2  0  0  0  0  0  0  0  0  0
   43.9142   -2.3904   13.1253 N   0  0  0  0  0  0  0  0  0  0  0  0
   40.4301   -3.9240   10.0670 N   0  0  0  0  0  0  0  0  0  0  0  0
   42.6583    0.3815    9.2919 O   0  0  0  0  0  0  0  0  0  0  0  0
   43.8622    0.1961   11.8557 O   0  0  0  0  0  0  0  0  0  0  0  0
  1  2  1  0  0  0  0
  1 12  1  6  0  0  0
  1 13  1  0  0  0  0
  2  3  1  0  0  0  0
  2 10  1  6  0  0  0
  4  3  1  6  0  0  0
  4  5  1  0  0  0  0
  4 14  1  0  0  0  0
  5  6  1  0  0  0  0
  5 13  1  1  0  0  0
  6  7  1  0  0  0  0
  6 15  1  6  0  0  0
  7  8  1  0  0  0  0
  7 11  1  1  0  0  0
  8 14  1  0  0  0  0
  8 16  1  6  0  0  0
  9 11  1  0  0  0  0
 17 16  1  1  0  0  0
 17 18  1  0  0  0  0
 17 24  1  0  0  0  0
 18 19  1  0  0  0  0
 18 25  1  1  0  0  0
 19 20  1  0  0  0  0
 19 26  1  6  0  0  0
 20 21  1  0  0  0  0
 20 23  1  1  0  0  0
 21 22  1  6  0  0  0
 21 24  1  0  0  0  0
 22 27  1  0  0  0  0
 28 12  1  1  0  0  0
 28 29  1  0  0  0  0
 28 33  1  0  0  0  0
 29 30  1  0  0  0  0
 29 36  1  6  0  0  0
 30 31  1  0  0  0  0
 30 37  1  1  0  0  0
 31 32  1  0  0  0  0
 31 34  1  1  0  0  0
 32 33  1  0  0  0  0
 33 35  1  6  0  0  0
M  END
>  <CHROM.1>
-169.55880065,59.19963183,-178.18339665,-158.03221786,-68.30827292,-66.11216052
39.87783823,2.91441805,8.57669347,1.10639714,0.84210983,3.06605258

>  <Name>
1yrj_lig

>  <RI>
0

>  <Rbt.Current_Directory>
/home/itssahil/PROJECTS/Mol_Feturizer/New_Systems/rnas/1yrj

>  <Rbt.Executable>
rbdock ($Id: //depot/dev/client3/rdock/2013.1/src/exe/rbdock.cxx#4 $)

>  <Rbt.Library>
libRbt.so (2013.1, Build901 2013/11/27)

>  <Rbt.Parameter_File>
/export/apps/rDock/src/rDock_2013.1_src/data/scripts/dock_solv.prm

>  <Rbt.Receptor>
prm/pocket_docking_4.prm

>  <SCORE>
-30.5766

>  <SCORE.INTER>
-24.6455

>  <SCORE.INTER.CONST>
1

>  <SCORE.INTER.POLAR>
-1.33678

>  <SCORE.INTER.ROT>
6

>  <SCORE.INTER.SOLV>
15.2177

>  <SCORE.INTER.VDW>
-24.6469

>  <SCORE.INTER.norm>
-0.666094

>  <SCORE.INTRA>
-5.93115

>  <SCORE.INTRA.DIHEDRAL>
-12.447

>  <SCORE.INTRA.DIHEDRAL.0>
15.6389

>  <SCORE.INTRA.POLAR>
0

>  <SCORE.INTRA.POLAR.0>
0

>  <SCORE.INTRA.REPUL>
0

>  <SCORE.INTRA.REPUL.0>
0

>  <SCORE.INTRA.SOLV>
-1.12191

>  <SCORE.INTRA.SOLV.lig_0>
-90.9181

>  <SCORE.INTRA.VDW>
0.853324

>  <SCORE.INTRA.VDW.0>
-3.14158

>  <SCORE.INTRA.norm>
-0.160301

>  <SCORE.RESTR>
0

>  <SCORE.RESTR.CAVITY>
0

>  <SCORE.RESTR.norm>
0

>  <SCORE.SYSTEM>
0

>  <SCORE.SYSTEM.CONST>
0

>  <SCORE.SYSTEM.DIHEDRAL>
0

>  <SCORE.SYSTEM.SOLV>
0

>  <SCORE.SYSTEM.norm>
0

>  <SCORE.heavy>
37

>  <SCORE.norm>
-0.826396

>  <RMSD>
9.942

$$$$
1yrj_lig
 OpenBabel11021811423D
libRbt.so/2013.1/901 2013/11/27
 37 40  0  0  0  0  0  0  0  0999 V2000
   38.1239   -1.7707    9.0858 C   0  0  1  0  0  0  0  0  0  0  0  0
   37.1855   -1.3704    7.9305 C   0  0  1  0  0  0  0  0  0  0  0  0
   37.7450   -0.1880    7.1235 C   0  0  0  0  0  0  0  0  0  0  0  0
   38.0414    1.0070    8.0669 C   0  0  1  0  0  0  0  0  0  0  0  0
   39.0209    0.5746    9.1744 C   0  0  1  0  0  0  0  0  0  0  0  0
   39.3169    1.8170   10.1162 C   0  0  1  0  0  0  0  0  0  0  0  0
   39.9222    2.9620    9.2879 C   0  0  1  0  0  0  0  0  0  0  0  0
   38.9231    3.3242    8.1623 C   0  0  2  0  0  0  0  0  0  0  0  0
   41.6969    4.3466   10.4877 C   0  0  0  0  0  0  0  0  0  0  0  0
   36.8976   -2.5050    7.0379 N   0  0  0  0  0  0  0  0  0  0  0  0
   40.2510    4.1189   10.1771 N   0  0  0  0  0  0  0  0  0  0  0  0
   39.3075   -2.4672    8.6535 O   0  0  0  0  0  0  0  0  0  0  0  0
   38.4318   -0.5736    9.8925 O   0  0  0  0  0  0  0  0  0  0  0  0
   38.6201    2.1609    7.3414 O   0  0  0  0  0  0  0  0  0  0  0  0
   38.1042    2.2900   10.6640 O   0  0  0  0  0  0  0  0  0  0  0  0
   39.4356    4.3428    7.3025 O   0  0  0  0  0  0  0  0  0  0  0  0
   38.4006    5.0837    6.6144 C   0  0  2  0  0  0  0  0  0  0  0  0
   38.9424    5.9997    5.5048 C   0  0  1  0  0  0  0  0  0  0  0  0
   39.7469    7.1854    6.1007 C   0  0  2  0  0  0  0  0  0  0  0  0
   38.8766    7.9687    7.0568 C   0  0  1  0  0  0  0  0  0  0  0  0
   38.3719    7.0275    8.1762 C   0  0  1  0  0  0  0  0  0  0  0  0
   37.4420    7.7279    9.1643 C   0  0  0  0  0  0  0  0  0  0  0  0
   39.6701    9.0856    7.6101 N   0  0  0  0  0  0  0  0  0  0  0  0
   37.6297    5.9033    7.5782 O   0  0  0  0  0  0  0  0  0  0  0  0
   39.7315    5.2049    4.6078 O   0  0  0  0  0  0  0  0  0  0  0  0
   40.1726    8.0585    5.0456 O   0  0  0  0  0  0  0  0  0  0  0  0
   36.3734    8.3106    8.4668 O   0  0  0  0  0  0  0  0  0  0  0  0
   40.3274   -3.0779    9.6028 C   0  0  1  0  0  0  0  0  0  0  0  0
   41.1902   -1.9196   10.1505 C   0  0  1  0  0  0  0  0  0  0  0  0
   42.2225   -2.4311   11.1843 C   0  0  2  0  0  0  0  0  0  0  0  0
   41.5009   -3.1277   12.3441 C   0  0  1  0  0  0  0  0  0  0  0  0
   40.6596   -4.3164   11.8131 C   0  0  0  0  0  0  0  0  0  0  0  0
   39.6349   -3.7858   10.8049 C   0  0  2  0  0  0  0  0  0  0  0  0
   42.4940   -3.6239   13.3230 N   0  0  0  0  0  0  0  0  0  0  0  0
   38.8528   -4.9293   10.3427 N   0  0  0  0  0  0  0  0  0  0  0  0
   41.9010   -1.3024    9.0551 O   0  0  0  0  0  0  0  0  0  0  0  0
   42.9818   -1.3074   11.6797 O   0  0  0  0  0  0  0  0  0  0  0  0
  1  2  1  0  0  0  0
  1 12  1  6  0  0  0
  1 13  1  0  0  0  0
  2  3  1  0  0  0  0
  2 10  1  6  0  0  0
  4  3  1  6  0  0  0
  4  5  1  0  0  0  0
  4 14  1  0  0  0  0
  5  6  1  0  0  0  0
  5 13  1  1  0  0  0
  6  7  1  0  0  0  0
  6 15  1  6  0  0  0
  7  8  1  0  0  0  0
  7 11  1  1  0  0  0
  8 14  1  0  0  0  0
  8 16  1  6  0  0  0
  9 11  1  0  0  0  0
 17 16  1  1  0  0  0
 17 18  1  0  0  0  0
 17 24  1  0  0  0  0
 18 19  1  0  0  0  0
 18 25  1  6  0  0  0
 19 20  1  0  0  0  0
 19 26  1  6  0  0  0
 20 21  1  0  0  0  0
 20 23  1  1  0  0  0
 21 22  1  1  0  0  0
 21 24  1  0  0  0  0
 22 27  1  0  0  0  0
 28 12  1  6  0  0  0
 28 29  1  0  0  0  0
 28 33  1  0  0  0  0
 29 30  1  0  0  0  0
 29 36  1  6  0  0  0
 30 31  1  0  0  0  0
 30 37  1  1  0  0  0
 31 32  1  0  0  0  0
 31 34  1  1  0  0  0
 32 33  1  0  0  0  0
 33 35  1  6  0  0  0
M  END
>  <CHROM.1>
-174.26804813,105.70666296,-156.20485914,-169.51887040,55.44773300,-77.29352970
39.41105222,1.83442175,8.80924445,1.35516529,0.79453608,2.95794432

>  <Name>
1yrj_lig

>  <RI>
0

>  <Rbt.Current_Directory>
/home/itssahil/PROJECTS/Mol_Feturizer/New_Systems/rnas/1yrj

>  <Rbt.Executable>
rbdock ($Id: //depot/dev/client3/rdock/2013.1/src/exe/rbdock.cxx#4 $)

>  <Rbt.Library>
libRbt.so (2013.1, Build901 2013/11/27)

>  <Rbt.Parameter_File>
/export/apps/rDock/src/rDock_2013.1_src/data/scripts/dock_solv.prm

>  <Rbt.Receptor>
prm/pocket_docking_6.prm

>  <SCORE>
-22.9297

>  <SCORE.INTER>
-16.8394

>  <SCORE.INTER.CONST>
1

>  <SCORE.INTER.POLAR>
-0.747958

>  <SCORE.INTER.ROT>
6

>  <SCORE.INTER.SOLV>
18.7904

>  <SCORE.INTER.VDW>
-22.5966

>  <SCORE.INTER.norm>
-0.45512

>  <SCORE.INTRA>
-6.09024

>  <SCORE.INTRA.DIHEDRAL>
-9.91356

>  <SCORE.INTRA.DIHEDRAL.0>
15.6389

>  <SCORE.INTRA.POLAR>
0

>  <SCORE.INTRA.POLAR.0>
0

>  <SCORE.INTRA.REPUL>
0

>  <SCORE.INTRA.REPUL.0>
0

>  <SCORE.INTRA.SOLV>
-1.24461

>  <SCORE.INTRA.SOLV.lig_0>
-90.9181

>  <SCORE.INTRA.VDW>
-0.511156

>  <SCORE.INTRA.VDW.0>
-3.14158

>  <SCORE.INTRA.norm>
-0.164601

>  <SCORE.RESTR>
0

>  <SCORE.RESTR.CAVITY>
0

>  <SCORE.RESTR.norm>
0

>  <SCORE.SYSTEM>
0

>  <SCORE.SYSTEM.CONST>
0

>  <SCORE.SYSTEM.DIHEDRAL>
0

>  <SCORE.SYSTEM.SOLV>
0

>  <SCORE.SYSTEM.norm>
0

>  <SCORE.heavy>
37

>  <SCORE.norm>
-0.619721

>  <RMSD>
9.946

$$$$
1yrj_lig
 OpenBabel11021811423D
libRbt.so/2013.1/901 2013/11/27
 37 40  0  0  0  0  0  0  0  0999 V2000
   39.1737   -0.4646    9.4162 C   0  0  1  0  0  0  0  0  0  0  0  0
   38.0316   -0.2209    8.4103 C   0  0  1  0  0  0  0  0  0  0  0  0
   38.3236    0.9778    7.4937 C   0  0  0  0  0  0  0  0  0  0  0  0
   38.6210    2.2390    8.3460 C   0  0  1  0  0  0  0  0  0  0  0  0
   39.8000    1.9659    9.2991 C   0  0  1  0  0  0  0  0  0  0  0  0
   40.0913    3.2741   10.1486 C   0  0  1  0  0  0  0  0  0  0  0  0
   40.4293    4.4396    9.2049 C   0  0  1  0  0  0  0  0  0  0  0  0
   39.2365    4.6403    8.2388 C   0  0  2  0  0  0  0  0  0  0  0  0
   41.0495    6.9137    9.2309 C   0  0  0  0  0  0  0  0  0  0  0  0
   37.7433   -1.4191    7.6051 N   0  0  0  0  0  0  0  0  0  0  0  0
   40.7547    5.6642    9.9997 N   0  0  0  0  0  0  0  0  0  0  0  0
   40.3499   -1.0472    8.8244 O   0  0  0  0  0  0  0  0  0  0  0  0
   39.4615    0.7939   10.1317 O   0  0  0  0  0  0  0  0  0  0  0  0
   38.9475    3.4151    7.5077 O   0  0  0  0  0  0  0  0  0  0  0  0
   38.9296    3.6368   10.8652 O   0  0  0  0  0  0  0  0  0  0  0  0
   39.4930    5.6688    7.2818 O   0  0  0  0  0  0  0  0  0  0  0  0
   38.3806    5.9079    6.3881 C   0  0  2  0  0  0  0  0  0  0  0  0
   38.7976    6.5492    5.0545 C   0  0  1  0  0  0  0  0  0  0  0  0
   39.2734    8.0118    5.2611 C   0  0  2  0  0  0  0  0  0  0  0  0
   38.1789    8.8207    5.9188 C   0  0  1  0  0  0  0  0  0  0  0  0
   37.8026    8.1678    7.2700 C   0  0  1  0  0  0  0  0  0  0  0  0
   36.6656    8.8957    7.9833 C   0  0  0  0  0  0  0  0  0  0  0  0
   38.6624   10.2044    6.1062 N   0  0  0  0  0  0  0  0  0  0  0  0
   37.3742    6.7759    7.0429 O   0  0  0  0  0  0  0  0  0  0  0  0
   39.8109    5.7284    4.4557 O   0  0  0  0  0  0  0  0  0  0  0  0
   39.5825    8.6027    3.9914 O   0  0  0  0  0  0  0  0  0  0  0  0
   37.1037   10.1668    8.3836 O   0  0  0  0  0  0  0  0  0  0  0  0
   41.5192   -1.5986    9.6262 C   0  0  1  0  0  0  0  0  0  0  0  0
   42.1853   -0.4023   10.3411 C   0  0  1  0  0  0  0  0  0  0  0  0
   43.3537   -0.8692   11.2429 C   0  0  2  0  0  0  0  0  0  0  0  0
   42.8427   -1.8712   12.2849 C   0  0  1  0  0  0  0  0  0  0  0  0
   42.2042   -3.0955   11.5806 C   0  0  0  0  0  0  0  0  0  0  0  0
   41.0413   -2.6130   10.7071 C   0  0  2  0  0  0  0  0  0  0  0  0
   43.9664   -2.3217   13.1362 N   0  0  0  0  0  0  0  0  0  0  0  0
   40.4567   -3.7935   10.0768 N   0  0  0  0  0  0  0  0  0  0  0  0
   42.7042    0.5103    9.3491 O   0  0  0  0  0  0  0  0  0  0  0  0
   43.9215    0.2825   11.9031 O   0  0  0  0  0  0  0  0  0  0  0  0
  1  2  1  0  0  0  0
  1 12  1  6  0  0  0
  1 13  1  0  0  0  0
  2  3  1  0  0  0  0
  2 10  1  6  0  0  0
  4  3  1  6  0  0  0
  4  5  1  0  0  0  0
  4 14  1  0  0  0  0
  5  6  1  0  0  0  0
  5 13  1  1  0  0  0
  6  7  1  0  0  0  0
  6 15  1  6  0  0  0
  7  8  1  0  0  0  0
  7 11  1  1  0  0  0
  8 14  1  0  0  0  0
  8 16  1  6  0  0  0
  9 11  1  0  0  0  0
 17 16  1  1  0  0  0
 17 18  1  0  0  0  0
 17 24  1  0  0  0  0
 18 19  1  0  0  0  0
 18 25  1  1  0  0  0
 19 20  1  0  0  0  0
 19 26  1  6  0  0  0
 20 21  1  0  0  0  0
 20 23  1  1  0  0  0
 21 22  1  6  0  0  0
 21 24  1  0  0  0  0
 22 27  1  0  0  0  0
 28 12  1  1  0  0  0
 28 29  1  0  0  0  0
 28 33  1  0  0  0  0
 29 30  1  0  0  0  0
 29 36  1  6  0  0  0
 30 31  1  0  0  0  0
 30 37  1  1  0  0  0
 31 32  1  0  0  0  0
 31 34  1  6  0  0  0
 32 33  1  0  0  0  0
 33 35  1  6  0  0  0
M  END
>  <CHROM.1>
-169.33767473,-177.36788301,-178.28852458,-156.56233991,-67.09665766,-66.54042625
39.89568357,3.10190996,8.63194764,1.13332845,0.81291660,3.05635989

>  <Name>
1yrj_lig

>  <RI>
0

>  <Rbt.Current_Directory>
/home/itssahil/PROJECTS/Mol_Feturizer/New_Systems/rnas/1yrj

>  <Rbt.Executable>
rbdock ($Id: //depot/dev/client3/rdock/2013.1/src/exe/rbdock.cxx#4 $)

>  <Rbt.Library>
libRbt.so (2013.1, Build901 2013/11/27)

>  <Rbt.Parameter_File>
/export/apps/rDock/src/rDock_2013.1_src/data/scripts/dock_solv.prm

>  <Rbt.Receptor>
prm/pocket_docking_4.prm

>  <SCORE>
-28.3226

>  <SCORE.INTER>
-22.9087

>  <SCORE.INTER.CONST>
1

>  <SCORE.INTER.POLAR>
-1.31328

>  <SCORE.INTER.ROT>
6

>  <SCORE.INTER.SOLV>
14.7512

>  <SCORE.INTER.VDW>
-23.4119

>  <SCORE.INTER.norm>
-0.619155

>  <SCORE.INTRA>
-5.41392

>  <SCORE.INTRA.DIHEDRAL>
-12.2055

>  <SCORE.INTRA.DIHEDRAL.0>
15.6389

>  <SCORE.INTRA.POLAR>
0

>  <SCORE.INTRA.POLAR.0>
0

>  <SCORE.INTRA.REPUL>
0

>  <SCORE.INTRA.REPUL.0>
0

>  <SCORE.INTRA.SOLV>
-1.01526

>  <SCORE.INTRA.SOLV.lig_0>
-90.9181

>  <SCORE.INTRA.VDW>
1.19648

>  <SCORE.INTRA.VDW.0>
-3.14158

>  <SCORE.INTRA.norm>
-0.146322

>  <SCORE.RESTR>
0

>  <SCORE.RESTR.CAVITY>
0

>  <SCORE.RESTR.norm>
0

>  <SCORE.SYSTEM>
0

>  <SCORE.SYSTEM.CONST>
0

>  <SCORE.SYSTEM.DIHEDRAL>
0

>  <SCORE.SYSTEM.SOLV>
0

>  <SCORE.SYSTEM.norm>
0

>  <SCORE.heavy>
37

>  <SCORE.norm>
-0.765477

>  <RMSD>
9.947

$$$$
1yrj_lig
 OpenBabel11021811423D
libRbt.so/2013.1/901 2013/11/27
 37 40  0  0  0  0  0  0  0  0999 V2000
   39.1487   -0.5771    9.3381 C   0  0  1  0  0  0  0  0  0  0  0  0
   38.0118   -0.3617    8.3199 C   0  0  1  0  0  0  0  0  0  0  0  0
   38.3052    0.8156    7.3763 C   0  0  0  0  0  0  0  0  0  0  0  0
   38.5933    2.0980    8.1997 C   0  0  1  0  0  0  0  0  0  0  0  0
   39.7675    1.8521    9.1660 C   0  0  1  0  0  0  0  0  0  0  0  0
   40.0495    3.1814    9.9853 C   0  0  1  0  0  0  0  0  0  0  0  0
   40.3892    4.3250    9.0157 C   0  0  1  0  0  0  0  0  0  0  0  0
   39.2014    4.4981    8.0381 C   0  0  2  0  0  0  0  0  0  0  0  0
   41.7891    5.4761   10.8106 C   0  0  0  0  0  0  0  0  0  0  0  0
   37.7322   -1.5799    7.5422 N   0  0  0  0  0  0  0  0  0  0  0  0
   40.7058    5.5696    9.7826 N   0  0  0  0  0  0  0  0  0  0  0  0
   40.3303   -1.1696    8.7674 O   0  0  0  0  0  0  0  0  0  0  0  0
   39.4281    0.6994   10.0246 O   0  0  0  0  0  0  0  0  0  0  0  0
   38.9208    3.2547    7.3351 O   0  0  0  0  0  0  0  0  0  0  0  0
   38.8823    3.5572   10.6861 O   0  0  0  0  0  0  0  0  0  0  0  0
   39.4602    5.5041    7.0581 O   0  0  0  0  0  0  0  0  0  0  0  0
   38.3494    5.7231    6.1571 C   0  0  2  0  0  0  0  0  0  0  0  0
   38.7655    6.3582    4.8203 C   0  0  1  0  0  0  0  0  0  0  0  0
   39.2234    7.8279    5.0172 C   0  0  2  0  0  0  0  0  0  0  0  0
   38.1164    8.6294    5.6630 C   0  0  1  0  0  0  0  0  0  0  0  0
   37.7411    7.9832    7.0176 C   0  0  1  0  0  0  0  0  0  0  0  0
   36.5922    8.7037    7.7195 C   0  0  0  0  0  0  0  0  0  0  0  0
   38.5829   10.0201    5.8414 N   0  0  0  0  0  0  0  0  0  0  0  0
   37.3299    6.5846    6.7999 O   0  0  0  0  0  0  0  0  0  0  0  0
   39.7912    5.5445    4.2331 O   0  0  0  0  0  0  0  0  0  0  0  0
   39.5318    8.4120    3.7442 O   0  0  0  0  0  0  0  0  0  0  0  0
   37.0376    9.9500    8.1844 O   0  0  0  0  0  0  0  0  0  0  0  0
   41.4899   -1.7116    9.5896 C   0  0  1  0  0  0  0  0  0  0  0  0
   42.1399   -0.5086   10.3080 C   0  0  1  0  0  0  0  0  0  0  0  0
   43.2966   -0.9655   11.2297 C   0  0  2  0  0  0  0  0  0  0  0  0
   42.7744   -1.9644   12.2693 C   0  0  1  0  0  0  0  0  0  0  0  0
   42.1518   -3.1952   11.5620 C   0  0  0  0  0  0  0  0  0  0  0  0
   41.0002   -2.7224   10.6686 C   0  0  2  0  0  0  0  0  0  0  0  0
   43.8871   -2.4054   13.1398 N   0  0  0  0  0  0  0  0  0  0  0  0
   40.4303   -3.9088   10.0359 N   0  0  0  0  0  0  0  0  0  0  0  0
   42.6696    0.4010    9.3190 O   0  0  0  0  0  0  0  0  0  0  0  0
   43.8494    0.1920   11.8923 O   0  0  0  0  0  0  0  0  0  0  0  0
  1  2  1  0  0  0  0
  1 12  1  6  0  0  0
  1 13  1  0  0  0  0
  2  3  1  0  0  0  0
  2 10  1  6  0  0  0
  4  3  1  6  0  0  0
  4  5  1  0  0  0  0
  4 14  1  0  0  0  0
  5  6  1  0  0  0  0
  5 13  1  1  0  0  0
  6  7  1  0  0  0  0
  6 15  1  6  0  0  0
  7  8  1  0  0  0  0
  7 11  1  1  0  0  0
  8 14  1  0  0  0  0
  8 16  1  6  0  0  0
  9 11  1  0  0  0  0
 17 16  1  1  0  0  0
 17 18  1  0  0  0  0
 17 24  1  0  0  0  0
 18 19  1  0  0  0  0
 18 25  1  1  0  0  0
 19 20  1  0  0  0  0
 19 26  1  6  0  0  0
 20 21  1  0  0  0  0
 20 23  1  1  0  0  0
 21 22  1  6  0  0  0
 21 24  1  0  0  0  0
 22 27  1  0  0  0  0
 28 12  1  1  0  0  0
 28 29  1  0  0  0  0
 28 33  1  0  0  0  0
 29 30  1  0  0  0  0
 29 36  1  6  0  0  0
 30 31  1  0  0  0  0
 30 37  1  1  0  0  0
 31 32  1  0  0  0  0
 31 34  1  1  0  0  0
 32 33  1  0  0  0  0
 33 35  1  6  0  0  0
M  END
>  <CHROM.1>
-168.62306111,55.43981005,-177.95876626,-157.67683223,-70.71565715,-65.89421312
39.87543964,2.92519085,8.54088925,1.09730258,0.85915369,3.07098049

>  <Name>
1yrj_lig

>  <RI>
0

>  <Rbt.Current_Directory>
/home/itssahil/PROJECTS/Mol_Feturizer/New_Systems/rnas/1yrj

>  <Rbt.Executable>
rbdock ($Id: //depot/dev/client3/rdock/2013.1/src/exe/rbdock.cxx#4 $)

>  <Rbt.Library>
libRbt.so (2013.1, Build901 2013/11/27)

>  <Rbt.Parameter_File>
/export/apps/rDock/src/rDock_2013.1_src/data/scripts/dock_solv.prm

>  <Rbt.Receptor>
prm/pocket_docking_4.prm

>  <SCORE>
-30.5646

>  <SCORE.INTER>
-24.9623

>  <SCORE.INTER.CONST>
1

>  <SCORE.INTER.POLAR>
-1.35599

>  <SCORE.INTER.ROT>
6

>  <SCORE.INTER.SOLV>
15.2589

>  <SCORE.INTER.VDW>
-24.8079

>  <SCORE.INTER.norm>
-0.674656

>  <SCORE.INTRA>
-5.60235

>  <SCORE.INTRA.DIHEDRAL>
-12.1265

>  <SCORE.INTRA.DIHEDRAL.0>
15.6389

>  <SCORE.INTRA.POLAR>
0

>  <SCORE.INTRA.POLAR.0>
0

>  <SCORE.INTRA.REPUL>
0

>  <SCORE.INTRA.REPUL.0>
0

>  <SCORE.INTRA.SOLV>
-1.11214

>  <SCORE.INTRA.SOLV.lig_0>
-90.9181

>  <SCORE.INTRA.VDW>
1.01696

>  <SCORE.INTRA.VDW.0>
-3.14158

>  <SCORE.INTRA.norm>
-0.151415

>  <SCORE.RESTR>
0

>  <SCORE.RESTR.CAVITY>
0

>  <SCORE.RESTR.norm>
0

>  <SCORE.SYSTEM>
0

>  <SCORE.SYSTEM.CONST>
0

>  <SCORE.SYSTEM.DIHEDRAL>
0

>  <SCORE.SYSTEM.SOLV>
0

>  <SCORE.SYSTEM.norm>
0

>  <SCORE.heavy>
37

>  <SCORE.norm>
-0.826071

>  <RMSD>
9.950

$$$$
1yrj_lig
 OpenBabel11021811423D
libRbt.so/2013.1/901 2013/11/27
 37 40  0  0  0  0  0  0  0  0999 V2000
   37.7769    6.4314    7.7495 C   0  0  1  0  0  0  0  0  0  0  0  0
   38.1782    5.2708    6.8180 C   0  0  1  0  0  0  0  0  0  0  0  0
   39.3300    5.6637    5.8792 C   0  0  0  0  0  0  0  0  0  0  0  0
   38.9546    6.9401    5.0821 C   0  0  1  0  0  0  0  0  0  0  0  0
   38.6108    8.0861    6.0524 C   0  0  1  0  0  0  0  0  0  0  0  0
   38.2437    9.3815    5.2126 C   0  0  1  0  0  0  0  0  0  0  0  0
   39.4340    9.7765    4.3235 C   0  0  1  0  0  0  0  0  0  0  0  0
   39.7695    8.5767    3.4046 C   0  0  2  0  0  0  0  0  0  0  0  0
   40.2509   11.7061    2.8689 C   0  0  0  0  0  0  0  0  0  0  0  0
   38.5283    4.0563    7.5726 N   0  0  0  0  0  0  0  0  0  0  0  0
   39.1147   11.0261    3.5659 N   0  0  0  0  0  0  0  0  0  0  0  0
   38.7209    6.6740    8.8093 O   0  0  0  0  0  0  0  0  0  0  0  0
   37.5159    7.6342    6.9347 O   0  0  0  0  0  0  0  0  0  0  0  0
   40.0498    7.3830    4.1893 O   0  0  0  0  0  0  0  0  0  0  0  0
   37.1573    9.0940    4.3573 O   0  0  0  0  0  0  0  0  0  0  0  0
   40.9091    8.8364    2.5840 O   0  0  0  0  0  0  0  0  0  0  0  0
   41.2263    7.7473    1.6858 C   0  0  2  0  0  0  0  0  0  0  0  0
   42.5938    7.9016    1.0004 C   0  0  1  0  0  0  0  0  0  0  0  0
   42.5805    9.0723   -0.0182 C   0  0  2  0  0  0  0  0  0  0  0  0
   41.4950    8.8477   -1.0459 C   0  0  1  0  0  0  0  0  0  0  0  0
   40.1297    8.7262   -0.3285 C   0  0  1  0  0  0  0  0  0  0  0  0
   38.9774    8.4486   -1.2913 C   0  0  0  0  0  0  0  0  0  0  0  0
   41.5042    9.9786   -1.9969 N   0  0  0  0  0  0  0  0  0  0  0  0
   40.1803    7.6202    0.6444 O   0  0  0  0  0  0  0  0  0  0  0  0
   43.5914    8.0780    2.0167 O   0  0  0  0  0  0  0  0  0  0  0  0
   43.8449    9.1402   -0.6919 O   0  0  0  0  0  0  0  0  0  0  0  0
   37.7714    8.4067   -0.5760 O   0  0  0  0  0  0  0  0  0  0  0  0
   38.6818    7.8935    9.7181 C   0  0  1  0  0  0  0  0  0  0  0  0
   39.0994    9.1110    8.8641 C   0  0  1  0  0  0  0  0  0  0  0  0
   39.0268   10.4214    9.6849 C   0  0  2  0  0  0  0  0  0  0  0  0
   37.6031   10.6292   10.2150 C   0  0  1  0  0  0  0  0  0  0  0  0
   37.1841    9.4309   11.1046 C   0  0  0  0  0  0  0  0  0  0  0  0
   37.2474    8.1482   10.2688 C   0  0  2  0  0  0  0  0  0  0  0  0
   37.5434   11.8775   11.0077 N   0  0  0  0  0  0  0  0  0  0  0  0
   36.8298    7.0486   11.1344 N   0  0  0  0  0  0  0  0  0  0  0  0
   40.4580    8.9251    8.4107 O   0  0  0  0  0  0  0  0  0  0  0  0
   39.4021   11.5257    8.8338 O   0  0  0  0  0  0  0  0  0  0  0  0
  1  2  1  0  0  0  0
  1 12  1  1  0  0  0
  1 13  1  0  0  0  0
  2  3  1  0  0  0  0
  2 10  1  1  0  0  0
  4  3  1  1  0  0  0
  4  5  1  0  0  0  0
  4 14  1  0  0  0  0
  5  6  1  0  0  0  0
  5 13  1  6  0  0  0
  6  7  1  0  0  0  0
  6 15  1  6  0  0  0
  7  8  1  0  0  0  0
  7 11  1  6  0  0  0
  8 14  1  0  0  0  0
  8 16  1  1  0  0  0
  9 11  1  0  0  0  0
 17 16  1  6  0  0  0
 17 18  1  0  0  0  0
 17 24  1  0  0  0  0
 18 19  1  0  0  0  0
 18 25  1  1  0  0  0
 19 20  1  0  0  0  0
 19 26  1  6  0  0  0
 20 21  1  0  0  0  0
 20 23  1  6  0  0  0
 21 22  1  6  0  0  0
 21 24  1  0  0  0  0
 22 27  1  0  0  0  0
 28 12  1  6  0  0  0
 28 29  1  0  0  0  0
 28 33  1  0  0  0  0
 29 30  1  0  0  0  0
 29 36  1  1  0  0  0
 30 31  1  0  0  0  0
 30 37  1  6  0  0  0
 31 32  1  0  0  0  0
 31 34  1  1  0  0  0
 32 33  1  0  0  0  0
 33 35  1  1  0  0  0
M  END
>  <CHROM.1>
169.50625704,167.90006953,-178.36616613,-168.89214593,-177.60131221,-70.76795056
39.46934114,8.53552897,4.92733299,2.70777904,1.21696272,0.47832550

>  <Name>
1yrj_lig

>  <RI>
0

>  <Rbt.Current_Directory>
/home/itssahil/PROJECTS/Mol_Feturizer/New_Systems/rnas/1yrj

>  <Rbt.Executable>
rbdock ($Id: //depot/dev/client3/rdock/2013.1/src/exe/rbdock.cxx#4 $)

>  <Rbt.Library>
libRbt.so (2013.1, Build901 2013/11/27)

>  <Rbt.Parameter_File>
/export/apps/rDock/src/rDock_2013.1_src/data/scripts/dock_solv.prm

>  <Rbt.Receptor>
prm/pocket_docking_8.prm

>  <SCORE>
-16.5013

>  <SCORE.INTER>
-9.26107

>  <SCORE.INTER.CONST>
1

>  <SCORE.INTER.POLAR>
-1.14592

>  <SCORE.INTER.ROT>
6

>  <SCORE.INTER.SOLV>
20.5237

>  <SCORE.INTER.VDW>
-16.7955

>  <SCORE.INTER.norm>
-0.250299

>  <SCORE.INTRA>
-7.59947

>  <SCORE.INTRA.DIHEDRAL>
-13.7076

>  <SCORE.INTRA.DIHEDRAL.0>
15.6389

>  <SCORE.INTRA.POLAR>
0

>  <SCORE.INTRA.POLAR.0>
0

>  <SCORE.INTRA.REPUL>
0

>  <SCORE.INTRA.REPUL.0>
0

>  <SCORE.INTRA.SOLV>
-1.91191

>  <SCORE.INTRA.SOLV.lig_0>
-90.9181

>  <SCORE.INTRA.VDW>
0.210286

>  <SCORE.INTRA.VDW.0>
-3.14158

>  <SCORE.INTRA.norm>
-0.205391

>  <SCORE.RESTR>
0.35923

>  <SCORE.RESTR.CAVITY>
0.35923

>  <SCORE.RESTR.norm>
0.00970892

>  <SCORE.SYSTEM>
0

>  <SCORE.SYSTEM.CONST>
0

>  <SCORE.SYSTEM.DIHEDRAL>
0

>  <SCORE.SYSTEM.SOLV>
0

>  <SCORE.SYSTEM.norm>
0

>  <SCORE.heavy>
37

>  <SCORE.norm>
-0.445981

>  <RMSD>
9.953

$$$$
1yrj_lig
 OpenBabel11021811423D
libRbt.so/2013.1/901 2013/11/27
 37 40  0  0  0  0  0  0  0  0999 V2000
   38.7483    2.0601    9.8769 C   0  0  1  0  0  0  0  0  0  0  0  0
   38.3797    2.5505    8.4630 C   0  0  1  0  0  0  0  0  0  0  0  0
   39.3918    3.5786    7.9329 C   0  0  0  0  0  0  0  0  0  0  0  0
   39.5289    4.7550    8.9344 C   0  0  1  0  0  0  0  0  0  0  0  0
   39.9470    4.2237   10.3185 C   0  0  1  0  0  0  0  0  0  0  0  0
   40.0927    5.4468   11.3190 C   0  0  1  0  0  0  0  0  0  0  0  0
   41.1479    6.4293   10.7854 C   0  0  1  0  0  0  0  0  0  0  0  0
   40.7062    6.8939    9.3764 C   0  0  2  0  0  0  0  0  0  0  0  0
   42.6970    8.1552   11.8473 C   0  0  0  0  0  0  0  0  0  0  0  0
   38.2424    1.4347    7.5126 N   0  0  0  0  0  0  0  0  0  0  0  0
   41.3277    7.5600   11.7480 N   0  0  0  0  0  0  0  0  0  0  0  0
   39.8668    1.1537    9.9004 O   0  0  0  0  0  0  0  0  0  0  0  0
   38.9461    3.2295   10.7556 O   0  0  0  0  0  0  0  0  0  0  0  0
   40.5239    5.7561    8.4868 O   0  0  0  0  0  0  0  0  0  0  0  0
   38.8666    6.1441   11.3894 O   0  0  0  0  0  0  0  0  0  0  0  0
   41.6659    7.7658    8.7778 O   0  0  0  0  0  0  0  0  0  0  0  0
   41.3345    8.1326    7.4179 C   0  0  2  0  0  0  0  0  0  0  0  0
   42.3250    9.1318    6.7980 C   0  0  1  0  0  0  0  0  0  0  0  0
   42.2084   10.5257    7.4701 C   0  0  2  0  0  0  0  0  0  0  0  0
   40.7918   11.0388    7.3483 C   0  0  1  0  0  0  0  0  0  0  0  0
   39.8238   10.0272    8.0063 C   0  0  1  0  0  0  0  0  0  0  0  0
   38.3597   10.4443    7.8862 C   0  0  0  0  0  0  0  0  0  0  0  0
   40.7116   12.3624    8.0001 N   0  0  0  0  0  0  0  0  0  0  0  0
   39.9717    8.7108    7.3603 O   0  0  0  0  0  0  0  0  0  0  0  0
   43.6471    8.5851    6.9082 O   0  0  0  0  0  0  0  0  0  0  0  0
   43.0903   11.4506    6.8191 O   0  0  0  0  0  0  0  0  0  0  0  0
   37.5556    9.5313    8.5845 O   0  0  0  0  0  0  0  0  0  0  0  0
   39.8431   -0.2397    9.2901 C   0  0  1  0  0  0  0  0  0  0  0  0
   41.2659   -0.8237    9.4337 C   0  0  1  0  0  0  0  0  0  0  0  0
   41.3315   -2.2750    8.8996 C   0  0  2  0  0  0  0  0  0  0  0  0
   40.3342   -3.1581    9.6589 C   0  0  1  0  0  0  0  0  0  0  0  0
   38.8960   -2.6043    9.4928 C   0  0  0  0  0  0  0  0  0  0  0  0
   38.8500   -1.1745   10.0420 C   0  0  2  0  0  0  0  0  0  0  0  0
   40.3943   -4.5413    9.1358 N   0  0  0  0  0  0  0  0  0  0  0  0
   37.4792   -0.6961    9.8844 N   0  0  0  0  0  0  0  0  0  0  0  0
   42.1879   -0.0107    8.6755 O   0  0  0  0  0  0  0  0  0  0  0  0
   42.6728   -2.7779    9.0807 O   0  0  0  0  0  0  0  0  0  0  0  0
  1  2  1  0  0  0  0
  1 12  1  6  0  0  0
  1 13  1  0  0  0  0
  2  3  1  0  0  0  0
  2 10  1  6  0  0  0
  4  3  1  6  0  0  0
  4  5  1  0  0  0  0
  4 14  1  0  0  0  0
  5  6  1  0  0  0  0
  5 13  1  1  0  0  0
  6  7  1  0  0  0  0
  6 15  1  6  0  0  0
  7  8  1  0  0  0  0
  7 11  1  1  0  0  0
  8 14  1  0  0  0  0
  8 16  1  6  0  0  0
  9 11  1  0  0  0  0
 17 16  1  1  0  0  0
 17 18  1  0  0  0  0
 17 24  1  0  0  0  0
 18 19  1  0  0  0  0
 18 25  1  1  0  0  0
 19 20  1  0  0  0  0
 19 26  1  6  0  0  0
 20 21  1  0  0  0  0
 20 23  1  1  0  0  0
 21 22  1  6  0  0  0
 21 24  1  0  0  0  0
 22 27  1  0  0  0  0
 28 12  1  1  0  0  0
 28 29  1  0  0  0  0
 28 33  1  0  0  0  0
 29 30  1  0  0  0  0
 29 36  1  6  0  0  0
 30 31  1  0  0  0  0
 30 37  1  1  0  0  0
 31 32  1  0  0  0  0
 31 34  1  6  0  0  0
 32 33  1  0  0  0  0
 33 35  1  6  0  0  0
M  END
>  <CHROM.1>
-66.42366812,147.21464316,175.32411693,176.83557732,-175.87154566,175.54381011
40.37807311,4.61158901,9.01257974,1.65941070,-0.36526712,3.06535030

>  <Name>
1yrj_lig

>  <RI>
0

>  <Rbt.Current_Directory>
/home/itssahil/PROJECTS/Mol_Feturizer/New_Systems/rnas/1yrj

>  <Rbt.Executable>
rbdock ($Id: //depot/dev/client3/rdock/2013.1/src/exe/rbdock.cxx#4 $)

>  <Rbt.Library>
libRbt.so (2013.1, Build901 2013/11/27)

>  <Rbt.Parameter_File>
/export/apps/rDock/src/rDock_2013.1_src/data/scripts/dock_solv.prm

>  <Rbt.Receptor>
prm/pocket_docking_8.prm

>  <SCORE>
-25.8004

>  <SCORE.INTER>
-19.8003

>  <SCORE.INTER.CONST>
1

>  <SCORE.INTER.POLAR>
-0.949194

>  <SCORE.INTER.ROT>
6

>  <SCORE.INTER.SOLV>
18.3987

>  <SCORE.INTER.VDW>
-23.7691

>  <SCORE.INTER.norm>
-0.535143

>  <SCORE.INTRA>
-6.00007

>  <SCORE.INTRA.DIHEDRAL>
-14.3229

>  <SCORE.INTRA.DIHEDRAL.0>
15.6389

>  <SCORE.INTRA.POLAR>
0

>  <SCORE.INTRA.POLAR.0>
0

>  <SCORE.INTRA.REPUL>
0

>  <SCORE.INTRA.REPUL.0>
0

>  <SCORE.INTRA.SOLV>
1.24769

>  <SCORE.INTRA.SOLV.lig_0>
-90.9181

>  <SCORE.INTRA.VDW>
0.537524

>  <SCORE.INTRA.VDW.0>
-3.14158

>  <SCORE.INTRA.norm>
-0.162164

>  <SCORE.RESTR>
0

>  <SCORE.RESTR.CAVITY>
0

>  <SCORE.RESTR.norm>
0

>  <SCORE.SYSTEM>
0

>  <SCORE.SYSTEM.CONST>
0

>  <SCORE.SYSTEM.DIHEDRAL>
0

>  <SCORE.SYSTEM.SOLV>
0

>  <SCORE.SYSTEM.norm>
0

>  <SCORE.heavy>
37

>  <SCORE.norm>
-0.697307

>  <RMSD>
9.956

$$$$
1yrj_lig
 OpenBabel11021811423D
libRbt.so/2013.1/901 2013/11/27
 37 40  0  0  0  0  0  0  0  0999 V2000
   39.2862   -0.0550    9.3898 C   0  0  1  0  0  0  0  0  0  0  0  0
   38.0855    0.1851    8.4537 C   0  0  1  0  0  0  0  0  0  0  0  0
   38.2895    1.4256    7.5694 C   0  0  0  0  0  0  0  0  0  0  0  0
   38.5896    2.6647    8.4527 C   0  0  1  0  0  0  0  0  0  0  0  0
   39.8253    2.3984    9.3331 C   0  0  1  0  0  0  0  0  0  0  0  0
   40.1176    3.6844   10.2157 C   0  0  1  0  0  0  0  0  0  0  0  0
   40.3672    4.8944    9.3007 C   0  0  1  0  0  0  0  0  0  0  0  0
   39.1193    5.0882    8.4054 C   0  0  2  0  0  0  0  0  0  0  0  0
   41.9933    6.0843   10.8648 C   0  0  0  0  0  0  0  0  0  0  0  0
   37.7949   -0.9925    7.6194 N   0  0  0  0  0  0  0  0  0  0  0  0
   40.6934    6.1000   10.1238 N   0  0  0  0  0  0  0  0  0  0  0  0
   40.4483   -0.5745    8.7168 O   0  0  0  0  0  0  0  0  0  0  0  0
   39.5696    1.1860   10.1369 O   0  0  0  0  0  0  0  0  0  0  0  0
   38.8328    3.8811    7.6440 O   0  0  0  0  0  0  0  0  0  0  0  0
   38.9838    3.9803   11.0040 O   0  0  0  0  0  0  0  0  0  0  0  0
   39.2914    6.1590    7.4762 O   0  0  0  0  0  0  0  0  0  0  0  0
   38.0450    6.6367    6.9177 C   0  0  2  0  0  0  0  0  0  0  0  0
   38.2371    7.6113    5.7444 C   0  0  1  0  0  0  0  0  0  0  0  0
   38.8293    8.9613    6.2293 C   0  0  2  0  0  0  0  0  0  0  0  0
   37.9304    9.5692    7.2815 C   0  0  1  0  0  0  0  0  0  0  0  0
   37.7808    8.5783    8.4601 C   0  0  1  0  0  0  0  0  0  0  0  0
   36.8459    9.0934    9.5521 C   0  0  0  0  0  0  0  0  0  0  0  0
   38.5218   10.8483    7.7258 N   0  0  0  0  0  0  0  0  0  0  0  0
   37.2353    7.3016    7.9651 O   0  0  0  0  0  0  0  0  0  0  0  0
   39.0672    6.9767    4.7609 O   0  0  0  0  0  0  0  0  0  0  0  0
   38.9249    9.8709    5.1246 O   0  0  0  0  0  0  0  0  0  0  0  0
   36.4810    8.0316   10.3931 O   0  0  0  0  0  0  0  0  0  0  0  0
   41.6219   -1.2274    9.4315 C   0  0  1  0  0  0  0  0  0  0  0  0
   42.2621   -0.1495   10.3338 C   0  0  1  0  0  0  0  0  0  0  0  0
   43.4325   -0.7350   11.1606 C   0  0  2  0  0  0  0  0  0  0  0  0
   42.9325   -1.8985   12.0250 C   0  0  1  0  0  0  0  0  0  0  0  0
   42.3203   -3.0052   11.1288 C   0  0  0  0  0  0  0  0  0  0  0  0
   41.1549   -2.4087   10.3326 C   0  0  2  0  0  0  0  0  0  0  0  0
   44.0584   -2.4605   12.8041 N   0  0  0  0  0  0  0  0  0  0  0  0
   40.5953   -3.4832    9.5170 N   0  0  0  0  0  0  0  0  0  0  0  0
   42.7712    0.9178    9.5046 O   0  0  0  0  0  0  0  0  0  0  0  0
   43.9756    0.3059   12.0010 O   0  0  0  0  0  0  0  0  0  0  0  0
  1  2  1  0  0  0  0
  1 12  1  6  0  0  0
  1 13  1  0  0  0  0
  2  3  1  0  0  0  0
  2 10  1  6  0  0  0
  4  3  1  6  0  0  0
  4  5  1  0  0  0  0
  4 14  1  0  0  0  0
  5  6  1  0  0  0  0
  5 13  1  1  0  0  0
  6  7  1  0  0  0  0
  6 15  1  1  0  0  0
  7  8  1  0  0  0  0
  7 11  1  1  0  0  0
  8 14  1  0  0  0  0
  8 16  1  6  0  0  0
  9 11  1  0  0  0  0
 17 16  1  1  0  0  0
 17 18  1  0  0  0  0
 17 24  1  0  0  0  0
 18 19  1  0  0  0  0
 18 25  1  6  0  0  0
 19 20  1  0  0  0  0
 19 26  1  6  0  0  0
 20 21  1  0  0  0  0
 20 23  1  1  0  0  0
 21 22  1  1  0  0  0
 21 24  1  0  0  0  0
 22 27  1  0  0  0  0
 28 12  1  1  0  0  0
 28 29  1  0  0  0  0
 28 33  1  0  0  0  0
 29 30  1  0  0  0  0
 29 36  1  6  0  0  0
 30 31  1  0  0  0  0
 30 37  1  1  0  0  0
 31 32  1  0  0  0  0
 31 34  1  6  0  0  0
 32 33  1  0  0  0  0
 33 35  1  6  0  0  0
M  END
>  <CHROM.1>
-163.61876235,67.74222608,-162.21274654,-169.90758831,164.51589465,-63.43241331
39.83957019,3.44361592,8.99302444,1.07721653,0.79967362,-3.08213668

>  <Name>
1yrj_lig

>  <RI>
0

>  <Rbt.Current_Directory>
/home/itssahil/PROJECTS/Mol_Feturizer/New_Systems/rnas/1yrj

>  <Rbt.Executable>
rbdock ($Id: //depot/dev/client3/rdock/2013.1/src/exe/rbdock.cxx#4 $)

>  <Rbt.Library>
libRbt.so (2013.1, Build901 2013/11/27)

>  <Rbt.Parameter_File>
/export/apps/rDock/src/rDock_2013.1_src/data/scripts/dock_solv.prm

>  <Rbt.Receptor>
prm/pocket_docking_6.prm

>  <SCORE>
-29.846

>  <SCORE.INTER>
-23.5764

>  <SCORE.INTER.CONST>
1

>  <SCORE.INTER.POLAR>
-1.20652

>  <SCORE.INTER.ROT>
6

>  <SCORE.INTER.SOLV>
13.9421

>  <SCORE.INTER.VDW>
-23.9433

>  <SCORE.INTER.norm>
-0.637201

>  <SCORE.INTRA>
-6.2696

>  <SCORE.INTRA.DIHEDRAL>
-11.447

>  <SCORE.INTRA.DIHEDRAL.0>
15.6389

>  <SCORE.INTRA.POLAR>
0

>  <SCORE.INTRA.POLAR.0>
0

>  <SCORE.INTRA.REPUL>
0

>  <SCORE.INTRA.REPUL.0>
0

>  <SCORE.INTRA.SOLV>
-1.70057

>  <SCORE.INTRA.SOLV.lig_0>
-90.9181

>  <SCORE.INTRA.VDW>
0.304201

>  <SCORE.INTRA.VDW.0>
-3.14158

>  <SCORE.INTRA.norm>
-0.169449

>  <SCORE.RESTR>
0

>  <SCORE.RESTR.CAVITY>
0

>  <SCORE.RESTR.norm>
0

>  <SCORE.SYSTEM>
0

>  <SCORE.SYSTEM.CONST>
0

>  <SCORE.SYSTEM.DIHEDRAL>
0

>  <SCORE.SYSTEM.SOLV>
0

>  <SCORE.SYSTEM.norm>
0

>  <SCORE.heavy>
37

>  <SCORE.norm>
-0.80665

>  <RMSD>
9.960

$$$$
1yrj_lig
 OpenBabel11021811423D
libRbt.so/2013.1/901 2013/11/27
 37 40  0  0  0  0  0  0  0  0999 V2000
   39.2454   -0.1195    9.3433 C   0  0  1  0  0  0  0  0  0  0  0  0
   38.0337    0.1423    8.4275 C   0  0  1  0  0  0  0  0  0  0  0  0
   38.2396    1.3867    7.5492 C   0  0  0  0  0  0  0  0  0  0  0  0
   38.5686    2.6155    8.4366 C   0  0  1  0  0  0  0  0  0  0  0  0
   39.8142    2.3274    9.2960 C   0  0  1  0  0  0  0  0  0  0  0  0
   40.1360    3.6031   10.1832 C   0  0  1  0  0  0  0  0  0  0  0  0
   40.3867    4.8166    9.2733 C   0  0  1  0  0  0  0  0  0  0  0  0
   39.1278    5.0325    8.3986 C   0  0  2  0  0  0  0  0  0  0  0  0
   41.9979    5.9308   10.9071 C   0  0  0  0  0  0  0  0  0  0  0  0
   37.7157   -1.0253    7.5893 N   0  0  0  0  0  0  0  0  0  0  0  0
   40.7404    6.0120   10.0999 N   0  0  0  0  0  0  0  0  0  0  0  0
   40.3905   -0.6484    8.6488 O   0  0  0  0  0  0  0  0  0  0  0  0
   39.5558    1.1124   10.0948 O   0  0  0  0  0  0  0  0  0  0  0  0
   38.8146    3.8347    7.6331 O   0  0  0  0  0  0  0  0  0  0  0  0
   39.0182    3.9071   10.9910 O   0  0  0  0  0  0  0  0  0  0  0  0
   39.2990    6.1080    7.4747 O   0  0  0  0  0  0  0  0  0  0  0  0
   38.0515    6.5935    6.9256 C   0  0  2  0  0  0  0  0  0  0  0  0
   38.2369    7.7174    5.8931 C   0  0  1  0  0  0  0  0  0  0  0  0
   38.7388    9.0211    6.5687 C   0  0  2  0  0  0  0  0  0  0  0  0
   37.7698    9.4473    7.6478 C   0  0  1  0  0  0  0  0  0  0  0  0
   37.6276    8.3087    8.6854 C   0  0  1  0  0  0  0  0  0  0  0  0
   36.6261    8.6362    9.7907 C   0  0  0  0  0  0  0  0  0  0  0  0
   38.2762   10.6860    8.2744 N   0  0  0  0  0  0  0  0  0  0  0  0
   37.1688    7.0811    8.0110 O   0  0  0  0  0  0  0  0  0  0  0  0
   39.1358    7.2527    4.8757 O   0  0  0  0  0  0  0  0  0  0  0  0
   38.8286   10.0673    5.5918 O   0  0  0  0  0  0  0  0  0  0  0  0
   37.0514    9.7807   10.4815 O   0  0  0  0  0  0  0  0  0  0  0  0
   41.5937   -1.2674    9.3442 C   0  0  1  0  0  0  0  0  0  0  0  0
   42.2025   -0.1788   10.2554 C   0  0  1  0  0  0  0  0  0  0  0  0
   43.4011   -0.7320   11.0639 C   0  0  2  0  0  0  0  0  0  0  0  0
   42.9518   -1.9243   11.9169 C   0  0  1  0  0  0  0  0  0  0  0  0
   42.3719   -3.0407   11.0112 C   0  0  0  0  0  0  0  0  0  0  0  0
   41.1783   -2.4767   10.2334 C   0  0  2  0  0  0  0  0  0  0  0  0
   44.1045   -2.4550   12.6785 N   0  0  0  0  0  0  0  0  0  0  0  0
   40.6507   -3.5600    9.4082 N   0  0  0  0  0  0  0  0  0  0  0  0
   42.6648    0.9172    9.4363 O   0  0  0  0  0  0  0  0  0  0  0  0
   43.9137    0.3168   11.9136 O   0  0  0  0  0  0  0  0  0  0  0  0
  1  2  1  0  0  0  0
  1 12  1  6  0  0  0
  1 13  1  0  0  0  0
  2  3  1  0  0  0  0
  2 10  1  6  0  0  0
  4  3  1  6  0  0  0
  4  5  1  0  0  0  0
  4 14  1  0  0  0  0
  5  6  1  0  0  0  0
  5 13  1  1  0  0  0
  6  7  1  0  0  0  0
  6 15  1  1  0  0  0
  7  8  1  0  0  0  0
  7 11  1  1  0  0  0
  8 14  1  0  0  0  0
  8 16  1  6  0  0  0
  9 11  1  0  0  0  0
 17 16  1  1  0  0  0
 17 18  1  0  0  0  0
 17 24  1  0  0  0  0
 18 19  1  0  0  0  0
 18 25  1  6  0  0  0
 19 20  1  0  0  0  0
 19 26  1  6  0  0  0
 20 21  1  0  0  0  0
 20 23  1  1  0  0  0
 21 22  1  1  0  0  0
 21 24  1  0  0  0  0
 22 27  1  0  0  0  0
 28 12  1  1  0  0  0
 28 29  1  0  0  0  0
 28 33  1  0  0  0  0
 29 30  1  0  0  0  0
 29 36  1  6  0  0  0
 30 31  1  0  0  0  0
 30 37  1  1  0  0  0
 31 32  1  0  0  0  0
 31 34  1  6  0  0  0
 32 33  1  0  0  0  0
 33 35  1  6  0  0  0
M  END
>  <CHROM.1>
-166.34985933,62.98993138,-162.97571345,-177.93934571,-60.57442759,-60.18755666
39.82338211,3.44556055,9.02740678,1.07409323,0.80390136,-3.03757454

>  <Name>
1yrj_lig

>  <RI>
0

>  <Rbt.Current_Directory>
/home/itssahil/PROJECTS/Mol_Feturizer/New_Systems/rnas/1yrj

>  <Rbt.Executable>
rbdock ($Id: //depot/dev/client3/rdock/2013.1/src/exe/rbdock.cxx#4 $)

>  <Rbt.Library>
libRbt.so (2013.1, Build901 2013/11/27)

>  <Rbt.Parameter_File>
/export/apps/rDock/src/rDock_2013.1_src/data/scripts/dock_solv.prm

>  <Rbt.Receptor>
prm/pocket_docking_4.prm

>  <SCORE>
-28.0051

>  <SCORE.INTER>
-21.6446

>  <SCORE.INTER.CONST>
1

>  <SCORE.INTER.POLAR>
-0.813198

>  <SCORE.INTER.ROT>
6

>  <SCORE.INTER.SOLV>
13.0647

>  <SCORE.INTER.VDW>
-23.674

>  <SCORE.INTER.norm>
-0.58499

>  <SCORE.INTRA>
-6.36049

>  <SCORE.INTRA.DIHEDRAL>
-13.2981

>  <SCORE.INTRA.DIHEDRAL.0>
15.6389

>  <SCORE.INTRA.POLAR>
0

>  <SCORE.INTRA.POLAR.0>
0

>  <SCORE.INTRA.REPUL>
0

>  <SCORE.INTRA.REPUL.0>
0

>  <SCORE.INTRA.SOLV>
-0.739974

>  <SCORE.INTRA.SOLV.lig_0>
-90.9181

>  <SCORE.INTRA.VDW>
0.658539

>  <SCORE.INTRA.VDW.0>
-3.14158

>  <SCORE.INTRA.norm>
-0.171905

>  <SCORE.RESTR>
0

>  <SCORE.RESTR.CAVITY>
0

>  <SCORE.RESTR.norm>
0

>  <SCORE.SYSTEM>
0

>  <SCORE.SYSTEM.CONST>
0

>  <SCORE.SYSTEM.DIHEDRAL>
0

>  <SCORE.SYSTEM.SOLV>
0

>  <SCORE.SYSTEM.norm>
0

>  <SCORE.heavy>
37

>  <SCORE.norm>
-0.756896

>  <RMSD>
9.977

$$$$
1yrj_lig
 OpenBabel11021811423D
libRbt.so/2013.1/901 2013/11/27
 37 40  0  0  0  0  0  0  0  0999 V2000
   39.2928   -0.0931    9.2382 C   0  0  1  0  0  0  0  0  0  0  0  0
   38.0763    0.1153    8.3151 C   0  0  1  0  0  0  0  0  0  0  0  0
   38.2419    1.3559    7.4230 C   0  0  0  0  0  0  0  0  0  0  0  0
   38.5240    2.6057    8.2970 C   0  0  1  0  0  0  0  0  0  0  0  0
   39.7755    2.3716    9.1642 C   0  0  1  0  0  0  0  0  0  0  0  0
   40.0488    3.6681   10.0375 C   0  0  1  0  0  0  0  0  0  0  0  0
   40.2603    4.8790    9.1143 C   0  0  1  0  0  0  0  0  0  0  0  0
   38.9981    5.0403    8.2326 C   0  0  2  0  0  0  0  0  0  0  0  0
   41.7678    6.0291   10.8205 C   0  0  0  0  0  0  0  0  0  0  0  0
   37.8028   -1.0724    7.4896 N   0  0  0  0  0  0  0  0  0  0  0  0
   40.5686    6.0956    9.9280 N   0  0  0  0  0  0  0  0  0  0  0  0
   40.4585   -0.5894    8.5541 O   0  0  0  0  0  0  0  0  0  0  0  0
   39.5567    1.1576    9.9764 O   0  0  0  0  0  0  0  0  0  0  0  0
   38.7302    3.8234    7.4801 O   0  0  0  0  0  0  0  0  0  0  0  0
   38.9177    3.9420   10.8376 O   0  0  0  0  0  0  0  0  0  0  0  0
   39.1351    6.1103    7.2967 O   0  0  0  0  0  0  0  0  0  0  0  0
   37.8667    6.6312    6.8348 C   0  0  2  0  0  0  0  0  0  0  0  0
   38.0078    7.6678    5.7083 C   0  0  1  0  0  0  0  0  0  0  0  0
   38.6434    8.9825    6.2337 C   0  0  2  0  0  0  0  0  0  0  0  0
   37.8111    9.5398    7.3657 C   0  0  1  0  0  0  0  0  0  0  0  0
   37.7125    8.4862    8.4942 C   0  0  1  0  0  0  0  0  0  0  0  0
   36.8452    8.9490    9.6626 C   0  0  0  0  0  0  0  0  0  0  0  0
   38.4427   10.7859    7.8468 N   0  0  0  0  0  0  0  0  0  0  0  0
   37.1239    7.2449    7.9602 O   0  0  0  0  0  0  0  0  0  0  0  0
   38.7748    7.0806    4.6471 O   0  0  0  0  0  0  0  0  0  0  0  0
   38.6910    9.9513    5.1773 O   0  0  0  0  0  0  0  0  0  0  0  0
   36.7069    7.9012   10.5850 O   0  0  0  0  0  0  0  0  0  0  0  0
   41.6402   -1.2427    9.2551 C   0  0  1  0  0  0  0  0  0  0  0  0
   42.1786   -0.2244   10.2843 C   0  0  1  0  0  0  0  0  0  0  0  0
   43.3486   -0.8218   11.1030 C   0  0  2  0  0  0  0  0  0  0  0  0
   42.8856   -2.0905   11.8289 C   0  0  1  0  0  0  0  0  0  0  0  0
   42.3766   -3.1365   10.8044 C   0  0  0  0  0  0  0  0  0  0  0  0
   41.2097   -2.5309   10.0173 C   0  0  2  0  0  0  0  0  0  0  0  0
   44.0117   -2.6624   12.6005 N   0  0  0  0  0  0  0  0  0  0  0  0
   40.7481   -3.5497    9.0783 N   0  0  0  0  0  0  0  0  0  0  0  0
   42.6550    0.9459    9.5846 O   0  0  0  0  0  0  0  0  0  0  0  0
   43.7948    0.1603   12.0627 O   0  0  0  0  0  0  0  0  0  0  0  0
  1  2  1  0  0  0  0
  1 12  1  6  0  0  0
  1 13  1  0  0  0  0
  2  3  1  0  0  0  0
  2 10  1  6  0  0  0
  4  3  1  6  0  0  0
  4  5  1  0  0  0  0
  4 14  1  0  0  0  0
  5  6  1  0  0  0  0
  5 13  1  1  0  0  0
  6  7  1  0  0  0  0
  6 15  1  1  0  0  0
  7  8  1  0  0  0  0
  7 11  1  1  0  0  0
  8 14  1  0  0  0  0
  8 16  1  6  0  0  0
  9 11  1  0  0  0  0
 17 16  1  1  0  0  0
 17 18  1  0  0  0  0
 17 24  1  0  0  0  0
 18 19  1  0  0  0  0
 18 25  1  6  0  0  0
 19 20  1  0  0  0  0
 19 26  1  6  0  0  0
 20 21  1  0  0  0  0
 20 23  1  1  0  0  0
 21 22  1  1  0  0  0
 21 24  1  0  0  0  0
 22 27  1  0  0  0  0
 28 12  1  1  0  0  0
 28 29  1  0  0  0  0
 28 33  1  0  0  0  0
 29 30  1  0  0  0  0
 29 36  1  6  0  0  0
 30 31  1  0  0  0  0
 30 37  1  1  0  0  0
 31 32  1  0  0  0  0
 31 34  1  6  0  0  0
 32 33  1  0  0  0  0
 33 35  1  6  0  0  0
M  END
>  <CHROM.1>
-162.07891261,58.45037916,-157.37086841,-173.27405912,174.77018501,-57.51130906
39.76610853,3.39210857,8.89400855,1.03083188,0.85473567,-3.00774586

>  <Name>
1yrj_lig

>  <RI>
0

>  <Rbt.Current_Directory>
/home/itssahil/PROJECTS/Mol_Feturizer/New_Systems/rnas/1yrj

>  <Rbt.Executable>
rbdock ($Id: //depot/dev/client3/rdock/2013.1/src/exe/rbdock.cxx#4 $)

>  <Rbt.Library>
libRbt.so (2013.1, Build901 2013/11/27)

>  <Rbt.Parameter_File>
/export/apps/rDock/src/rDock_2013.1_src/data/scripts/dock_solv.prm

>  <Rbt.Receptor>
prm/pocket_docking_3.prm

>  <SCORE>
-28.199

>  <SCORE.INTER>
-22.46

>  <SCORE.INTER.CONST>
1

>  <SCORE.INTER.POLAR>
-1.0899

>  <SCORE.INTER.ROT>
6

>  <SCORE.INTER.SOLV>
13.2314

>  <SCORE.INTER.VDW>
-23.3508

>  <SCORE.INTER.norm>
-0.607027

>  <SCORE.INTRA>
-5.99874

>  <SCORE.INTRA.DIHEDRAL>
-11.4965

>  <SCORE.INTRA.DIHEDRAL.0>
15.6389

>  <SCORE.INTRA.POLAR>
0

>  <SCORE.INTRA.POLAR.0>
0

>  <SCORE.INTRA.REPUL>
0

>  <SCORE.INTRA.REPUL.0>
0

>  <SCORE.INTRA.SOLV>
-1.51985

>  <SCORE.INTRA.SOLV.lig_0>
-90.9181

>  <SCORE.INTRA.VDW>
0.509457

>  <SCORE.INTRA.VDW.0>
-3.14158

>  <SCORE.INTRA.norm>
-0.162128

>  <SCORE.RESTR>
0.259721

>  <SCORE.RESTR.CAVITY>
0.259721

>  <SCORE.RESTR.norm>
0.00701948

>  <SCORE.SYSTEM>
0

>  <SCORE.SYSTEM.CONST>
0

>  <SCORE.SYSTEM.DIHEDRAL>
0

>  <SCORE.SYSTEM.SOLV>
0

>  <SCORE.SYSTEM.norm>
0

>  <SCORE.heavy>
37

>  <SCORE.norm>
-0.762135

>  <RMSD>
9.978

$$$$
1yrj_lig
 OpenBabel11021811423D
libRbt.so/2013.1/901 2013/11/27
 37 40  0  0  0  0  0  0  0  0999 V2000
   39.2740    0.0430    9.3814 C   0  0  1  0  0  0  0  0  0  0  0  0
   38.0458    0.2757    8.4799 C   0  0  1  0  0  0  0  0  0  0  0  0
   38.1986    1.5416    7.6216 C   0  0  0  0  0  0  0  0  0  0  0  0
   38.4901    2.7663    8.5275 C   0  0  1  0  0  0  0  0  0  0  0  0
   39.7526    2.5096    9.3720 C   0  0  1  0  0  0  0  0  0  0  0  0
   40.0352    3.7809   10.2785 C   0  0  1  0  0  0  0  0  0  0  0  0
   40.2336    5.0181    9.3878 C   0  0  1  0  0  0  0  0  0  0  0  0
   38.9603    5.2026    8.5269 C   0  0  2  0  0  0  0  0  0  0  0  0
   41.8962    6.2422   10.8857 C   0  0  0  0  0  0  0  0  0  0  0  0
   37.7635   -0.8884    7.6242 N   0  0  0  0  0  0  0  0  0  0  0  0
   40.5505    6.2115   10.2321 N   0  0  0  0  0  0  0  0  0  0  0  0
   40.4317   -0.4317    8.6690 O   0  0  0  0  0  0  0  0  0  0  0  0
   39.5455    1.2725   10.1517 O   0  0  0  0  0  0  0  0  0  0  0  0
   38.6846    4.0072    7.7432 O   0  0  0  0  0  0  0  0  0  0  0  0
   38.9139    4.0300   11.1002 O   0  0  0  0  0  0  0  0  0  0  0  0
   39.0843    6.2991    7.6203 O   0  0  0  0  0  0  0  0  0  0  0  0
   37.8102    6.7988    7.1505 C   0  0  2  0  0  0  0  0  0  0  0  0
   37.9398    7.8147    6.0040 C   0  0  1  0  0  0  0  0  0  0  0  0
   38.5635    9.1453    6.5028 C   0  0  2  0  0  0  0  0  0  0  0  0
   37.7275    9.7165    7.6251 C   0  0  1  0  0  0  0  0  0  0  0  0
   37.6408    8.6840    8.7740 C   0  0  1  0  0  0  0  0  0  0  0  0
   36.7708    9.1611    9.9347 C   0  0  0  0  0  0  0  0  0  0  0  0
   38.3480   10.9776    8.0811 N   0  0  0  0  0  0  0  0  0  0  0  0
   37.0633    7.4270    8.2651 O   0  0  0  0  0  0  0  0  0  0  0  0
   38.7107    7.2144    4.9531 O   0  0  0  0  0  0  0  0  0  0  0  0
   38.6003   10.0940    5.4278 O   0  0  0  0  0  0  0  0  0  0  0  0
   36.3974    8.0610   10.7210 O   0  0  0  0  0  0  0  0  0  0  0  0
   41.6229   -1.1025    9.3362 C   0  0  1  0  0  0  0  0  0  0  0  0
   42.2397   -0.0726   10.3082 C   0  0  1  0  0  0  0  0  0  0  0  0
   43.4265   -0.6837   11.0919 C   0  0  2  0  0  0  0  0  0  0  0  0
   42.9575   -1.9146   11.8767 C   0  0  1  0  0  0  0  0  0  0  0  0
   42.3694   -2.9730   10.9089 C   0  0  0  0  0  0  0  0  0  0  0  0
   41.1874   -2.3528   10.1564 C   0  0  2  0  0  0  0  0  0  0  0  0
   44.0991   -2.5002   12.6145 N   0  0  0  0  0  0  0  0  0  0  0  0
   40.6514   -3.3832    9.2711 N   0  0  0  0  0  0  0  0  0  0  0  0
   42.7204    1.0602    9.5520 O   0  0  0  0  0  0  0  0  0  0  0  0
   43.9470    0.3111   11.9997 O   0  0  0  0  0  0  0  0  0  0  0  0
  1  2  1  0  0  0  0
  1 12  1  6  0  0  0
  1 13  1  0  0  0  0
  2  3  1  0  0  0  0
  2 10  1  6  0  0  0
  4  3  1  6  0  0  0
  4  5  1  0  0  0  0
  4 14  1  0  0  0  0
  5  6  1  0  0  0  0
  5 13  1  1  0  0  0
  6  7  1  0  0  0  0
  6 15  1  1  0  0  0
  7  8  1  0  0  0  0
  7 11  1  1  0  0  0
  8 14  1  0  0  0  0
  8 16  1  6  0  0  0
  9 11  1  0  0  0  0
 17 16  1  1  0  0  0
 17 18  1  0  0  0  0
 17 24  1  0  0  0  0
 18 19  1  0  0  0  0
 18 25  1  6  0  0  0
 19 20  1  0  0  0  0
 19 26  1  6  0  0  0
 20 21  1  0  0  0  0
 20 23  1  1  0  0  0
 21 22  1  1  0  0  0
 21 24  1  0  0  0  0
 22 27  1  0  0  0  0
 28 12  1  1  0  0  0
 28 29  1  0  0  0  0
 28 33  1  0  0  0  0
 29 30  1  0  0  0  0
 29 36  1  6  0  0  0
 30 31  1  0  0  0  0
 30 37  1  1  0  0  0
 31 32  1  0  0  0  0
 31 34  1  6  0  0  0
 32 33  1  0  0  0  0
 33 35  1  6  0  0  0
M  END
>  <CHROM.1>
-162.09499494,70.77814953,-159.54142826,-170.37201925,161.74739171,-61.82016067
39.73929888,3.55011753,9.07784262,1.05017498,0.79491658,-3.02353367

>  <Name>
1yrj_lig

>  <RI>
0

>  <Rbt.Current_Directory>
/home/itssahil/PROJECTS/Mol_Feturizer/New_Systems/rnas/1yrj

>  <Rbt.Executable>
rbdock ($Id: //depot/dev/client3/rdock/2013.1/src/exe/rbdock.cxx#4 $)

>  <Rbt.Library>
libRbt.so (2013.1, Build901 2013/11/27)

>  <Rbt.Parameter_File>
/export/apps/rDock/src/rDock_2013.1_src/data/scripts/dock_solv.prm

>  <Rbt.Receptor>
prm/pocket_docking_4.prm

>  <SCORE>
-29.5614

>  <SCORE.INTER>
-23.7206

>  <SCORE.INTER.CONST>
1

>  <SCORE.INTER.POLAR>
-1.14454

>  <SCORE.INTER.ROT>
6

>  <SCORE.INTER.SOLV>
14.3739

>  <SCORE.INTER.VDW>
-24.3899

>  <SCORE.INTER.norm>
-0.641098

>  <SCORE.INTRA>
-5.84077

>  <SCORE.INTRA.DIHEDRAL>
-10.5508

>  <SCORE.INTRA.DIHEDRAL.0>
15.6389

>  <SCORE.INTRA.POLAR>
0

>  <SCORE.INTRA.POLAR.0>
0

>  <SCORE.INTRA.REPUL>
0

>  <SCORE.INTRA.REPUL.0>
0

>  <SCORE.INTRA.SOLV>
-1.55944

>  <SCORE.INTRA.SOLV.lig_0>
-90.9181

>  <SCORE.INTRA.VDW>
0.214353

>  <SCORE.INTRA.VDW.0>
-3.14158

>  <SCORE.INTRA.norm>
-0.157859

>  <SCORE.RESTR>
0

>  <SCORE.RESTR.CAVITY>
0

>  <SCORE.RESTR.norm>
0

>  <SCORE.SYSTEM>
0

>  <SCORE.SYSTEM.CONST>
0

>  <SCORE.SYSTEM.DIHEDRAL>
0

>  <SCORE.SYSTEM.SOLV>
0

>  <SCORE.SYSTEM.norm>
0

>  <SCORE.heavy>
37

>  <SCORE.norm>
-0.798957

>  <RMSD>
9.992

$$$$
1yrj_lig
 OpenBabel11021811423D
libRbt.so/2013.1/901 2013/11/27
 37 40  0  0  0  0  0  0  0  0999 V2000
   39.2730    0.2230    9.2884 C   0  0  1  0  0  0  0  0  0  0  0  0
   38.0330    0.5075    8.4183 C   0  0  1  0  0  0  0  0  0  0  0  0
   38.1895    1.8033    7.6068 C   0  0  0  0  0  0  0  0  0  0  0  0
   38.5141    2.9880    8.5538 C   0  0  1  0  0  0  0  0  0  0  0  0
   39.7871    2.6813    9.3653 C   0  0  1  0  0  0  0  0  0  0  0  0
   40.1036    3.9126   10.3148 C   0  0  1  0  0  0  0  0  0  0  0  0
   40.3046    5.1805    9.4689 C   0  0  1  0  0  0  0  0  0  0  0  0
   39.0196    5.4156    8.6385 C   0  0  2  0  0  0  0  0  0  0  0  0
   41.3806    7.4797    9.7190 C   0  0  0  0  0  0  0  0  0  0  0  0
   37.7192   -0.6187    7.5237 N   0  0  0  0  0  0  0  0  0  0  0  0
   40.6533    6.3357   10.3528 N   0  0  0  0  0  0  0  0  0  0  0  0
   40.4113   -0.2397    8.5379 O   0  0  0  0  0  0  0  0  0  0  0  0
   39.5755    1.4179   10.1005 O   0  0  0  0  0  0  0  0  0  0  0  0
   38.7131    4.2554    7.8144 O   0  0  0  0  0  0  0  0  0  0  0  0
   39.0003    4.1453   11.1652 O   0  0  0  0  0  0  0  0  0  0  0  0
   39.1439    6.5446    7.7727 O   0  0  0  0  0  0  0  0  0  0  0  0
   37.8714    7.0424    7.2967 C   0  0  2  0  0  0  0  0  0  0  0  0
   38.0075    8.1332    6.2219 C   0  0  1  0  0  0  0  0  0  0  0  0
   38.5813    9.4435    6.8237 C   0  0  2  0  0  0  0  0  0  0  0  0
   37.6982    9.9205    7.9539 C   0  0  1  0  0  0  0  0  0  0  0  0
   37.6052    8.8141    9.0313 C   0  0  1  0  0  0  0  0  0  0  0  0
   36.6895    9.1939   10.1928 C   0  0  0  0  0  0  0  0  0  0  0  0
   38.2717   11.1643    8.5083 N   0  0  0  0  0  0  0  0  0  0  0  0
   37.0761    7.5789    8.4256 O   0  0  0  0  0  0  0  0  0  0  0  0
   38.8243    7.6210    5.1591 O   0  0  0  0  0  0  0  0  0  0  0  0
   38.6244   10.4603    5.8131 O   0  0  0  0  0  0  0  0  0  0  0  0
   36.2660    8.0307   10.8528 O   0  0  0  0  0  0  0  0  0  0  0  0
   41.6093   -0.9418    9.1593 C   0  0  1  0  0  0  0  0  0  0  0  0
   42.2214    0.0304   10.1919 C   0  0  1  0  0  0  0  0  0  0  0  0
   43.4148   -0.6194   10.9332 C   0  0  2  0  0  0  0  0  0  0  0  0
   42.9570   -1.9001   11.6412 C   0  0  1  0  0  0  0  0  0  0  0  0
   42.3737   -2.9007   10.6110 C   0  0  0  0  0  0  0  0  0  0  0  0
   41.1852   -2.2438    9.9014 C   0  0  2  0  0  0  0  0  0  0  0  0
   44.1048   -2.5218   12.3385 N   0  0  0  0  0  0  0  0  0  0  0  0
   40.6541   -3.2212    8.9551 N   0  0  0  0  0  0  0  0  0  0  0  0
   42.6916    1.2114    9.5063 O   0  0  0  0  0  0  0  0  0  0  0  0
   43.9306    0.3210   11.8999 O   0  0  0  0  0  0  0  0  0  0  0  0
  1  2  1  0  0  0  0
  1 12  1  6  0  0  0
  1 13  1  0  0  0  0
  2  3  1  0  0  0  0
  2 10  1  6  0  0  0
  4  3  1  6  0  0  0
  4  5  1  0  0  0  0
  4 14  1  0  0  0  0
  5  6  1  0  0  0  0
  5 13  1  1  0  0  0
  6  7  1  0  0  0  0
  6 15  1  1  0  0  0
  7  8  1  0  0  0  0
  7 11  1  1  0  0  0
  8 14  1  0  0  0  0
  8 16  1  6  0  0  0
  9 11  1  0  0  0  0
 17 16  1  1  0  0  0
 17 18  1  0  0  0  0
 17 24  1  0  0  0  0
 18 19  1  0  0  0  0
 18 25  1  6  0  0  0
 19 20  1  0  0  0  0
 19 26  1  6  0  0  0
 20 21  1  0  0  0  0
 20 23  1  1  0  0  0
 21 22  1  1  0  0  0
 21 24  1  0  0  0  0
 22 27  1  0  0  0  0
 28 12  1  1  0  0  0
 28 29  1  0  0  0  0
 28 33  1  0  0  0  0
 29 30  1  0  0  0  0
 29 36  1  6  0  0  0
 30 31  1  0  0  0  0
 30 37  1  1  0  0  0
 31 32  1  0  0  0  0
 31 34  1  6  0  0  0
 32 33  1  0  0  0  0
 33 35  1  6  0  0  0
M  END
>  <CHROM.1>
-162.63344319,157.16984601,-162.17219558,-172.30755220,158.67767414,-59.55467945
39.73371156,3.74916830,9.07533068,1.08765407,0.74255774,-3.02534196

>  <Name>
1yrj_lig

>  <RI>
0

>  <Rbt.Current_Directory>
/home/itssahil/PROJECTS/Mol_Feturizer/New_Systems/rnas/1yrj

>  <Rbt.Executable>
rbdock ($Id: //depot/dev/client3/rdock/2013.1/src/exe/rbdock.cxx#4 $)

>  <Rbt.Library>
libRbt.so (2013.1, Build901 2013/11/27)

>  <Rbt.Parameter_File>
/export/apps/rDock/src/rDock_2013.1_src/data/scripts/dock_solv.prm

>  <Rbt.Receptor>
prm/pocket_docking_5.prm

>  <SCORE>
-28.4888

>  <SCORE.INTER>
-22.1667

>  <SCORE.INTER.CONST>
1

>  <SCORE.INTER.POLAR>
-1.25843

>  <SCORE.INTER.ROT>
6

>  <SCORE.INTER.SOLV>
14.9718

>  <SCORE.INTER.VDW>
-23.1736

>  <SCORE.INTER.norm>
-0.5991

>  <SCORE.INTRA>
-6.32212

>  <SCORE.INTRA.DIHEDRAL>
-10.5698

>  <SCORE.INTRA.DIHEDRAL.0>
15.6389

>  <SCORE.INTRA.POLAR>
0

>  <SCORE.INTRA.POLAR.0>
0

>  <SCORE.INTRA.REPUL>
0

>  <SCORE.INTRA.REPUL.0>
0

>  <SCORE.INTRA.SOLV>
-1.58473

>  <SCORE.INTRA.SOLV.lig_0>
-90.9181

>  <SCORE.INTRA.VDW>
-0.244855

>  <SCORE.INTRA.VDW.0>
-3.14158

>  <SCORE.INTRA.norm>
-0.170868

>  <SCORE.RESTR>
0

>  <SCORE.RESTR.CAVITY>
0

>  <SCORE.RESTR.norm>
0

>  <SCORE.SYSTEM>
0

>  <SCORE.SYSTEM.CONST>
0

>  <SCORE.SYSTEM.DIHEDRAL>
0

>  <SCORE.SYSTEM.SOLV>
0

>  <SCORE.SYSTEM.norm>
0

>  <SCORE.heavy>
37

>  <SCORE.norm>
-0.769968

>  <RMSD>
9.997

$$$$
1yrj_lig
 OpenBabel11021811423D
libRbt.so/2013.1/901 2013/11/27
 37 40  0  0  0  0  0  0  0  0999 V2000
   41.7945    8.2406   11.3661 C   0  0  1  0  0  0  0  0  0  0  0  0
   43.1205    8.7714   10.7870 C   0  0  1  0  0  0  0  0  0  0  0  0
   42.8880    9.6980    9.5829 C   0  0  0  0  0  0  0  0  0  0  0  0
   42.0390    8.9703    8.5081 C   0  0  1  0  0  0  0  0  0  0  0  0
   40.7038    8.5027    9.1177 C   0  0  1  0  0  0  0  0  0  0  0  0
   39.8505    7.7742    7.9956 C   0  0  1  0  0  0  0  0  0  0  0  0
   39.5927    8.7433    6.8304 C   0  0  1  0  0  0  0  0  0  0  0  0
   40.9616    9.2201    6.2870 C   0  0  2  0  0  0  0  0  0  0  0  0
   37.2645    8.2524    5.9113 C   0  0  0  0  0  0  0  0  0  0  0  0
   43.9308    9.4564   11.8074 N   0  0  0  0  0  0  0  0  0  0  0  0
   38.7460    8.0803    5.7907 N   0  0  0  0  0  0  0  0  0  0  0  0
   41.0544    9.2256   12.1112 O   0  0  0  0  0  0  0  0  0  0  0  0
   41.0011    7.6375   10.2773 O   0  0  0  0  0  0  0  0  0  0  0  0
   41.7537    9.8365    7.3414 O   0  0  0  0  0  0  0  0  0  0  0  0
   40.5858    6.6838    7.4807 O   0  0  0  0  0  0  0  0  0  0  0  0
   40.8141   10.1768    5.2369 O   0  0  0  0  0  0  0  0  0  0  0  0
   41.3682    9.7316    3.9766 C   0  0  2  0  0  0  0  0  0  0  0  0
   41.5504   10.8672    2.9564 C   0  0  1  0  0  0  0  0  0  0  0  0
   40.1797   11.3955    2.4560 C   0  0  2  0  0  0  0  0  0  0  0  0
   39.3813   10.2631    1.8518 C   0  0  1  0  0  0  0  0  0  0  0  0
   39.1900    9.1512    2.9103 C   0  0  1  0  0  0  0  0  0  0  0  0
   38.4319    7.9415    2.3683 C   0  0  0  0  0  0  0  0  0  0  0  0
   38.0826   10.7953    1.3899 N   0  0  0  0  0  0  0  0  0  0  0  0
   40.5071    8.6845    3.3792 O   0  0  0  0  0  0  0  0  0  0  0  0
   42.3404   11.8990    3.5648 O   0  0  0  0  0  0  0  0  0  0  0  0
   40.3865   12.3992    1.4527 O   0  0  0  0  0  0  0  0  0  0  0  0
   37.1204    8.3196    2.0443 O   0  0  0  0  0  0  0  0  0  0  0  0
   39.7610    8.9311   12.8560 C   0  0  1  0  0  0  0  0  0  0  0  0
   38.7093    8.5266   11.7993 C   0  0  1  0  0  0  0  0  0  0  0  0
   37.3669    8.1394   12.4657 C   0  0  2  0  0  0  0  0  0  0  0  0
   37.5837    6.9800   13.4453 C   0  0  1  0  0  0  0  0  0  0  0  0
   38.6102    7.3852   14.5339 C   0  0  0  0  0  0  0  0  0  0  0  0
   39.9346    7.7483   13.8543 C   0  0  2  0  0  0  0  0  0  0  0  0
   36.2987    6.6225   14.0868 N   0  0  0  0  0  0  0  0  0  0  0  0
   40.8775    8.1058   14.9107 N   0  0  0  0  0  0  0  0  0  0  0  0
   38.4792    9.6427   10.9120 O   0  0  0  0  0  0  0  0  0  0  0  0
   36.4321    7.7478   11.4373 O   0  0  0  0  0  0  0  0  0  0  0  0
  1  2  1  0  0  0  0
  1 12  1  6  0  0  0
  1 13  1  0  0  0  0
  2  3  1  0  0  0  0
  2 10  1  1  0  0  0
  4  3  1  1  0  0  0
  4  5  1  0  0  0  0
  4 14  1  0  0  0  0
  5  6  1  0  0  0  0
  5 13  1  1  0  0  0
  6  7  1  0  0  0  0
  6 15  1  6  0  0  0
  7  8  1  0  0  0  0
  7 11  1  6  0  0  0
  8 14  1  0  0  0  0
  8 16  1  6  0  0  0
  9 11  1  0  0  0  0
 17 16  1  1  0  0  0
 17 18  1  0  0  0  0
 17 24  1  0  0  0  0
 18 19  1  0  0  0  0
 18 25  1  1  0  0  0
 19 20  1  0  0  0  0
 19 26  1  6  0  0  0
 20 21  1  0  0  0  0
 20 23  1  1  0  0  0
 21 22  1  6  0  0  0
 21 24  1  0  0  0  0
 22 27  1  0  0  0  0
 28 12  1  6  0  0  0
 28 29  1  0  0  0  0
 28 33  1  0  0  0  0
 29 30  1  0  0  0  0
 29 36  1  6  0  0  0
 30 31  1  0  0  0  0
 30 37  1  6  0  0  0
 31 32  1  0  0  0  0
 31 34  1  1  0  0  0
 32 33  1  0  0  0  0
 33 35  1  1  0  0  0
M  END
>  <CHROM.1>
-175.96169251,91.52010117,-118.16231527,-164.79466117,-65.16093702,-64.00564127
39.95571189,8.94728037,7.91649429,-1.60339918,-0.34858440,-1.37949552

>  <Name>
1yrj_lig

>  <RI>
0

>  <Rbt.Current_Directory>
/home/itssahil/PROJECTS/Mol_Feturizer/New_Systems/rnas/1yrj

>  <Rbt.Executable>
rbdock ($Id: //depot/dev/client3/rdock/2013.1/src/exe/rbdock.cxx#4 $)

>  <Rbt.Library>
libRbt.so (2013.1, Build901 2013/11/27)

>  <Rbt.Parameter_File>
/export/apps/rDock/src/rDock_2013.1_src/data/scripts/dock_solv.prm

>  <Rbt.Receptor>
prm/pocket_docking_6.prm

>  <SCORE>
-14.9905

>  <SCORE.INTER>
-10.9609

>  <SCORE.INTER.CONST>
1

>  <SCORE.INTER.POLAR>
-1.53762

>  <SCORE.INTER.ROT>
6

>  <SCORE.INTER.SOLV>
16.5938

>  <SCORE.INTER.VDW>
-15.3131

>  <SCORE.INTER.norm>
-0.296239

>  <SCORE.INTRA>
-4.03359

>  <SCORE.INTRA.DIHEDRAL>
-6.39762

>  <SCORE.INTRA.DIHEDRAL.0>
15.6389

>  <SCORE.INTRA.POLAR>
0

>  <SCORE.INTRA.POLAR.0>
0

>  <SCORE.INTRA.REPUL>
0

>  <SCORE.INTRA.REPUL.0>
0

>  <SCORE.INTRA.SOLV>
0.584087

>  <SCORE.INTRA.SOLV.lig_0>
-90.9181

>  <SCORE.INTRA.VDW>
-1.12682

>  <SCORE.INTRA.VDW.0>
-3.14158

>  <SCORE.INTRA.norm>
-0.109016

>  <SCORE.RESTR>
0.00396168

>  <SCORE.RESTR.CAVITY>
0.00396168

>  <SCORE.RESTR.norm>
0.000107072

>  <SCORE.SYSTEM>
0

>  <SCORE.SYSTEM.CONST>
0

>  <SCORE.SYSTEM.DIHEDRAL>
0

>  <SCORE.SYSTEM.SOLV>
0

>  <SCORE.SYSTEM.norm>
0

>  <SCORE.heavy>
37

>  <SCORE.norm>
-0.405148

>  <RMSD>
10.005

$$$$
1yrj_lig
 OpenBabel11021811423D
libRbt.so/2013.1/901 2013/11/27
 37 40  0  0  0  0  0  0  0  0999 V2000
   39.2848   -0.0408    9.3466 C   0  0  1  0  0  0  0  0  0  0  0  0
   38.0599    0.1958    8.4416 C   0  0  1  0  0  0  0  0  0  0  0  0
   38.2181    1.4626    7.5855 C   0  0  0  0  0  0  0  0  0  0  0  0
   38.5093    2.6855    8.4941 C   0  0  1  0  0  0  0  0  0  0  0  0
   39.7686    2.4248    9.3421 C   0  0  1  0  0  0  0  0  0  0  0  0
   40.0510    3.6943   10.2513 C   0  0  1  0  0  0  0  0  0  0  0  0
   40.2548    4.9324    9.3629 C   0  0  1  0  0  0  0  0  0  0  0  0
   38.9846    5.1207    8.4984 C   0  0  2  0  0  0  0  0  0  0  0  0
   41.9064    6.1401   10.8861 C   0  0  0  0  0  0  0  0  0  0  0  0
   37.7778   -0.9665    7.5833 N   0  0  0  0  0  0  0  0  0  0  0  0
   40.5716    6.1238   10.2099 N   0  0  0  0  0  0  0  0  0  0  0  0
   40.4437   -0.5168    8.6370 O   0  0  0  0  0  0  0  0  0  0  0  0
   39.5565    1.1871   10.1195 O   0  0  0  0  0  0  0  0  0  0  0  0
   38.7088    3.9270    7.7122 O   0  0  0  0  0  0  0  0  0  0  0  0
   38.9277    3.9446   11.0699 O   0  0  0  0  0  0  0  0  0  0  0  0
   39.1137    6.2182    7.5938 O   0  0  0  0  0  0  0  0  0  0  0  0
   37.8431    6.7070    7.1036 C   0  0  2  0  0  0  0  0  0  0  0  0
   37.9825    7.8430    6.0771 C   0  0  1  0  0  0  0  0  0  0  0  0
   38.5101    9.1402    6.7459 C   0  0  2  0  0  0  0  0  0  0  0  0
   37.5870    9.5517    7.8698 C   0  0  1  0  0  0  0  0  0  0  0  0
   37.4909    8.4010    8.8994 C   0  0  1  0  0  0  0  0  0  0  0  0
   36.5366    8.7135   10.0497 C   0  0  0  0  0  0  0  0  0  0  0  0
   38.1171   10.7843    8.4886 N   0  0  0  0  0  0  0  0  0  0  0  0
   37.0063    7.1801    8.2309 O   0  0  0  0  0  0  0  0  0  0  0  0
   38.8384    7.3921    5.0173 O   0  0  0  0  0  0  0  0  0  0  0  0
   38.5566   10.1976    5.7781 O   0  0  0  0  0  0  0  0  0  0  0  0
   37.0577    9.7672   10.8152 O   0  0  0  0  0  0  0  0  0  0  0  0
   41.6489   -1.1550    9.3113 C   0  0  1  0  0  0  0  0  0  0  0  0
   42.2422   -0.1026   10.2738 C   0  0  1  0  0  0  0  0  0  0  0  0
   43.4415   -0.6800   11.0639 C   0  0  2  0  0  0  0  0  0  0  0  0
   42.9990   -1.9135   11.8601 C   0  0  1  0  0  0  0  0  0  0  0  0
   42.4351   -2.9937   10.9021 C   0  0  0  0  0  0  0  0  0  0  0  0
   41.2404   -2.4067   10.1431 C   0  0  2  0  0  0  0  0  0  0  0  0
   44.1526   -2.4668   12.6041 N   0  0  0  0  0  0  0  0  0  0  0  0
   40.7278   -3.4570    9.2672 N   0  0  0  0  0  0  0  0  0  0  0  0
   42.6983    1.0333    9.5073 O   0  0  0  0  0  0  0  0  0  0  0  0
   43.9393    0.3345   11.9626 O   0  0  0  0  0  0  0  0  0  0  0  0
  1  2  1  0  0  0  0
  1 12  1  6  0  0  0
  1 13  1  0  0  0  0
  2  3  1  0  0  0  0
  2 10  1  6  0  0  0
  4  3  1  6  0  0  0
  4  5  1  0  0  0  0
  4 14  1  0  0  0  0
  5  6  1  0  0  0  0
  5 13  1  1  0  0  0
  6  7  1  0  0  0  0
  6 15  1  1  0  0  0
  7  8  1  0  0  0  0
  7 11  1  1  0  0  0
  8 14  1  0  0  0  0
  8 16  1  6  0  0  0
  9 11  1  0  0  0  0
 17 16  1  1  0  0  0
 17 18  1  0  0  0  0
 17 24  1  0  0  0  0
 18 19  1  0  0  0  0
 18 25  1  6  0  0  0
 19 20  1  0  0  0  0
 19 26  1  6  0  0  0
 20 21  1  0  0  0  0
 20 23  1  1  0  0  0
 21 22  1  1  0  0  0
 21 24  1  0  0  0  0
 22 27  1  0  0  0  0
 28 12  1  1  0  0  0
 28 29  1  0  0  0  0
 28 33  1  0  0  0  0
 29 30  1  0  0  0  0
 29 36  1  6  0  0  0
 30 31  1  0  0  0  0
 30 37  1  1  0  0  0
 31 32  1  0  0  0  0
 31 34  1  6  0  0  0
 32 33  1  0  0  0  0
 33 35  1  6  0  0  0
M  END
>  <CHROM.1>
-163.92662699,69.78602395,-160.50279862,-177.17809736,-66.42621743,-60.73970043
39.75644870,3.53158922,9.10351678,1.03894477,0.81016098,-2.98369891

>  <Name>
1yrj_lig

>  <RI>
0

>  <Rbt.Current_Directory>
/home/itssahil/PROJECTS/Mol_Feturizer/New_Systems/rnas/1yrj

>  <Rbt.Executable>
rbdock ($Id: //depot/dev/client3/rdock/2013.1/src/exe/rbdock.cxx#4 $)

>  <Rbt.Library>
libRbt.so (2013.1, Build901 2013/11/27)

>  <Rbt.Parameter_File>
/export/apps/rDock/src/rDock_2013.1_src/data/scripts/dock_solv.prm

>  <Rbt.Receptor>
prm/pocket_docking_5.prm

>  <SCORE>
-28.1649

>  <SCORE.INTER>
-21.9484

>  <SCORE.INTER.CONST>
1

>  <SCORE.INTER.POLAR>
-0.715899

>  <SCORE.INTER.ROT>
6

>  <SCORE.INTER.SOLV>
13.3843

>  <SCORE.INTER.VDW>
-24.3074

>  <SCORE.INTER.norm>
-0.593201

>  <SCORE.INTRA>
-6.21651

>  <SCORE.INTRA.DIHEDRAL>
-12.3701

>  <SCORE.INTRA.DIHEDRAL.0>
15.6389

>  <SCORE.INTRA.POLAR>
0

>  <SCORE.INTRA.POLAR.0>
0

>  <SCORE.INTRA.REPUL>
0

>  <SCORE.INTRA.REPUL.0>
0

>  <SCORE.INTRA.SOLV>
-0.662059

>  <SCORE.INTRA.SOLV.lig_0>
-90.9181

>  <SCORE.INTRA.VDW>
0.299568

>  <SCORE.INTRA.VDW.0>
-3.14158

>  <SCORE.INTRA.norm>
-0.168014

>  <SCORE.RESTR>
0

>  <SCORE.RESTR.CAVITY>
0

>  <SCORE.RESTR.norm>
0

>  <SCORE.SYSTEM>
0

>  <SCORE.SYSTEM.CONST>
0

>  <SCORE.SYSTEM.DIHEDRAL>
0

>  <SCORE.SYSTEM.SOLV>
0

>  <SCORE.SYSTEM.norm>
0

>  <SCORE.heavy>
37

>  <SCORE.norm>
-0.761214

>  <RMSD>
10.010

$$$$
1yrj_lig
 OpenBabel11021811423D
libRbt.so/2013.1/901 2013/11/27
 37 40  0  0  0  0  0  0  0  0999 V2000
   39.2876    0.2565    9.3915 C   0  0  1  0  0  0  0  0  0  0  0  0
   37.9950    0.4470    8.5740 C   0  0  1  0  0  0  0  0  0  0  0  0
   38.0725    1.6818    7.6620 C   0  0  0  0  0  0  0  0  0  0  0  0
   38.4165    2.9410    8.4997 C   0  0  1  0  0  0  0  0  0  0  0  0
   39.7394    2.7246    9.2587 C   0  0  1  0  0  0  0  0  0  0  0  0
   40.0742    4.0303   10.0960 C   0  0  1  0  0  0  0  0  0  0  0  0
   40.1950    5.2356    9.1493 C   0  0  1  0  0  0  0  0  0  0  0  0
   38.8609    5.3790    8.3774 C   0  0  2  0  0  0  0  0  0  0  0  0
   41.3094    7.5297    9.1924 C   0  0  0  0  0  0  0  0  0  0  0  0
   37.6631   -0.7496    7.7835 N   0  0  0  0  0  0  0  0  0  0  0  0
   40.5603    6.4613    9.9249 N   0  0  0  0  0  0  0  0  0  0  0  0
   40.3953   -0.2353    8.6141 O   0  0  0  0  0  0  0  0  0  0  0  0
   39.6019    1.5153   10.0953 O   0  0  0  0  0  0  0  0  0  0  0  0
   38.5411    4.1537    7.6593 O   0  0  0  0  0  0  0  0  0  0  0  0
   39.0130    4.3010   10.9877 O   0  0  0  0  0  0  0  0  0  0  0  0
   38.9078    6.4425    7.4254 O   0  0  0  0  0  0  0  0  0  0  0  0
   37.6007    6.9588    7.0809 C   0  0  2  0  0  0  0  0  0  0  0  0
   37.6436    8.0561    6.0049 C   0  0  1  0  0  0  0  0  0  0  0  0
   38.2903    9.3550    6.5553 C   0  0  2  0  0  0  0  0  0  0  0  0
   37.5292    9.8336    7.7704 C   0  0  1  0  0  0  0  0  0  0  0  0
   37.5293    8.7203    8.8446 C   0  0  1  0  0  0  0  0  0  0  0  0
   36.7377    9.1020   10.0934 C   0  0  0  0  0  0  0  0  0  0  0  0
   38.1701   11.0664    8.2733 N   0  0  0  0  0  0  0  0  0  0  0  0
   36.9276    7.4961    8.2863 O   0  0  0  0  0  0  0  0  0  0  0  0
   38.3448    7.5425    4.8632 O   0  0  0  0  0  0  0  0  0  0  0  0
   38.2459   10.3788    5.5519 O   0  0  0  0  0  0  0  0  0  0  0  0
   36.4015    7.9411   10.8056 O   0  0  0  0  0  0  0  0  0  0  0  0
   41.6068   -0.9354    9.2112 C   0  0  1  0  0  0  0  0  0  0  0  0
   42.2430    0.0410   10.2250 C   0  0  1  0  0  0  0  0  0  0  0  0
   43.4526   -0.6064   10.9418 C   0  0  2  0  0  0  0  0  0  0  0  0
   43.0103   -1.8835   11.6659 C   0  0  1  0  0  0  0  0  0  0  0  0
   42.4030   -2.8883   10.6539 C   0  0  0  0  0  0  0  0  0  0  0  0
   41.1989   -2.2337    9.9687 C   0  0  2  0  0  0  0  0  0  0  0  0
   44.1734   -2.5030   12.3396 N   0  0  0  0  0  0  0  0  0  0  0  0
   40.6457   -3.2150    9.0392 N   0  0  0  0  0  0  0  0  0  0  0  0
   42.6981    1.2185    9.5236 O   0  0  0  0  0  0  0  0  0  0  0  0
   43.9911    0.3380   11.8921 O   0  0  0  0  0  0  0  0  0  0  0  0
  1  2  1  0  0  0  0
  1 12  1  6  0  0  0
  1 13  1  0  0  0  0
  2  3  1  0  0  0  0
  2 10  1  6  0  0  0
  4  3  1  6  0  0  0
  4  5  1  0  0  0  0
  4 14  1  0  0  0  0
  5  6  1  0  0  0  0
  5 13  1  1  0  0  0
  6  7  1  0  0  0  0
  6 15  1  1  0  0  0
  7  8  1  0  0  0  0
  7 11  1  1  0  0  0
  8 14  1  0  0  0  0
  8 16  1  6  0  0  0
  9 11  1  0  0  0  0
 17 16  1  1  0  0  0
 17 18  1  0  0  0  0
 17 24  1  0  0  0  0
 18 19  1  0  0  0  0
 18 25  1  6  0  0  0
 19 20  1  0  0  0  0
 19 26  1  6  0  0  0
 20 21  1  0  0  0  0
 20 23  1  1  0  0  0
 21 22  1  1  0  0  0
 21 24  1  0  0  0  0
 22 27  1  0  0  0  0
 28 12  1  1  0  0  0
 28 29  1  0  0  0  0
 28 33  1  0  0  0  0
 29 30  1  0  0  0  0
 29 36  1  6  0  0  0
 30 31  1  0  0  0  0
 30 37  1  1  0  0  0
 31 32  1  0  0  0  0
 31 34  1  6  0  0  0
 32 33  1  0  0  0  0
 33 35  1  6  0  0  0
M  END
>  <CHROM.1>
-158.88247846,152.87234424,-156.71546036,-177.14635816,160.42863049,-58.20806867
39.65168922,3.72872228,8.97133742,1.07232061,0.72089706,-3.05320351

>  <Name>
1yrj_lig

>  <RI>
0

>  <Rbt.Current_Directory>
/home/itssahil/PROJECTS/Mol_Feturizer/New_Systems/rnas/1yrj

>  <Rbt.Executable>
rbdock ($Id: //depot/dev/client3/rdock/2013.1/src/exe/rbdock.cxx#4 $)

>  <Rbt.Library>
libRbt.so (2013.1, Build901 2013/11/27)

>  <Rbt.Parameter_File>
/export/apps/rDock/src/rDock_2013.1_src/data/scripts/dock_solv.prm

>  <Rbt.Receptor>
prm/pocket_docking_4.prm

>  <SCORE>
-28.2907

>  <SCORE.INTER>
-22.471

>  <SCORE.INTER.CONST>
1

>  <SCORE.INTER.POLAR>
-1.24161

>  <SCORE.INTER.ROT>
6

>  <SCORE.INTER.SOLV>
14.9296

>  <SCORE.INTER.VDW>
-23.4185

>  <SCORE.INTER.norm>
-0.607325

>  <SCORE.INTRA>
-5.81965

>  <SCORE.INTRA.DIHEDRAL>
-9.40014

>  <SCORE.INTRA.DIHEDRAL.0>
15.6389

>  <SCORE.INTRA.POLAR>
0

>  <SCORE.INTRA.POLAR.0>
0

>  <SCORE.INTRA.REPUL>
0

>  <SCORE.INTRA.REPUL.0>
0

>  <SCORE.INTRA.SOLV>
-1.22549

>  <SCORE.INTRA.SOLV.lig_0>
-90.9181

>  <SCORE.INTRA.VDW>
-0.506836

>  <SCORE.INTRA.VDW.0>
-3.14158

>  <SCORE.INTRA.norm>
-0.157288

>  <SCORE.RESTR>
0

>  <SCORE.RESTR.CAVITY>
0

>  <SCORE.RESTR.norm>
0

>  <SCORE.SYSTEM>
0

>  <SCORE.SYSTEM.CONST>
0

>  <SCORE.SYSTEM.DIHEDRAL>
0

>  <SCORE.SYSTEM.SOLV>
0

>  <SCORE.SYSTEM.norm>
0

>  <SCORE.heavy>
37

>  <SCORE.norm>
-0.764612

>  <RMSD>
10.023

$$$$
1yrj_lig
 OpenBabel11021811423D
libRbt.so/2013.1/901 2013/11/27
 37 40  0  0  0  0  0  0  0  0999 V2000
   39.2767    0.0936    9.4584 C   0  0  1  0  0  0  0  0  0  0  0  0
   37.9683    0.2048    8.6513 C   0  0  1  0  0  0  0  0  0  0  0  0
   38.0214    1.3543    7.6324 C   0  0  0  0  0  0  0  0  0  0  0  0
   38.3722    2.6844    8.3490 C   0  0  1  0  0  0  0  0  0  0  0  0
   39.7100    2.5425    9.0996 C   0  0  1  0  0  0  0  0  0  0  0  0
   40.0513    3.9188    9.8118 C   0  0  1  0  0  0  0  0  0  0  0  0
   40.1472    5.0361    8.7603 C   0  0  1  0  0  0  0  0  0  0  0  0
   38.7985    5.1041    8.0035 C   0  0  2  0  0  0  0  0  0  0  0  0
   40.9927    7.4312    8.5255 C   0  0  0  0  0  0  0  0  0  0  0  0
   37.6301   -1.0588    7.9759 N   0  0  0  0  0  0  0  0  0  0  0  0
   40.5184    6.3274    9.4176 N   0  0  0  0  0  0  0  0  0  0  0  0
   40.3734   -0.4596    8.7072 O   0  0  0  0  0  0  0  0  0  0  0  0
   39.5953    1.4113   10.0422 O   0  0  0  0  0  0  0  0  0  0  0  0
   38.4739    3.8186    7.4025 O   0  0  0  0  0  0  0  0  0  0  0  0
   39.0045    4.2621   10.6956 O   0  0  0  0  0  0  0  0  0  0  0  0
   38.8214    6.0794    6.9605 O   0  0  0  0  0  0  0  0  0  0  0  0
   37.5143    6.6194    6.6546 C   0  0  2  0  0  0  0  0  0  0  0  0
   37.5350    7.6608    5.5238 C   0  0  1  0  0  0  0  0  0  0  0  0
   38.2461    8.9640    5.9759 C   0  0  2  0  0  0  0  0  0  0  0  0
   37.5614    9.5253    7.2010 C   0  0  1  0  0  0  0  0  0  0  0  0
   37.5831    8.4663    8.3286 C   0  0  1  0  0  0  0  0  0  0  0  0
   36.8667    8.9334    9.5937 C   0  0  0  0  0  0  0  0  0  0  0  0
   38.2625   10.7603    7.6093 N   0  0  0  0  0  0  0  0  0  0  0  0
   36.9186    7.2360    7.8628 O   0  0  0  0  0  0  0  0  0  0  0  0
   38.1627    7.0701    4.3766 O   0  0  0  0  0  0  0  0  0  0  0  0
   38.1813    9.9384    4.9255 O   0  0  0  0  0  0  0  0  0  0  0  0
   37.0178    7.9671   10.5993 O   0  0  0  0  0  0  0  0  0  0  0  0
   41.5656   -1.1626    9.3386 C   0  0  1  0  0  0  0  0  0  0  0  0
   42.2192   -0.1610   10.3162 C   0  0  1  0  0  0  0  0  0  0  0  0
   43.4103   -0.8063   11.0652 C   0  0  2  0  0  0  0  0  0  0  0  0
   42.9354   -2.0430   11.8373 C   0  0  1  0  0  0  0  0  0  0  0  0
   42.3101   -3.0736   10.8628 C   0  0  0  0  0  0  0  0  0  0  0  0
   41.1246   -2.4198   10.1451 C   0  0  2  0  0  0  0  0  0  0  0  0
   44.0808   -2.6612   12.5417 N   0  0  0  0  0  0  0  0  0  0  0  0
   40.5535   -3.4248    9.2524 N   0  0  0  0  0  0  0  0  0  0  0  0
   42.7045    0.9769    9.5709 O   0  0  0  0  0  0  0  0  0  0  0  0
   43.9656    0.1629   11.9800 O   0  0  0  0  0  0  0  0  0  0  0  0
  1  2  1  0  0  0  0
  1 12  1  6  0  0  0
  1 13  1  0  0  0  0
  2  3  1  0  0  0  0
  2 10  1  6  0  0  0
  4  3  1  6  0  0  0
  4  5  1  0  0  0  0
  4 14  1  0  0  0  0
  5  6  1  0  0  0  0
  5 13  1  1  0  0  0
  6  7  1  0  0  0  0
  6 15  1  1  0  0  0
  7  8  1  0  0  0  0
  7 11  1  1  0  0  0
  8 14  1  0  0  0  0
  8 16  1  6  0  0  0
  9 11  1  0  0  0  0
 17 16  1  1  0  0  0
 17 18  1  0  0  0  0
 17 24  1  0  0  0  0
 18 19  1  0  0  0  0
 18 25  1  6  0  0  0
 19 20  1  0  0  0  0
 19 26  1  6  0  0  0
 20 21  1  0  0  0  0
 20 23  1  1  0  0  0
 21 22  1  1  0  0  0
 21 24  1  0  0  0  0
 22 27  1  0  0  0  0
 28 12  1  1  0  0  0
 28 29  1  0  0  0  0
 28 33  1  0  0  0  0
 29 30  1  0  0  0  0
 29 36  1  6  0  0  0
 30 31  1  0  0  0  0
 30 37  1  1  0  0  0
 31 32  1  0  0  0  0
 31 34  1  6  0  0  0
 32 33  1  0  0  0  0
 33 35  1  6  0  0  0
M  END
>  <CHROM.1>
-155.57372706,164.88868006,-152.99886940,-179.50793441,-175.46790884,-57.89567049
39.62611664,3.49605824,8.77302104,1.06258612,0.76694641,-3.09557616

>  <Name>
1yrj_lig

>  <RI>
0

>  <Rbt.Current_Directory>
/home/itssahil/PROJECTS/Mol_Feturizer/New_Systems/rnas/1yrj

>  <Rbt.Executable>
rbdock ($Id: //depot/dev/client3/rdock/2013.1/src/exe/rbdock.cxx#4 $)

>  <Rbt.Library>
libRbt.so (2013.1, Build901 2013/11/27)

>  <Rbt.Parameter_File>
/export/apps/rDock/src/rDock_2013.1_src/data/scripts/dock_solv.prm

>  <Rbt.Receptor>
prm/pocket_docking_3.prm

>  <SCORE>
-26.9659

>  <SCORE.INTER>
-21.3212

>  <SCORE.INTER.CONST>
1

>  <SCORE.INTER.POLAR>
-0.959166

>  <SCORE.INTER.ROT>
6

>  <SCORE.INTER.SOLV>
13.7018

>  <SCORE.INTER.VDW>
-23.1842

>  <SCORE.INTER.norm>
-0.576249

>  <SCORE.INTRA>
-5.66328

>  <SCORE.INTRA.DIHEDRAL>
-9.70912

>  <SCORE.INTRA.DIHEDRAL.0>
15.6389

>  <SCORE.INTRA.POLAR>
0

>  <SCORE.INTRA.POLAR.0>
0

>  <SCORE.INTRA.REPUL>
0.0106292

>  <SCORE.INTRA.REPUL.0>
0

>  <SCORE.INTRA.SOLV>
-0.474051

>  <SCORE.INTRA.SOLV.lig_0>
-90.9181

>  <SCORE.INTRA.VDW>
-0.62484

>  <SCORE.INTRA.VDW.0>
-3.14158

>  <SCORE.INTRA.norm>
-0.153062

>  <SCORE.RESTR>
0.0185758

>  <SCORE.RESTR.CAVITY>
0.0185758

>  <SCORE.RESTR.norm>
0.000502049

>  <SCORE.SYSTEM>
0

>  <SCORE.SYSTEM.CONST>
0

>  <SCORE.SYSTEM.DIHEDRAL>
0

>  <SCORE.SYSTEM.SOLV>
0

>  <SCORE.SYSTEM.norm>
0

>  <SCORE.heavy>
37

>  <SCORE.norm>
-0.728809

>  <RMSD>
10.030

$$$$
1yrj_lig
 OpenBabel11021811423D
libRbt.so/2013.1/901 2013/11/27
 37 40  0  0  0  0  0  0  0  0999 V2000
   39.6426    0.0322    9.4745 C   0  0  1  0  0  0  0  0  0  0  0  0
   38.3497    0.1268    8.6409 C   0  0  1  0  0  0  0  0  0  0  0  0
   38.3346    1.3791    7.7499 C   0  0  0  0  0  0  0  0  0  0  0  0
   38.5593    2.6483    8.6125 C   0  0  1  0  0  0  0  0  0  0  0  0
   39.8855    2.5315    9.3876 C   0  0  1  0  0  0  0  0  0  0  0  0
   40.0970    3.8464   10.2505 C   0  0  1  0  0  0  0  0  0  0  0  0
   40.1281    5.0735    9.3250 C   0  0  1  0  0  0  0  0  0  0  0  0
   38.7972    5.1169    8.5356 C   0  0  2  0  0  0  0  0  0  0  0  0
   41.7134    6.4337   10.7890 C   0  0  0  0  0  0  0  0  0  0  0  0
   38.1311   -1.0799    7.8265 N   0  0  0  0  0  0  0  0  0  0  0  0
   40.3777    6.3123   10.1254 N   0  0  0  0  0  0  0  0  0  0  0  0
   40.7984   -0.3509    8.7060 O   0  0  0  0  0  0  0  0  0  0  0  0
   39.8395    1.3008   10.2028 O   0  0  0  0  0  0  0  0  0  0  0  0
   38.5921    3.8815    7.7934 O   0  0  0  0  0  0  0  0  0  0  0  0
   39.0047    4.0111   11.1304 O   0  0  0  0  0  0  0  0  0  0  0  0
   38.7667    6.1967    7.6015 O   0  0  0  0  0  0  0  0  0  0  0  0
   37.4265    6.6408    7.2853 C   0  0  2  0  0  0  0  0  0  0  0  0
   37.3844    7.7177    6.1888 C   0  0  1  0  0  0  0  0  0  0  0  0
   37.9803    9.0575    6.6969 C   0  0  2  0  0  0  0  0  0  0  0  0
   37.2302    9.5215    7.9244 C   0  0  1  0  0  0  0  0  0  0  0  0
   37.3158    8.4306    9.0181 C   0  0  1  0  0  0  0  0  0  0  0  0
   36.5410    8.7969   10.2820 C   0  0  0  0  0  0  0  0  0  0  0  0
   37.8223   10.7940    8.3864 N   0  0  0  0  0  0  0  0  0  0  0  0
   36.7609    7.1675    8.4996 O   0  0  0  0  0  0  0  0  0  0  0  0
   38.0786    7.2173    5.0370 O   0  0  0  0  0  0  0  0  0  0  0  0
   37.8569   10.0581    5.6769 O   0  0  0  0  0  0  0  0  0  0  0  0
   36.7660    7.8228   11.2661 O   0  0  0  0  0  0  0  0  0  0  0  0
   42.2167   -0.3651    9.2560 C   0  0  1  0  0  0  0  0  0  0  0  0
   42.3666   -1.6533   10.0951 C   0  0  1  0  0  0  0  0  0  0  0  0
   43.8053   -1.7968   10.6479 C   0  0  2  0  0  0  0  0  0  0  0  0
   44.8112   -1.8170    9.4908 C   0  0  1  0  0  0  0  0  0  0  0  0
   44.6974   -0.5126    8.6612 C   0  0  0  0  0  0  0  0  0  0  0  0
   43.2719   -0.3990    8.1109 C   0  0  2  0  0  0  0  0  0  0  0  0
   46.1850   -1.9432   10.0267 N   0  0  0  0  0  0  0  0  0  0  0  0
   43.2103    0.8291    7.3231 N   0  0  0  0  0  0  0  0  0  0  0  0
   41.4477   -1.6004   11.2082 O   0  0  0  0  0  0  0  0  0  0  0  0
   43.8948   -3.0257   11.4006 O   0  0  0  0  0  0  0  0  0  0  0  0
  1  2  1  0  0  0  0
  1 12  1  6  0  0  0
  1 13  1  0  0  0  0
  2  3  1  0  0  0  0
  2 10  1  6  0  0  0
  4  3  1  6  0  0  0
  4  5  1  0  0  0  0
  4 14  1  0  0  0  0
  5  6  1  0  0  0  0
  5 13  1  1  0  0  0
  6  7  1  0  0  0  0
  6 15  1  1  0  0  0
  7  8  1  0  0  0  0
  7 11  1  1  0  0  0
  8 14  1  0  0  0  0
  8 16  1  6  0  0  0
  9 11  1  0  0  0  0
 17 16  1  1  0  0  0
 17 18  1  0  0  0  0
 17 24  1  0  0  0  0
 18 19  1  0  0  0  0
 18 25  1  6  0  0  0
 19 20  1  0  0  0  0
 19 26  1  6  0  0  0
 20 21  1  0  0  0  0
 20 23  1  1  0  0  0
 21 22  1  1  0  0  0
 21 24  1  0  0  0  0
 22 27  1  0  0  0  0
 28 12  1  6  0  0  0
 28 29  1  0  0  0  0
 28 33  1  0  0  0  0
 29 30  1  0  0  0  0
 29 36  1  1  0  0  0
 30 31  1  0  0  0  0
 30 37  1  6  0  0  0
 31 32  1  0  0  0  0
 31 34  1  1  0  0  0
 32 33  1  0  0  0  0
 33 35  1  1  0  0  0
M  END
>  <CHROM.1>
172.93092439,66.09515570,-154.46029173,-174.92027999,-174.61461725,78.75711209
39.92251146,3.50125604,8.89271363,0.99022881,0.52674364,-3.00003987

>  <Name>
1yrj_lig

>  <RI>
0

>  <Rbt.Current_Directory>
/home/itssahil/PROJECTS/Mol_Feturizer/New_Systems/rnas/1yrj

>  <Rbt.Executable>
rbdock ($Id: //depot/dev/client3/rdock/2013.1/src/exe/rbdock.cxx#4 $)

>  <Rbt.Library>
libRbt.so (2013.1, Build901 2013/11/27)

>  <Rbt.Parameter_File>
/export/apps/rDock/src/rDock_2013.1_src/data/scripts/dock_solv.prm

>  <Rbt.Receptor>
prm/pocket_docking_4.prm

>  <SCORE>
-29.2034

>  <SCORE.INTER>
-23.0933

>  <SCORE.INTER.CONST>
1

>  <SCORE.INTER.POLAR>
-1.45778

>  <SCORE.INTER.ROT>
6

>  <SCORE.INTER.SOLV>
15.7586

>  <SCORE.INTER.VDW>
-23.3891

>  <SCORE.INTER.norm>
-0.624144

>  <SCORE.INTRA>
-6.11011

>  <SCORE.INTRA.DIHEDRAL>
-10.6701

>  <SCORE.INTRA.DIHEDRAL.0>
15.6389

>  <SCORE.INTRA.POLAR>
0

>  <SCORE.INTRA.POLAR.0>
0

>  <SCORE.INTRA.REPUL>
0

>  <SCORE.INTRA.REPUL.0>
0

>  <SCORE.INTRA.SOLV>
-2.29748

>  <SCORE.INTRA.SOLV.lig_0>
-90.9181

>  <SCORE.INTRA.VDW>
0.373656

>  <SCORE.INTRA.VDW.0>
-3.14158

>  <SCORE.INTRA.norm>
-0.165138

>  <SCORE.RESTR>
0

>  <SCORE.RESTR.CAVITY>
0

>  <SCORE.RESTR.norm>
0

>  <SCORE.SYSTEM>
0

>  <SCORE.SYSTEM.CONST>
0

>  <SCORE.SYSTEM.DIHEDRAL>
0

>  <SCORE.SYSTEM.SOLV>
0

>  <SCORE.SYSTEM.norm>
0

>  <SCORE.heavy>
37

>  <SCORE.norm>
-0.789282

>  <RMSD>
10.049

$$$$
1yrj_lig
 OpenBabel11021811423D
libRbt.so/2013.1/901 2013/11/27
 37 40  0  0  0  0  0  0  0  0999 V2000
   39.3339    0.1443    9.3906 C   0  0  1  0  0  0  0  0  0  0  0  0
   38.0457    0.2923    8.5575 C   0  0  1  0  0  0  0  0  0  0  0  0
   38.1093    1.5071    7.6179 C   0  0  0  0  0  0  0  0  0  0  0  0
   38.4227    2.7912    8.4294 C   0  0  1  0  0  0  0  0  0  0  0  0
   39.7423    2.6165    9.2048 C   0  0  1  0  0  0  0  0  0  0  0  0
   40.0456    3.9470   10.0147 C   0  0  1  0  0  0  0  0  0  0  0  0
   40.1534    5.1322    9.0416 C   0  0  1  0  0  0  0  0  0  0  0  0
   38.8241    5.2335    8.2547 C   0  0  2  0  0  0  0  0  0  0  0  0
   41.0565    7.5174    8.9995 C   0  0  0  0  0  0  0  0  0  0  0  0
   37.7429   -0.9280    7.7918 N   0  0  0  0  0  0  0  0  0  0  0  0
   40.4893    6.3819    9.7919 N   0  0  0  0  0  0  0  0  0  0  0  0
   40.4575   -0.3448    8.6346 O   0  0  0  0  0  0  0  0  0  0  0  0
   39.6188    1.4244   10.0679 O   0  0  0  0  0  0  0  0  0  0  0  0
   38.5332    3.9865    7.5623 O   0  0  0  0  0  0  0  0  0  0  0  0
   38.9714    4.2185   10.8905 O   0  0  0  0  0  0  0  0  0  0  0  0
   38.8606    6.2756    7.2789 O   0  0  0  0  0  0  0  0  0  0  0  0
   37.5518    6.8000    6.9539 C   0  0  2  0  0  0  0  0  0  0  0  0
   37.5949    7.9721    5.9600 C   0  0  1  0  0  0  0  0  0  0  0  0
   38.2177    9.2356    6.6111 C   0  0  2  0  0  0  0  0  0  0  0  0
   37.4346    9.6168    7.8465 C   0  0  1  0  0  0  0  0  0  0  0  0
   37.4347    8.4293    8.8381 C   0  0  1  0  0  0  0  0  0  0  0  0
   36.6218    8.7109   10.0997 C   0  0  0  0  0  0  0  0  0  0  0  0
   38.0531   10.8177    8.4455 N   0  0  0  0  0  0  0  0  0  0  0  0
   36.8560    7.2413    8.1851 O   0  0  0  0  0  0  0  0  0  0  0  0
   38.3177    7.5500    4.7944 O   0  0  0  0  0  0  0  0  0  0  0  0
   38.1736   10.3283    5.6831 O   0  0  0  0  0  0  0  0  0  0  0  0
   37.1879    9.7948   10.7873 O   0  0  0  0  0  0  0  0  0  0  0  0
   41.6741   -1.0125    9.2580 C   0  0  1  0  0  0  0  0  0  0  0  0
   42.2811   -0.0068   10.2611 C   0  0  1  0  0  0  0  0  0  0  0  0
   43.4935   -0.6194   11.0033 C   0  0  2  0  0  0  0  0  0  0  0  0
   43.0653   -1.8910   11.7455 C   0  0  1  0  0  0  0  0  0  0  0  0
   42.4876   -2.9246   10.7451 C   0  0  0  0  0  0  0  0  0  0  0  0
   41.2803   -2.3040   10.0344 C   0  0  2  0  0  0  0  0  0  0  0  0
   44.2312   -2.4774   12.4435 N   0  0  0  0  0  0  0  0  0  0  0  0
   40.7554   -3.3115    9.1167 N   0  0  0  0  0  0  0  0  0  0  0  0
   42.7236    1.1659    9.5435 O   0  0  0  0  0  0  0  0  0  0  0  0
   44.0041    0.3513   11.9423 O   0  0  0  0  0  0  0  0  0  0  0  0
  1  2  1  0  0  0  0
  1 12  1  6  0  0  0
  1 13  1  0  0  0  0
  2  3  1  0  0  0  0
  2 10  1  6  0  0  0
  4  3  1  6  0  0  0
  4  5  1  0  0  0  0
  4 14  1  0  0  0  0
  5  6  1  0  0  0  0
  5 13  1  1  0  0  0
  6  7  1  0  0  0  0
  6 15  1  1  0  0  0
  7  8  1  0  0  0  0
  7 11  1  1  0  0  0
  8 14  1  0  0  0  0
  8 16  1  6  0  0  0
  9 11  1  0  0  0  0
 17 16  1  1  0  0  0
 17 18  1  0  0  0  0
 17 24  1  0  0  0  0
 18 19  1  0  0  0  0
 18 25  1  6  0  0  0
 19 20  1  0  0  0  0
 19 26  1  6  0  0  0
 20 21  1  0  0  0  0
 20 23  1  1  0  0  0
 21 22  1  1  0  0  0
 21 24  1  0  0  0  0
 22 27  1  0  0  0  0
 28 12  1  1  0  0  0
 28 29  1  0  0  0  0
 28 33  1  0  0  0  0
 29 30  1  0  0  0  0
 29 36  1  6  0  0  0
 30 31  1  0  0  0  0
 30 37  1  1  0  0  0
 31 32  1  0  0  0  0
 31 34  1  6  0  0  0
 32 33  1  0  0  0  0
 33 35  1  6  0  0  0
M  END
>  <CHROM.1>
-158.70108633,160.96363541,-154.18008836,176.92746163,-62.00854163,-58.03389560
39.66365632,3.67606596,8.95793128,1.03848443,0.77644830,-3.00353444

>  <Name>
1yrj_lig

>  <RI>
0

>  <Rbt.Current_Directory>
/home/itssahil/PROJECTS/Mol_Feturizer/New_Systems/rnas/1yrj

>  <Rbt.Executable>
rbdock ($Id: //depot/dev/client3/rdock/2013.1/src/exe/rbdock.cxx#4 $)

>  <Rbt.Library>
libRbt.so (2013.1, Build901 2013/11/27)

>  <Rbt.Parameter_File>
/export/apps/rDock/src/rDock_2013.1_src/data/scripts/dock_solv.prm

>  <Rbt.Receptor>
prm/pocket_docking_4.prm

>  <SCORE>
-27.1302

>  <SCORE.INTER>
-21.6176

>  <SCORE.INTER.CONST>
1

>  <SCORE.INTER.POLAR>
-0.883287

>  <SCORE.INTER.ROT>
6

>  <SCORE.INTER.SOLV>
13.2625

>  <SCORE.INTER.VDW>
-23.4882

>  <SCORE.INTER.norm>
-0.584258

>  <SCORE.INTRA>
-5.51263

>  <SCORE.INTRA.DIHEDRAL>
-10.3879

>  <SCORE.INTRA.DIHEDRAL.0>
15.6389

>  <SCORE.INTRA.POLAR>
0

>  <SCORE.INTRA.POLAR.0>
0

>  <SCORE.INTRA.REPUL>
0

>  <SCORE.INTRA.REPUL.0>
0

>  <SCORE.INTRA.SOLV>
0.13296

>  <SCORE.INTRA.SOLV.lig_0>
-90.9181

>  <SCORE.INTRA.VDW>
-0.385179

>  <SCORE.INTRA.VDW.0>
-3.14158

>  <SCORE.INTRA.norm>
-0.14899

>  <SCORE.RESTR>
0

>  <SCORE.RESTR.CAVITY>
0

>  <SCORE.RESTR.norm>
0

>  <SCORE.SYSTEM>
0

>  <SCORE.SYSTEM.CONST>
0

>  <SCORE.SYSTEM.DIHEDRAL>
0

>  <SCORE.SYSTEM.SOLV>
0

>  <SCORE.SYSTEM.norm>
0

>  <SCORE.heavy>
37

>  <SCORE.norm>
-0.733248

>  <RMSD>
10.056

$$$$
1yrj_lig
 OpenBabel11021811423D
libRbt.so/2013.1/901 2013/11/27
 37 40  0  0  0  0  0  0  0  0999 V2000
   39.8077    0.5725    9.4509 C   0  0  1  0  0  0  0  0  0  0  0  0
   38.4860    0.3207    8.6991 C   0  0  1  0  0  0  0  0  0  0  0  0
   38.2525    1.3593    7.5904 C   0  0  0  0  0  0  0  0  0  0  0  0
   38.3164    2.7918    8.1816 C   0  0  1  0  0  0  0  0  0  0  0  0
   39.6721    3.0152    8.8781 C   0  0  1  0  0  0  0  0  0  0  0  0
   39.7162    4.4902    9.4617 C   0  0  1  0  0  0  0  0  0  0  0  0
   39.5307    5.5040    8.3210 C   0  0  1  0  0  0  0  0  0  0  0  0
   38.1807    5.2059    7.6247 C   0  0  2  0  0  0  0  0  0  0  0  0
   40.9536    7.3409    9.3736 C   0  0  0  0  0  0  0  0  0  0  0  0
   38.4207   -1.0408    8.1431 N   0  0  0  0  0  0  0  0  0  0  0  0
   39.6215    6.8982    8.8553 N   0  0  0  0  0  0  0  0  0  0  0  0
   40.9793    0.2109    8.6961 O   0  0  0  0  0  0  0  0  0  0  0  0
   39.8394    1.9742    9.9124 O   0  0  0  0  0  0  0  0  0  0  0  0
   38.1355    3.8326    7.1439 O   0  0  0  0  0  0  0  0  0  0  0  0
   38.6438    4.6706   10.3629 O   0  0  0  0  0  0  0  0  0  0  0  0
   37.9561    6.0664    6.5073 O   0  0  0  0  0  0  0  0  0  0  0  0
   37.7568    7.4496    6.8825 C   0  0  2  0  0  0  0  0  0  0  0  0
   36.8352    8.2153    5.9192 C   0  0  1  0  0  0  0  0  0  0  0  0
   37.5160    8.4241    4.5403 C   0  0  2  0  0  0  0  0  0  0  0  0
   38.8246    9.1594    4.7187 C   0  0  1  0  0  0  0  0  0  0  0  0
   39.7398    8.3504    5.6681 C   0  0  1  0  0  0  0  0  0  0  0  0
   41.0706    9.0467    5.9438 C   0  0  0  0  0  0  0  0  0  0  0  0
   39.4499    9.3386    3.3920 N   0  0  0  0  0  0  0  0  0  0  0  0
   39.0587    8.1525    6.9601 O   0  0  0  0  0  0  0  0  0  0  0  0
   35.5980    7.4966    5.8102 O   0  0  0  0  0  0  0  0  0  0  0  0
   36.6614    9.2047    3.6935 O   0  0  0  0  0  0  0  0  0  0  0  0
   41.9203    8.1718    6.6368 O   0  0  0  0  0  0  0  0  0  0  0  0
   42.3912    0.2235    9.2625 C   0  0  1  0  0  0  0  0  0  0  0  0
   42.6164   -1.1392    9.9542 C   0  0  1  0  0  0  0  0  0  0  0  0
   44.0569   -1.2538   10.5091 C   0  0  2  0  0  0  0  0  0  0  0  0
   45.0713   -1.0802    9.3725 C   0  0  1  0  0  0  0  0  0  0  0  0
   44.8809    0.2998    8.6926 C   0  0  0  0  0  0  0  0  0  0  0  0
   43.4555    0.3852    8.1370 C   0  0  2  0  0  0  0  0  0  0  0  0
   46.4460   -1.1798    9.9116 N   0  0  0  0  0  0  0  0  0  0  0  0
   43.3219    1.6881    7.4910 N   0  0  0  0  0  0  0  0  0  0  0  0
   41.6871   -1.2698   11.0520 O   0  0  0  0  0  0  0  0  0  0  0  0
   44.2187   -2.5517   11.1206 O   0  0  0  0  0  0  0  0  0  0  0  0
  1  2  1  0  0  0  0
  1 12  1  6  0  0  0
  1 13  1  0  0  0  0
  2  3  1  0  0  0  0
  2 10  1  6  0  0  0
  4  3  1  6  0  0  0
  4  5  1  0  0  0  0
  4 14  1  0  0  0  0
  5  6  1  0  0  0  0
  5 13  1  1  0  0  0
  6  7  1  0  0  0  0
  6 15  1  1  0  0  0
  7  8  1  0  0  0  0
  7 11  1  1  0  0  0
  8 14  1  0  0  0  0
  8 16  1  6  0  0  0
  9 11  1  0  0  0  0
 17 16  1  6  0  0  0
 17 18  1  0  0  0  0
 17 24  1  0  0  0  0
 18 19  1  0  0  0  0
 18 25  1  6  0  0  0
 19 20  1  0  0  0  0
 19 26  1  6  0  0  0
 20 21  1  0  0  0  0
 20 23  1  6  0  0  0
 21 22  1  1  0  0  0
 21 24  1  0  0  0  0
 22 27  1  0  0  0  0
 28 12  1  6  0  0  0
 28 29  1  0  0  0  0
 28 33  1  0  0  0  0
 29 30  1  0  0  0  0
 29 36  1  1  0  0  0
 30 31  1  0  0  0  0
 30 37  1  6  0  0  0
 31 32  1  0  0  0  0
 31 34  1  1  0  0  0
 32 33  1  0  0  0  0
 33 35  1  1  0  0  0
M  END
>  <CHROM.1>
-173.31961875,67.19995053,-67.37191903,-149.68337007,-171.04986195,85.73738282
40.22091930,3.82336549,7.91944079,1.12341412,0.05126036,2.74618550

>  <Name>
1yrj_lig

>  <RI>
0

>  <Rbt.Current_Directory>
/home/itssahil/PROJECTS/Mol_Feturizer/New_Systems/rnas/1yrj

>  <Rbt.Executable>
rbdock ($Id: //depot/dev/client3/rdock/2013.1/src/exe/rbdock.cxx#4 $)

>  <Rbt.Library>
libRbt.so (2013.1, Build901 2013/11/27)

>  <Rbt.Parameter_File>
/export/apps/rDock/src/rDock_2013.1_src/data/scripts/dock_solv.prm

>  <Rbt.Receptor>
prm/pocket_docking_5.prm

>  <SCORE>
-30.8963

>  <SCORE.INTER>
-29.0151

>  <SCORE.INTER.CONST>
1

>  <SCORE.INTER.POLAR>
-3.45532

>  <SCORE.INTER.ROT>
6

>  <SCORE.INTER.SOLV>
17.6185

>  <SCORE.INTER.VDW>
-21.2985

>  <SCORE.INTER.norm>
-0.784192

>  <SCORE.INTRA>
-1.88124

>  <SCORE.INTRA.DIHEDRAL>
-8.27753

>  <SCORE.INTRA.DIHEDRAL.0>
15.6389

>  <SCORE.INTRA.POLAR>
0

>  <SCORE.INTRA.POLAR.0>
0

>  <SCORE.INTRA.REPUL>
0.00525158

>  <SCORE.INTRA.REPUL.0>
0

>  <SCORE.INTRA.SOLV>
-0.151018

>  <SCORE.INTRA.SOLV.lig_0>
-90.9181

>  <SCORE.INTRA.VDW>
2.30677

>  <SCORE.INTRA.VDW.0>
-3.14158

>  <SCORE.INTRA.norm>
-0.0508444

>  <SCORE.RESTR>
0

>  <SCORE.RESTR.CAVITY>
0

>  <SCORE.RESTR.norm>
0

>  <SCORE.SYSTEM>
0

>  <SCORE.SYSTEM.CONST>
0

>  <SCORE.SYSTEM.DIHEDRAL>
0

>  <SCORE.SYSTEM.SOLV>
0

>  <SCORE.SYSTEM.norm>
0

>  <SCORE.heavy>
37

>  <SCORE.norm>
-0.835036

>  <RMSD>
10.060

$$$$
1yrj_lig
 OpenBabel11021811423D
libRbt.so/2013.1/901 2013/11/27
 37 40  0  0  0  0  0  0  0  0999 V2000
   37.9815    6.2119    9.8342 C   0  0  1  0  0  0  0  0  0  0  0  0
   38.0651    5.2665    8.6198 C   0  0  1  0  0  0  0  0  0  0  0  0
   39.1446    5.7134    7.6211 C   0  0  0  0  0  0  0  0  0  0  0  0
   38.8967    7.1832    7.1923 C   0  0  1  0  0  0  0  0  0  0  0  0
   38.8714    8.0973    8.4320 C   0  0  1  0  0  0  0  0  0  0  0  0
   38.6297    9.5945    7.9649 C   0  0  1  0  0  0  0  0  0  0  0  0
   39.7532   10.0263    7.0084 C   0  0  1  0  0  0  0  0  0  0  0  0
   39.7673    9.0491    5.8079 C   0  0  2  0  0  0  0  0  0  0  0  0
   40.2432   12.4930    7.4346 C   0  0  0  0  0  0  0  0  0  0  0  0
   38.2936    3.8699    9.0252 N   0  0  0  0  0  0  0  0  0  0  0  0
   39.5603   11.4531    6.6031 N   0  0  0  0  0  0  0  0  0  0  0  0
   39.0741    6.0610   10.7598 O   0  0  0  0  0  0  0  0  0  0  0  0
   37.8309    7.5996    9.3544 O   0  0  0  0  0  0  0  0  0  0  0  0
   39.9347    7.6748    6.2577 O   0  0  0  0  0  0  0  0  0  0  0  0
   37.4149    9.6725    7.2489 O   0  0  0  0  0  0  0  0  0  0  0  0
   40.8266    9.3412    4.8956 O   0  0  0  0  0  0  0  0  0  0  0  0
   40.7504    8.5782    3.6686 C   0  0  2  0  0  0  0  0  0  0  0  0
   41.3680    9.3028    2.4615 C   0  0  1  0  0  0  0  0  0  0  0  0
   40.5134   10.5304    2.0480 C   0  0  2  0  0  0  0  0  0  0  0  0
   39.1005   10.0924    1.7372 C   0  0  1  0  0  0  0  0  0  0  0  0
   38.4972    9.3943    2.9790 C   0  0  1  0  0  0  0  0  0  0  0  0
   37.0819    8.8742    2.7370 C   0  0  0  0  0  0  0  0  0  0  0  0
   38.3118   11.2811    1.3522 N   0  0  0  0  0  0  0  0  0  0  0  0
   39.3404    8.2463    3.3579 O   0  0  0  0  0  0  0  0  0  0  0  0
   42.7156    9.6669    2.7939 O   0  0  0  0  0  0  0  0  0  0  0  0
   41.0753   11.1370    0.8762 O   0  0  0  0  0  0  0  0  0  0  0  0
   37.1044    7.9220    1.7072 O   0  0  0  0  0  0  0  0  0  0  0  0
   39.0610    6.5977   12.1832 C   0  0  1  0  0  0  0  0  0  0  0  0
   40.2026    7.6329   12.2898 C   0  0  1  0  0  0  0  0  0  0  0  0
   40.2318    8.2914   13.6904 C   0  0  2  0  0  0  0  0  0  0  0  0
   38.8894    8.9751   13.9757 C   0  0  1  0  0  0  0  0  0  0  0  0
   37.7376    7.9400   13.9083 C   0  0  0  0  0  0  0  0  0  0  0  0
   37.7168    7.3131   12.5103 C   0  0  2  0  0  0  0  0  0  0  0  0
   38.9203    9.5928   15.3203 N   0  0  0  0  0  0  0  0  0  0  0  0
   36.6107    6.3599   12.4815 N   0  0  0  0  0  0  0  0  0  0  0  0
   41.4648    6.9674   12.0663 O   0  0  0  0  0  0  0  0  0  0  0  0
   41.2981    9.2642   13.7257 O   0  0  0  0  0  0  0  0  0  0  0  0
  1  2  1  0  0  0  0
  1 12  1  6  0  0  0
  1 13  1  0  0  0  0
  2  3  1  0  0  0  0
  2 10  1  1  0  0  0
  4  3  1  1  0  0  0
  4  5  1  0  0  0  0
  4 14  1  0  0  0  0
  5  6  1  0  0  0  0
  5 13  1  1  0  0  0
  6  7  1  0  0  0  0
  6 15  1  6  0  0  0
  7  8  1  0  0  0  0
  7 11  1  6  0  0  0
  8 14  1  0  0  0  0
  8 16  1  6  0  0  0
  9 11  1  0  0  0  0
 17 16  1  1  0  0  0
 17 18  1  0  0  0  0
 17 24  1  0  0  0  0
 18 19  1  0  0  0  0
 18 25  1  1  0  0  0
 19 20  1  0  0  0  0
 19 26  1  6  0  0  0
 20 21  1  0  0  0  0
 20 23  1  1  0  0  0
 21 22  1  6  0  0  0
 21 24  1  0  0  0  0
 22 27  1  0  0  0  0
 28 12  1  6  0  0  0
 28 29  1  0  0  0  0
 28 33  1  0  0  0  0
 29 30  1  0  0  0  0
 29 36  1  1  0  0  0
 30 31  1  0  0  0  0
 30 37  1  6  0  0  0
 31 32  1  0  0  0  0
 31 34  1  1  0  0  0
 32 33  1  0  0  0  0
 33 35  1  1  0  0  0
M  END
>  <CHROM.1>
-163.88146933,91.89420933,-171.36537543,151.23711756,61.24117403,-117.85902397
39.27467909,8.47944043,7.57308538,1.69916458,1.02494930,1.67242189

>  <Name>
1yrj_lig

>  <RI>
0

>  <Rbt.Current_Directory>
/home/itssahil/PROJECTS/Mol_Feturizer/New_Systems/rnas/1yrj

>  <Rbt.Executable>
rbdock ($Id: //depot/dev/client3/rdock/2013.1/src/exe/rbdock.cxx#4 $)

>  <Rbt.Library>
libRbt.so (2013.1, Build901 2013/11/27)

>  <Rbt.Parameter_File>
/export/apps/rDock/src/rDock_2013.1_src/data/scripts/dock_solv.prm

>  <Rbt.Receptor>
prm/pocket_docking_7.prm

>  <SCORE>
-19.4748

>  <SCORE.INTER>
-19.1777

>  <SCORE.INTER.CONST>
1

>  <SCORE.INTER.POLAR>
-2.98103

>  <SCORE.INTER.ROT>
6

>  <SCORE.INTER.SOLV>
19.1863

>  <SCORE.INTER.VDW>
-16.8438

>  <SCORE.INTER.norm>
-0.518317

>  <SCORE.INTRA>
-0.297063

>  <SCORE.INTRA.DIHEDRAL>
-2.80235

>  <SCORE.INTRA.DIHEDRAL.0>
15.6389

>  <SCORE.INTRA.POLAR>
0

>  <SCORE.INTRA.POLAR.0>
0

>  <SCORE.INTRA.REPUL>
0

>  <SCORE.INTRA.REPUL.0>
0

>  <SCORE.INTRA.SOLV>
-0.636804

>  <SCORE.INTRA.SOLV.lig_0>
-90.9181

>  <SCORE.INTRA.VDW>
1.42251

>  <SCORE.INTRA.VDW.0>
-3.14158

>  <SCORE.INTRA.norm>
-0.00802874

>  <SCORE.RESTR>
0

>  <SCORE.RESTR.CAVITY>
0

>  <SCORE.RESTR.norm>
0

>  <SCORE.SYSTEM>
0

>  <SCORE.SYSTEM.CONST>
0

>  <SCORE.SYSTEM.DIHEDRAL>
0

>  <SCORE.SYSTEM.SOLV>
0

>  <SCORE.SYSTEM.norm>
0

>  <SCORE.heavy>
37

>  <SCORE.norm>
-0.526346

>  <RMSD>
10.060

$$$$
1yrj_lig
 OpenBabel11021811423D
libRbt.so/2013.1/901 2013/11/27
 37 40  0  0  0  0  0  0  0  0999 V2000
   39.6743    0.0923    9.4483 C   0  0  1  0  0  0  0  0  0  0  0  0
   38.3739    0.1590    8.6237 C   0  0  1  0  0  0  0  0  0  0  0  0
   38.3499    1.3815    7.6925 C   0  0  0  0  0  0  0  0  0  0  0  0
   38.5813    2.6784    8.5112 C   0  0  1  0  0  0  0  0  0  0  0  0
   39.9144    2.5876    9.2777 C   0  0  1  0  0  0  0  0  0  0  0  0
   40.1327    3.9300   10.0953 C   0  0  1  0  0  0  0  0  0  0  0  0
   40.1546    5.1263    9.1300 C   0  0  1  0  0  0  0  0  0  0  0  0
   38.8166    5.1432    8.3516 C   0  0  2  0  0  0  0  0  0  0  0  0
   41.6851    6.4685   10.6671 C   0  0  0  0  0  0  0  0  0  0  0  0
   38.1490   -1.0738    7.8513 N   0  0  0  0  0  0  0  0  0  0  0  0
   40.4104    6.3907    9.8872 N   0  0  0  0  0  0  0  0  0  0  0  0
   40.8235   -0.3151    8.6824 O   0  0  0  0  0  0  0  0  0  0  0  0
   39.8768    1.3842   10.1331 O   0  0  0  0  0  0  0  0  0  0  0  0
   38.6058    3.8841    7.6520 O   0  0  0  0  0  0  0  0  0  0  0  0
   39.0482    4.1229   10.9791 O   0  0  0  0  0  0  0  0  0  0  0  0
   38.7769    6.1919    7.3830 O   0  0  0  0  0  0  0  0  0  0  0  0
   37.4387    6.6736    7.1170 C   0  0  2  0  0  0  0  0  0  0  0  0
   37.3884    7.7684    6.0388 C   0  0  1  0  0  0  0  0  0  0  0  0
   38.0334    9.0851    6.5475 C   0  0  2  0  0  0  0  0  0  0  0  0
   37.3347    9.5476    7.8055 C   0  0  1  0  0  0  0  0  0  0  0  0
   37.4281    8.4378    8.8793 C   0  0  1  0  0  0  0  0  0  0  0  0
   36.7034    8.8028   10.1729 C   0  0  0  0  0  0  0  0  0  0  0  0
   37.9727   10.7979    8.2672 N   0  0  0  0  0  0  0  0  0  0  0  0
   36.8256    7.1970    8.3600 O   0  0  0  0  0  0  0  0  0  0  0  0
   38.0328    7.2695    4.8577 O   0  0  0  0  0  0  0  0  0  0  0  0
   37.9024   10.1044    5.5471 O   0  0  0  0  0  0  0  0  0  0  0  0
   36.7971    7.7347   11.0776 O   0  0  0  0  0  0  0  0  0  0  0  0
   42.2399   -0.3596    9.2357 C   0  0  1  0  0  0  0  0  0  0  0  0
   42.3532   -1.6388   10.0941 C   0  0  1  0  0  0  0  0  0  0  0  0
   43.7865   -1.8131   10.6521 C   0  0  2  0  0  0  0  0  0  0  0  0
   44.7936   -1.8778    9.4977 C   0  0  1  0  0  0  0  0  0  0  0  0
   44.7167   -0.5832    8.6486 C   0  0  0  0  0  0  0  0  0  0  0  0
   43.2958   -0.4392    8.0936 C   0  0  2  0  0  0  0  0  0  0  0  0
   46.1625   -2.0332   10.0384 N   0  0  0  0  0  0  0  0  0  0  0  0
   43.2691    0.7784    7.2876 N   0  0  0  0  0  0  0  0  0  0  0  0
   41.4341   -1.5445   11.2042 O   0  0  0  0  0  0  0  0  0  0  0  0
   43.8412   -3.0327   11.4231 O   0  0  0  0  0  0  0  0  0  0  0  0
  1  2  1  0  0  0  0
  1 12  1  6  0  0  0
  1 13  1  0  0  0  0
  2  3  1  0  0  0  0
  2 10  1  6  0  0  0
  4  3  1  6  0  0  0
  4  5  1  0  0  0  0
  4 14  1  0  0  0  0
  5  6  1  0  0  0  0
  5 13  1  1  0  0  0
  6  7  1  0  0  0  0
  6 15  1  1  0  0  0
  7  8  1  0  0  0  0
  7 11  1  1  0  0  0
  8 14  1  0  0  0  0
  8 16  1  6  0  0  0
  9 11  1  0  0  0  0
 17 16  1  1  0  0  0
 17 18  1  0  0  0  0
 17 24  1  0  0  0  0
 18 19  1  0  0  0  0
 18 25  1  6  0  0  0
 19 20  1  0  0  0  0
 19 26  1  6  0  0  0
 20 21  1  0  0  0  0
 20 23  1  1  0  0  0
 21 22  1  1  0  0  0
 21 24  1  0  0  0  0
 22 27  1  0  0  0  0
 28 12  1  6  0  0  0
 28 29  1  0  0  0  0
 28 33  1  0  0  0  0
 29 30  1  0  0  0  0
 29 36  1  1  0  0  0
 30 31  1  0  0  0  0
 30 37  1  6  0  0  0
 31 32  1  0  0  0  0
 31 34  1  1  0  0  0
 32 33  1  0  0  0  0
 33 35  1  1  0  0  0
M  END
>  <CHROM.1>
175.28762090,59.10985274,-151.36430522,-177.97973309,178.16439912,77.83064341
39.94982573,3.51852378,8.79931718,0.99751091,0.53154839,-3.01791808

>  <Name>
1yrj_lig

>  <RI>
0

>  <Rbt.Current_Directory>
/home/itssahil/PROJECTS/Mol_Feturizer/New_Systems/rnas/1yrj

>  <Rbt.Executable>
rbdock ($Id: //depot/dev/client3/rdock/2013.1/src/exe/rbdock.cxx#4 $)

>  <Rbt.Library>
libRbt.so (2013.1, Build901 2013/11/27)

>  <Rbt.Parameter_File>
/export/apps/rDock/src/rDock_2013.1_src/data/scripts/dock_solv.prm

>  <Rbt.Receptor>
prm/pocket_docking_8.prm

>  <SCORE>
-29.2291

>  <SCORE.INTER>
-23.4951

>  <SCORE.INTER.CONST>
1

>  <SCORE.INTER.POLAR>
-1.60356

>  <SCORE.INTER.ROT>
6

>  <SCORE.INTER.SOLV>
15.2259

>  <SCORE.INTER.VDW>
-22.9935

>  <SCORE.INTER.norm>
-0.635003

>  <SCORE.INTRA>
-5.73404

>  <SCORE.INTRA.DIHEDRAL>
-10.6013

>  <SCORE.INTRA.DIHEDRAL.0>
15.6389

>  <SCORE.INTRA.POLAR>
0

>  <SCORE.INTRA.POLAR.0>
0

>  <SCORE.INTRA.REPUL>
0.005368

>  <SCORE.INTRA.REPUL.0>
0

>  <SCORE.INTRA.SOLV>
-2.16664

>  <SCORE.INTRA.SOLV.lig_0>
-90.9181

>  <SCORE.INTRA.VDW>
0.623071

>  <SCORE.INTRA.VDW.0>
-3.14158

>  <SCORE.INTRA.norm>
-0.154974

>  <SCORE.RESTR>
0

>  <SCORE.RESTR.CAVITY>
0

>  <SCORE.RESTR.norm>
0

>  <SCORE.SYSTEM>
0

>  <SCORE.SYSTEM.CONST>
0

>  <SCORE.SYSTEM.DIHEDRAL>
0

>  <SCORE.SYSTEM.SOLV>
0

>  <SCORE.SYSTEM.norm>
0

>  <SCORE.heavy>
37

>  <SCORE.norm>
-0.789977

>  <RMSD>
10.060

$$$$
1yrj_lig
 OpenBabel11021811423D
libRbt.so/2013.1/901 2013/11/27
 37 40  0  0  0  0  0  0  0  0999 V2000
   39.3220   -0.1888    9.4729 C   0  0  1  0  0  0  0  0  0  0  0  0
   38.1579    0.0767    8.4983 C   0  0  1  0  0  0  0  0  0  0  0  0
   38.4179    1.3112    7.6204 C   0  0  0  0  0  0  0  0  0  0  0  0
   38.7168    2.5446    8.5122 C   0  0  1  0  0  0  0  0  0  0  0  0
   39.9171    2.2520    9.4323 C   0  0  1  0  0  0  0  0  0  0  0  0
   40.2092    3.5323   10.3231 C   0  0  1  0  0  0  0  0  0  0  0  0
   40.5151    4.7353    9.4161 C   0  0  1  0  0  0  0  0  0  0  0  0
   39.3015    4.9556    8.4807 C   0  0  2  0  0  0  0  0  0  0  0  0
   39.6896    6.6753   10.8518 C   0  0  0  0  0  0  0  0  0  0  0  0
   37.8684   -1.0952    7.6557 N   0  0  0  0  0  0  0  0  0  0  0  0
   40.8412    5.9344   10.2486 N   0  0  0  0  0  0  0  0  0  0  0  0
   40.4934   -0.7348    8.8383 O   0  0  0  0  0  0  0  0  0  0  0  0
   39.6087    1.0466   10.2281 O   0  0  0  0  0  0  0  0  0  0  0  0
   39.0130    3.7542    7.7111 O   0  0  0  0  0  0  0  0  0  0  0  0
   39.0574    3.8543   11.0742 O   0  0  0  0  0  0  0  0  0  0  0  0
   39.5273    6.0212    7.5570 O   0  0  0  0  0  0  0  0  0  0  0  0
   38.3120    6.6951    7.1541 C   0  0  2  0  0  0  0  0  0  0  0  0
   37.8184    6.2787    5.7589 C   0  0  1  0  0  0  0  0  0  0  0  0
   38.7727    6.7963    4.6499 C   0  0  2  0  0  0  0  0  0  0  0  0
   38.8992    8.2998    4.7405 C   0  0  1  0  0  0  0  0  0  0  0  0
   39.4251    8.6847    6.1435 C   0  0  1  0  0  0  0  0  0  0  0  0
   39.5380   10.1948    6.3401 C   0  0  0  0  0  0  0  0  0  0  0  0
   39.8156    8.7612    3.6772 N   0  0  0  0  0  0  0  0  0  0  0  0
   38.5092    8.1633    7.1739 O   0  0  0  0  0  0  0  0  0  0  0  0
   37.6829    4.8504    5.7351 O   0  0  0  0  0  0  0  0  0  0  0  0
   38.2442    6.4558    3.3609 O   0  0  0  0  0  0  0  0  0  0  0  0
   38.2973   10.7937    6.0759 O   0  0  0  0  0  0  0  0  0  0  0  0
   41.8566   -0.8264    9.5074 C   0  0  1  0  0  0  0  0  0  0  0  0
   41.8944   -2.1622   10.2822 C   0  0  1  0  0  0  0  0  0  0  0  0
   43.2739   -2.3837   10.9486 C   0  0  2  0  0  0  0  0  0  0  0  0
   44.3772   -2.3754    9.8838 C   0  0  1  0  0  0  0  0  0  0  0  0
   44.3749   -1.0252    9.1225 C   0  0  0  0  0  0  0  0  0  0  0  0
   43.0074   -0.8342    8.4580 C   0  0  2  0  0  0  0  0  0  0  0  0
   45.6940   -2.5765   10.5287 N   0  0  0  0  0  0  0  0  0  0  0  0
   43.0512    0.4360    7.7386 N   0  0  0  0  0  0  0  0  0  0  0  0
   40.8826   -2.1383   11.3126 O   0  0  0  0  0  0  0  0  0  0  0  0
   43.2611   -3.6536   11.6355 O   0  0  0  0  0  0  0  0  0  0  0  0
  1  2  1  0  0  0  0
  1 12  1  6  0  0  0
  1 13  1  0  0  0  0
  2  3  1  0  0  0  0
  2 10  1  6  0  0  0
  4  3  1  6  0  0  0
  4  5  1  0  0  0  0
  4 14  1  0  0  0  0
  5  6  1  0  0  0  0
  5 13  1  1  0  0  0
  6  7  1  0  0  0  0
  6 15  1  6  0  0  0
  7  8  1  0  0  0  0
  7 11  1  1  0  0  0
  8 14  1  0  0  0  0
  8 16  1  6  0  0  0
  9 11  1  0  0  0  0
 17 16  1  6  0  0  0
 17 18  1  0  0  0  0
 17 24  1  0  0  0  0
 18 19  1  0  0  0  0
 18 25  1  1  0  0  0
 19 20  1  0  0  0  0
 19 26  1  6  0  0  0
 20 21  1  0  0  0  0
 20 23  1  6  0  0  0
 21 22  1  6  0  0  0
 21 24  1  0  0  0  0
 22 27  1  0  0  0  0
 28 12  1  6  0  0  0
 28 29  1  0  0  0  0
 28 33  1  0  0  0  0
 29 30  1  0  0  0  0
 29 36  1  1  0  0  0
 30 31  1  0  0  0  0
 30 37  1  6  0  0  0
 31 32  1  0  0  0  0
 31 34  1  1  0  0  0
 32 33  1  0  0  0  0
 33 35  1  1  0  0  0
M  END
>  <CHROM.1>
167.26951295,-79.07095302,-151.02758915,-102.16035180,55.33928981,87.28112287
40.17591818,3.09343616,8.27619528,1.04498440,0.86741232,-3.12123463

>  <Name>
1yrj_lig

>  <RI>
0

>  <Rbt.Current_Directory>
/home/itssahil/PROJECTS/Mol_Feturizer/New_Systems/rnas/1yrj

>  <Rbt.Executable>
rbdock ($Id: //depot/dev/client3/rdock/2013.1/src/exe/rbdock.cxx#4 $)

>  <Rbt.Library>
libRbt.so (2013.1, Build901 2013/11/27)

>  <Rbt.Parameter_File>
/export/apps/rDock/src/rDock_2013.1_src/data/scripts/dock_solv.prm

>  <Rbt.Receptor>
prm/pocket_docking_3.prm

>  <SCORE>
-17.4836

>  <SCORE.INTER>
-17.4889

>  <SCORE.INTER.CONST>
1

>  <SCORE.INTER.POLAR>
-1.1733

>  <SCORE.INTER.ROT>
6

>  <SCORE.INTER.SOLV>
12.5723

>  <SCORE.INTER.VDW>
-19.5391

>  <SCORE.INTER.norm>
-0.472674

>  <SCORE.INTRA>
0.00535843

>  <SCORE.INTRA.DIHEDRAL>
-2.23066

>  <SCORE.INTRA.DIHEDRAL.0>
15.6389

>  <SCORE.INTRA.POLAR>
0

>  <SCORE.INTRA.POLAR.0>
0

>  <SCORE.INTRA.REPUL>
0

>  <SCORE.INTRA.REPUL.0>
0

>  <SCORE.INTRA.SOLV>
-1.12086

>  <SCORE.INTRA.SOLV.lig_0>
-90.9181

>  <SCORE.INTRA.VDW>
1.68112

>  <SCORE.INTRA.VDW.0>
-3.14158

>  <SCORE.INTRA.norm>
0.000144823

>  <SCORE.RESTR>
0

>  <SCORE.RESTR.CAVITY>
0

>  <SCORE.RESTR.norm>
0

>  <SCORE.SYSTEM>
0

>  <SCORE.SYSTEM.CONST>
0

>  <SCORE.SYSTEM.DIHEDRAL>
0

>  <SCORE.SYSTEM.SOLV>
0

>  <SCORE.SYSTEM.norm>
0

>  <SCORE.heavy>
37

>  <SCORE.norm>
-0.472529

>  <RMSD>
10.061

$$$$
1yrj_lig
 OpenBabel11021811423D
libRbt.so/2013.1/901 2013/11/27
 37 40  0  0  0  0  0  0  0  0999 V2000
   39.6390    0.1560    9.4641 C   0  0  1  0  0  0  0  0  0  0  0  0
   38.3261    0.2014    8.6581 C   0  0  1  0  0  0  0  0  0  0  0  0
   38.2901    1.3958    7.6914 C   0  0  0  0  0  0  0  0  0  0  0  0
   38.5368    2.7158    8.4676 C   0  0  1  0  0  0  0  0  0  0  0  0
   39.8814    2.6446    9.2159 C   0  0  1  0  0  0  0  0  0  0  0  0
   40.1150    4.0101    9.9897 C   0  0  1  0  0  0  0  0  0  0  0  0
   40.1243    5.1772    8.9891 C   0  0  1  0  0  0  0  0  0  0  0  0
   38.7745    5.1742    8.2312 C   0  0  2  0  0  0  0  0  0  0  0  0
   40.9973    7.5723    8.9017 C   0  0  0  0  0  0  0  0  0  0  0  0
   38.0868   -1.0532    7.9261 N   0  0  0  0  0  0  0  0  0  0  0  0
   40.3943    6.4628    9.7044 N   0  0  0  0  0  0  0  0  0  0  0  0
   40.7753   -0.2767    8.6931 O   0  0  0  0  0  0  0  0  0  0  0  0
   39.8546    1.4671   10.1070 O   0  0  0  0  0  0  0  0  0  0  0  0
   38.5504    3.8955    7.5727 O   0  0  0  0  0  0  0  0  0  0  0  0
   39.0447    4.2317   10.8841 O   0  0  0  0  0  0  0  0  0  0  0  0
   38.7219    6.1939    7.2327 O   0  0  0  0  0  0  0  0  0  0  0  0
   37.3846    6.6928    6.9955 C   0  0  2  0  0  0  0  0  0  0  0  0
   37.3288    7.8068    5.9375 C   0  0  1  0  0  0  0  0  0  0  0  0
   37.9941    9.1082    6.4592 C   0  0  2  0  0  0  0  0  0  0  0  0
   37.3189    9.5551    7.7356 C   0  0  1  0  0  0  0  0  0  0  0  0
   37.4176    8.4258    8.7883 C   0  0  1  0  0  0  0  0  0  0  0  0
   36.7160    8.7748   10.0989 C   0  0  0  0  0  0  0  0  0  0  0  0
   37.9759   10.7910    8.2093 N   0  0  0  0  0  0  0  0  0  0  0  0
   36.7953    7.2000    8.2566 O   0  0  0  0  0  0  0  0  0  0  0  0
   37.9505    7.3227    4.7382 O   0  0  0  0  0  0  0  0  0  0  0  0
   37.8580   10.1462    5.4789 O   0  0  0  0  0  0  0  0  0  0  0  0
   37.0264    7.8074   11.0663 O   0  0  0  0  0  0  0  0  0  0  0  0
   42.1968   -0.3293    9.2325 C   0  0  1  0  0  0  0  0  0  0  0  0
   42.3276   -1.6372   10.0439 C   0  0  1  0  0  0  0  0  0  0  0  0
   43.7670   -1.8196   10.5832 C   0  0  2  0  0  0  0  0  0  0  0  0
   44.7646   -1.8348    9.4189 C   0  0  1  0  0  0  0  0  0  0  0  0
   44.6702   -0.5116    8.6171 C   0  0  0  0  0  0  0  0  0  0  0  0
   43.2434   -0.3595    8.0795 C   0  0  2  0  0  0  0  0  0  0  0  0
   46.1393   -1.9982    9.9423 N   0  0  0  0  0  0  0  0  0  0  0  0
   43.2001    0.8857    7.3176 N   0  0  0  0  0  0  0  0  0  0  0  0
   41.4174   -1.5900   11.1643 O   0  0  0  0  0  0  0  0  0  0  0  0
   43.8381   -3.0652   11.3098 O   0  0  0  0  0  0  0  0  0  0  0  0
  1  2  1  0  0  0  0
  1 12  1  6  0  0  0
  1 13  1  0  0  0  0
  2  3  1  0  0  0  0
  2 10  1  6  0  0  0
  4  3  1  6  0  0  0
  4  5  1  0  0  0  0
  4 14  1  0  0  0  0
  5  6  1  0  0  0  0
  5 13  1  1  0  0  0
  6  7  1  0  0  0  0
  6 15  1  1  0  0  0
  7  8  1  0  0  0  0
  7 11  1  1  0  0  0
  8 14  1  0  0  0  0
  8 16  1  6  0  0  0
  9 11  1  0  0  0  0
 17 16  1  1  0  0  0
 17 18  1  0  0  0  0
 17 24  1  0  0  0  0
 18 19  1  0  0  0  0
 18 25  1  6  0  0  0
 19 20  1  0  0  0  0
 19 26  1  6  0  0  0
 20 21  1  0  0  0  0
 20 23  1  1  0  0  0
 21 22  1  1  0  0  0
 21 24  1  0  0  0  0
 22 27  1  0  0  0  0
 28 12  1  6  0  0  0
 28 29  1  0  0  0  0
 28 33  1  0  0  0  0
 29 30  1  0  0  0  0
 29 36  1  1  0  0  0
 30 31  1  0  0  0  0
 30 37  1  6  0  0  0
 31 32  1  0  0  0  0
 31 34  1  1  0  0  0
 32 33  1  0  0  0  0
 33 35  1  1  0  0  0
M  END
>  <CHROM.1>
176.30294059,155.05403384,-149.99979389,179.04748615,-170.67054133,80.97646235
39.90423644,3.58262163,8.68786114,1.09279597,0.03861980,2.96134538

>  <Name>
1yrj_lig

>  <RI>
0

>  <Rbt.Current_Directory>
/home/itssahil/PROJECTS/Mol_Feturizer/New_Systems/rnas/1yrj

>  <Rbt.Executable>
rbdock ($Id: //depot/dev/client3/rdock/2013.1/src/exe/rbdock.cxx#4 $)

>  <Rbt.Library>
libRbt.so (2013.1, Build901 2013/11/27)

>  <Rbt.Parameter_File>
/export/apps/rDock/src/rDock_2013.1_src/data/scripts/dock_solv.prm

>  <Rbt.Receptor>
prm/pocket_docking_4.prm

>  <SCORE>
-28.8337

>  <SCORE.INTER>
-22.8107

>  <SCORE.INTER.CONST>
1

>  <SCORE.INTER.POLAR>
-1.68717

>  <SCORE.INTER.ROT>
6

>  <SCORE.INTER.SOLV>
15.1464

>  <SCORE.INTER.VDW>
-22.232

>  <SCORE.INTER.norm>
-0.616505

>  <SCORE.INTRA>
-6.02299

>  <SCORE.INTRA.DIHEDRAL>
-9.15761

>  <SCORE.INTRA.DIHEDRAL.0>
15.6389

>  <SCORE.INTRA.POLAR>
0

>  <SCORE.INTRA.POLAR.0>
0

>  <SCORE.INTRA.REPUL>
0.0118472

>  <SCORE.INTRA.REPUL.0>
0

>  <SCORE.INTRA.SOLV>
-1.64135

>  <SCORE.INTRA.SOLV.lig_0>
-90.9181

>  <SCORE.INTRA.VDW>
-0.682752

>  <SCORE.INTRA.VDW.0>
-3.14158

>  <SCORE.INTRA.norm>
-0.162784

>  <SCORE.RESTR>
0

>  <SCORE.RESTR.CAVITY>
0

>  <SCORE.RESTR.norm>
0

>  <SCORE.SYSTEM>
0

>  <SCORE.SYSTEM.CONST>
0

>  <SCORE.SYSTEM.DIHEDRAL>
0

>  <SCORE.SYSTEM.SOLV>
0

>  <SCORE.SYSTEM.norm>
0

>  <SCORE.heavy>
37

>  <SCORE.norm>
-0.779288

>  <RMSD>
10.063

$$$$
1yrj_lig
 OpenBabel11021811423D
libRbt.so/2013.1/901 2013/11/27
 37 40  0  0  0  0  0  0  0  0999 V2000
   39.7065    0.4279    9.5536 C   0  0  1  0  0  0  0  0  0  0  0  0
   38.3832    0.3643    8.7659 C   0  0  1  0  0  0  0  0  0  0  0  0
   38.2831    1.4909    7.7252 C   0  0  0  0  0  0  0  0  0  0  0  0
   38.4808    2.8678    8.4112 C   0  0  1  0  0  0  0  0  0  0  0  0
   39.8362    2.9032    9.1424 C   0  0  1  0  0  0  0  0  0  0  0  0
   40.0188    4.3248    9.8234 C   0  0  1  0  0  0  0  0  0  0  0  0
   39.9647    5.4239    8.7499 C   0  0  1  0  0  0  0  0  0  0  0  0
   38.6072    5.3137    8.0140 C   0  0  2  0  0  0  0  0  0  0  0  0
   41.0832    7.7142    8.6480 C   0  0  0  0  0  0  0  0  0  0  0  0
   38.1906   -0.9442    8.1196 N   0  0  0  0  0  0  0  0  0  0  0  0
   40.1865    6.7637    9.3771 N   0  0  0  0  0  0  0  0  0  0  0  0
   40.8514   -0.0045    8.7950 O   0  0  0  0  0  0  0  0  0  0  0  0
   39.8720    1.7860   10.1076 O   0  0  0  0  0  0  0  0  0  0  0  0
   38.4317    3.9865    7.4423 O   0  0  0  0  0  0  0  0  0  0  0  0
   38.9507    4.5576   10.7175 O   0  0  0  0  0  0  0  0  0  0  0  0
   38.4978    6.2633    6.9529 O   0  0  0  0  0  0  0  0  0  0  0  0
   37.2078    6.9167    6.9019 C   0  0  2  0  0  0  0  0  0  0  0  0
   37.1084    7.9830    5.7988 C   0  0  1  0  0  0  0  0  0  0  0  0
   37.9997    9.2108    6.1251 C   0  0  2  0  0  0  0  0  0  0  0  0
   37.6037    9.7932    7.4625 C   0  0  1  0  0  0  0  0  0  0  0  0
   37.7424    8.7060    8.5544 C   0  0  1  0  0  0  0  0  0  0  0  0
   37.3147    9.1961    9.9360 C   0  0  0  0  0  0  0  0  0  0  0  0
   38.4712   10.9550    7.7469 N   0  0  0  0  0  0  0  0  0  0  0  0
   36.9005    7.5473    8.2067 O   0  0  0  0  0  0  0  0  0  0  0  0
   37.4605    7.3739    4.5482 O   0  0  0  0  0  0  0  0  0  0  0  0
   37.8257   10.2152    5.1162 O   0  0  0  0  0  0  0  0  0  0  0  0
   37.7295    8.2732   10.9076 O   0  0  0  0  0  0  0  0  0  0  0  0
   42.2736   -0.0128    9.3351 C   0  0  1  0  0  0  0  0  0  0  0  0
   42.4765   -1.3606   10.0620 C   0  0  1  0  0  0  0  0  0  0  0  0
   43.9238   -1.4972   10.5938 C   0  0  2  0  0  0  0  0  0  0  0  0
   44.9207   -1.3830    9.4344 C   0  0  1  0  0  0  0  0  0  0  0  0
   44.7532   -0.0185    8.7183 C   0  0  0  0  0  0  0  0  0  0  0  0
   43.3203    0.0885    8.1863 C   0  0  2  0  0  0  0  0  0  0  0  0
   46.3024   -1.5032    9.9513 N   0  0  0  0  0  0  0  0  0  0  0  0
   43.2082    1.3755    7.5052 N   0  0  0  0  0  0  0  0  0  0  0  0
   41.5650   -1.4353   11.1798 O   0  0  0  0  0  0  0  0  0  0  0  0
   44.0637   -2.7809   11.2398 O   0  0  0  0  0  0  0  0  0  0  0  0
  1  2  1  0  0  0  0
  1 12  1  6  0  0  0
  1 13  1  0  0  0  0
  2  3  1  0  0  0  0
  2 10  1  6  0  0  0
  4  3  1  6  0  0  0
  4  5  1  0  0  0  0
  4 14  1  0  0  0  0
  5  6  1  0  0  0  0
  5 13  1  1  0  0  0
  6  7  1  0  0  0  0
  6 15  1  1  0  0  0
  7  8  1  0  0  0  0
  7 11  1  1  0  0  0
  8 14  1  0  0  0  0
  8 16  1  6  0  0  0
  9 11  1  0  0  0  0
 17 16  1  1  0  0  0
 17 18  1  0  0  0  0
 17 24  1  0  0  0  0
 18 19  1  0  0  0  0
 18 25  1  6  0  0  0
 19 20  1  0  0  0  0
 19 26  1  6  0  0  0
 20 21  1  0  0  0  0
 20 23  1  1  0  0  0
 21 22  1  1  0  0  0
 21 24  1  0  0  0  0
 22 27  1  0  0  0  0
 28 12  1  6  0  0  0
 28 29  1  0  0  0  0
 28 33  1  0  0  0  0
 29 30  1  0  0  0  0
 29 36  1  1  0  0  0
 30 31  1  0  0  0  0
 30 37  1  6  0  0  0
 31 32  1  0  0  0  0
 31 34  1  1  0  0  0
 32 33  1  0  0  0  0
 33 35  1  1  0  0  0
M  END
>  <CHROM.1>
178.84872051,137.56383310,-136.57479460,177.49273339,-167.51636703,86.69019687
39.96017778,3.83884324,8.59567925,1.07106548,0.27883191,3.05434984

>  <Name>
1yrj_lig

>  <RI>
0

>  <Rbt.Current_Directory>
/home/itssahil/PROJECTS/Mol_Feturizer/New_Systems/rnas/1yrj

>  <Rbt.Executable>
rbdock ($Id: //depot/dev/client3/rdock/2013.1/src/exe/rbdock.cxx#4 $)

>  <Rbt.Library>
libRbt.so (2013.1, Build901 2013/11/27)

>  <Rbt.Parameter_File>
/export/apps/rDock/src/rDock_2013.1_src/data/scripts/dock_solv.prm

>  <Rbt.Receptor>
prm/pocket_docking_3.prm

>  <SCORE>
-27.5469

>  <SCORE.INTER>
-23.5117

>  <SCORE.INTER.CONST>
1

>  <SCORE.INTER.POLAR>
-1.84617

>  <SCORE.INTER.ROT>
6

>  <SCORE.INTER.SOLV>
16.17

>  <SCORE.INTER.VDW>
-22.5106

>  <SCORE.INTER.norm>
-0.635451

>  <SCORE.INTRA>
-4.03531

>  <SCORE.INTRA.DIHEDRAL>
-5.10272

>  <SCORE.INTRA.DIHEDRAL.0>
15.6389

>  <SCORE.INTRA.POLAR>
0

>  <SCORE.INTRA.POLAR.0>
0

>  <SCORE.INTRA.REPUL>
0

>  <SCORE.INTRA.REPUL.0>
0

>  <SCORE.INTRA.SOLV>
-0.476072

>  <SCORE.INTRA.SOLV.lig_0>
-90.9181

>  <SCORE.INTRA.VDW>
-1.24591

>  <SCORE.INTRA.VDW.0>
-3.14158

>  <SCORE.INTRA.norm>
-0.109062

>  <SCORE.RESTR>
4.05776e-05

>  <SCORE.RESTR.CAVITY>
4.05776e-05

>  <SCORE.RESTR.norm>
1.09669e-06

>  <SCORE.SYSTEM>
0

>  <SCORE.SYSTEM.CONST>
0

>  <SCORE.SYSTEM.DIHEDRAL>
0

>  <SCORE.SYSTEM.SOLV>
0

>  <SCORE.SYSTEM.norm>
0

>  <SCORE.heavy>
37

>  <SCORE.norm>
-0.744512

>  <RMSD>
10.066

$$$$
1yrj_lig
 OpenBabel11021811423D
libRbt.so/2013.1/901 2013/11/27
 37 40  0  0  0  0  0  0  0  0999 V2000
   39.2857    0.0069    9.3889 C   0  0  1  0  0  0  0  0  0  0  0  0
   38.0960    0.2183    8.4322 C   0  0  1  0  0  0  0  0  0  0  0  0
   38.3050    1.4387    7.5214 C   0  0  0  0  0  0  0  0  0  0  0  0
   38.5874    2.6999    8.3788 C   0  0  1  0  0  0  0  0  0  0  0  0
   39.8130    2.4612    9.2809 C   0  0  1  0  0  0  0  0  0  0  0  0
   40.0875    3.7692   10.1364 C   0  0  1  0  0  0  0  0  0  0  0  0
   40.3427    4.9585    9.1963 C   0  0  1  0  0  0  0  0  0  0  0  0
   39.1055    5.1244    8.2807 C   0  0  2  0  0  0  0  0  0  0  0  0
   41.2001    7.3603    9.2479 C   0  0  0  0  0  0  0  0  0  0  0  0
   37.8221   -0.9801    7.6224 N   0  0  0  0  0  0  0  0  0  0  0  0
   40.6522    6.1850    9.9946 N   0  0  0  0  0  0  0  0  0  0  0  0
   40.4589   -0.5221    8.7433 O   0  0  0  0  0  0  0  0  0  0  0  0
   39.5532    1.2668   10.1099 O   0  0  0  0  0  0  0  0  0  0  0  0
   38.8349    3.8981    7.5446 O   0  0  0  0  0  0  0  0  0  0  0  0
   38.9422    4.0775   10.9030 O   0  0  0  0  0  0  0  0  0  0  0  0
   39.2841    6.1739    7.3287 O   0  0  0  0  0  0  0  0  0  0  0  0
   38.1193    6.3977    6.4999 C   0  0  2  0  0  0  0  0  0  0  0  0
   38.2871    5.8817    5.0615 C   0  0  1  0  0  0  0  0  0  0  0  0
   39.3209    6.7337    4.2781 C   0  0  2  0  0  0  0  0  0  0  0  0
   38.8953    8.1840    4.2746 C   0  0  1  0  0  0  0  0  0  0  0  0
   38.7641    8.6814    5.7337 C   0  0  1  0  0  0  0  0  0  0  0  0
   38.2891   10.1298    5.8253 C   0  0  0  0  0  0  0  0  0  0  0  0
   39.8995    8.9688    3.5270 N   0  0  0  0  0  0  0  0  0  0  0  0
   37.7914    7.8417    6.4556 O   0  0  0  0  0  0  0  0  0  0  0  0
   38.6573    4.4965    5.1184 O   0  0  0  0  0  0  0  0  0  0  0  0
   39.3970    6.2733    2.9219 O   0  0  0  0  0  0  0  0  0  0  0  0
   38.2546   10.5254    7.1707 O   0  0  0  0  0  0  0  0  0  0  0  0
   40.5060   -1.8709    8.0411 C   0  0  1  0  0  0  0  0  0  0  0  0
   41.8209   -1.9169    7.2318 C   0  0  1  0  0  0  0  0  0  0  0  0
   41.9976   -3.2846    6.5288 C   0  0  2  0  0  0  0  0  0  0  0  0
   41.9937   -4.4120    7.5680 C   0  0  1  0  0  0  0  0  0  0  0  0
   40.6633   -4.4008    8.3633 C   0  0  0  0  0  0  0  0  0  0  0  0
   40.5168   -3.0458    9.0635 C   0  0  2  0  0  0  0  0  0  0  0  0
   42.1518   -5.7172    6.8882 N   0  0  0  0  0  0  0  0  0  0  0  0
   39.2644   -3.0813    9.8139 N   0  0  0  0  0  0  0  0  0  0  0  0
   41.7918   -0.8811    6.2257 O   0  0  0  0  0  0  0  0  0  0  0  0
   43.2499   -3.2808    5.8101 O   0  0  0  0  0  0  0  0  0  0  0  0
  1  2  1  0  0  0  0
  1 12  1  6  0  0  0
  1 13  1  0  0  0  0
  2  3  1  0  0  0  0
  2 10  1  6  0  0  0
  4  3  1  6  0  0  0
  4  5  1  0  0  0  0
  4 14  1  0  0  0  0
  5  6  1  0  0  0  0
  5 13  1  1  0  0  0
  6  7  1  0  0  0  0
  6 15  1  6  0  0  0
  7  8  1  0  0  0  0
  7 11  1  1  0  0  0
  8 14  1  0  0  0  0
  8 16  1  6  0  0  0
  9 11  1  0  0  0  0
 17 16  1  1  0  0  0
 17 18  1  0  0  0  0
 17 24  1  0  0  0  0
 18 19  1  0  0  0  0
 18 25  1  1  0  0  0
 19 20  1  0  0  0  0
 19 26  1  6  0  0  0
 20 21  1  0  0  0  0
 20 23  1  6  0  0  0
 21 22  1  6  0  0  0
 21 24  1  0  0  0  0
 22 27  1  0  0  0  0
 28 12  1  1  0  0  0
 28 29  1  0  0  0  0
 28 33  1  0  0  0  0
 29 30  1  0  0  0  0
 29 36  1  6  0  0  0
 30 31  1  0  0  0  0
 30 37  1  1  0  0  0
 31 32  1  0  0  0  0
 31 34  1  6  0  0  0
 32 33  1  0  0  0  0
 33 35  1  6  0  0  0
M  END
>  <CHROM.1>
-61.32643332,167.74375856,-177.16930524,-106.12749620,-177.29836228,167.79022048
39.72925718,2.77001207,7.40797186,0.76782372,-1.31046086,2.19669538

>  <Name>
1yrj_lig

>  <RI>
0

>  <Rbt.Current_Directory>
/home/itssahil/PROJECTS/Mol_Feturizer/New_Systems/rnas/1yrj

>  <Rbt.Executable>
rbdock ($Id: //depot/dev/client3/rdock/2013.1/src/exe/rbdock.cxx#4 $)

>  <Rbt.Library>
libRbt.so (2013.1, Build901 2013/11/27)

>  <Rbt.Parameter_File>
/export/apps/rDock/src/rDock_2013.1_src/data/scripts/dock_solv.prm

>  <Rbt.Receptor>
prm/pocket_docking_6.prm

>  <SCORE>
-20.2607

>  <SCORE.INTER>
-17.8302

>  <SCORE.INTER.CONST>
1

>  <SCORE.INTER.POLAR>
-0.959166

>  <SCORE.INTER.ROT>
6

>  <SCORE.INTER.SOLV>
11.0954

>  <SCORE.INTER.VDW>
-19.9881

>  <SCORE.INTER.norm>
-0.481898

>  <SCORE.INTRA>
-2.43043

>  <SCORE.INTRA.DIHEDRAL>
-8.35875

>  <SCORE.INTRA.DIHEDRAL.0>
15.6389

>  <SCORE.INTRA.POLAR>
0

>  <SCORE.INTRA.POLAR.0>
0

>  <SCORE.INTRA.REPUL>
0

>  <SCORE.INTRA.REPUL.0>
0

>  <SCORE.INTRA.SOLV>
1.73291

>  <SCORE.INTRA.SOLV.lig_0>
-90.9181

>  <SCORE.INTRA.VDW>
0.882491

>  <SCORE.INTRA.VDW.0>
-3.14158

>  <SCORE.INTRA.norm>
-0.0656873

>  <SCORE.RESTR>
0

>  <SCORE.RESTR.CAVITY>
0

>  <SCORE.RESTR.norm>
0

>  <SCORE.SYSTEM>
0

>  <SCORE.SYSTEM.CONST>
0

>  <SCORE.SYSTEM.DIHEDRAL>
0

>  <SCORE.SYSTEM.SOLV>
0

>  <SCORE.SYSTEM.norm>
0

>  <SCORE.heavy>
37

>  <SCORE.norm>
-0.547586

>  <RMSD>
10.081

$$$$
1yrj_lig
 OpenBabel11021811423D
libRbt.so/2013.1/901 2013/11/27
 37 40  0  0  0  0  0  0  0  0999 V2000
   39.6390    0.1717    9.5052 C   0  0  1  0  0  0  0  0  0  0  0  0
   38.3509    0.2388    8.6615 C   0  0  1  0  0  0  0  0  0  0  0  0
   38.3146    1.4924    7.7729 C   0  0  0  0  0  0  0  0  0  0  0  0
   38.5036    2.7645    8.6399 C   0  0  1  0  0  0  0  0  0  0  0  0
   39.8258    2.6760    9.4253 C   0  0  1  0  0  0  0  0  0  0  0  0
   40.0007    3.9934   10.2925 C   0  0  1  0  0  0  0  0  0  0  0  0
   40.0114    5.2230    9.3697 C   0  0  1  0  0  0  0  0  0  0  0  0
   38.6861    5.2379    8.5698 C   0  0  2  0  0  0  0  0  0  0  0  0
   41.6211    6.7367   10.6442 C   0  0  0  0  0  0  0  0  0  0  0  0
   38.1662   -0.9708    7.8431 N   0  0  0  0  0  0  0  0  0  0  0  0
   40.2265    6.4653   10.1746 N   0  0  0  0  0  0  0  0  0  0  0  0
   40.8092   -0.1835    8.7453 O   0  0  0  0  0  0  0  0  0  0  0  0
   39.8013    1.4428   10.2377 O   0  0  0  0  0  0  0  0  0  0  0  0
   38.5150    3.9998    7.8236 O   0  0  0  0  0  0  0  0  0  0  0  0
   38.8980    4.1315   11.1640 O   0  0  0  0  0  0  0  0  0  0  0  0
   38.6386    6.3188    7.6376 O   0  0  0  0  0  0  0  0  0  0  0  0
   37.3080    6.8569    7.4542 C   0  0  2  0  0  0  0  0  0  0  0  0
   37.2241    7.9046    6.3321 C   0  0  1  0  0  0  0  0  0  0  0  0
   37.9703    9.2071    6.7254 C   0  0  2  0  0  0  0  0  0  0  0  0
   37.3979    9.7599    8.0106 C   0  0  1  0  0  0  0  0  0  0  0  0
   37.5238    8.6949    9.1256 C   0  0  1  0  0  0  0  0  0  0  0  0
   36.9237    9.1531   10.4529 C   0  0  0  0  0  0  0  0  0  0  0  0
   38.1303   10.9945    8.3609 N   0  0  0  0  0  0  0  0  0  0  0  0
   36.8226    7.4652    8.7148 O   0  0  0  0  0  0  0  0  0  0  0  0
   37.7468    7.3218    5.1295 O   0  0  0  0  0  0  0  0  0  0  0  0
   37.8086   10.1871    5.6908 O   0  0  0  0  0  0  0  0  0  0  0  0
   36.2629    8.0764   11.0627 O   0  0  0  0  0  0  0  0  0  0  0  0
   42.2177   -0.2124    9.3195 C   0  0  1  0  0  0  0  0  0  0  0  0
   42.3682   -1.5432   10.0891 C   0  0  1  0  0  0  0  0  0  0  0  0
   43.7986   -1.7011   10.6593 C   0  0  2  0  0  0  0  0  0  0  0  0
   44.8250   -1.6462    9.5215 C   0  0  1  0  0  0  0  0  0  0  0  0
   44.7101   -0.2993    8.7630 C   0  0  0  0  0  0  0  0  0  0  0  0
   43.2932   -0.1713    8.1938 C   0  0  2  0  0  0  0  0  0  0  0  0
   46.1905   -1.7866   10.0747 N   0  0  0  0  0  0  0  0  0  0  0  0
   43.2308    1.0978    7.4738 N   0  0  0  0  0  0  0  0  0  0  0  0
   41.4292   -1.5621   11.1863 O   0  0  0  0  0  0  0  0  0  0  0  0
   43.8896   -2.9686   11.3447 O   0  0  0  0  0  0  0  0  0  0  0  0
  1  2  1  0  0  0  0
  1 12  1  6  0  0  0
  1 13  1  0  0  0  0
  2  3  1  0  0  0  0
  2 10  1  6  0  0  0
  4  3  1  6  0  0  0
  4  5  1  0  0  0  0
  4 14  1  0  0  0  0
  5  6  1  0  0  0  0
  5 13  1  1  0  0  0
  6  7  1  0  0  0  0
  6 15  1  1  0  0  0
  7  8  1  0  0  0  0
  7 11  1  1  0  0  0
  8 14  1  0  0  0  0
  8 16  1  6  0  0  0
  9 11  1  0  0  0  0
 17 16  1  1  0  0  0
 17 18  1  0  0  0  0
 17 24  1  0  0  0  0
 18 19  1  0  0  0  0
 18 25  1  6  0  0  0
 19 20  1  0  0  0  0
 19 26  1  6  0  0  0
 20 21  1  0  0  0  0
 20 23  1  1  0  0  0
 21 22  1  1  0  0  0
 21 24  1  0  0  0  0
 22 27  1  0  0  0  0
 28 12  1  6  0  0  0
 28 29  1  0  0  0  0
 28 33  1  0  0  0  0
 29 30  1  0  0  0  0
 29 36  1  1  0  0  0
 30 31  1  0  0  0  0
 30 37  1  6  0  0  0
 31 32  1  0  0  0  0
 31 34  1  1  0  0  0
 32 33  1  0  0  0  0
 33 35  1  1  0  0  0
M  END
>  <CHROM.1>
175.09491217,76.73823420,-146.28595685,-173.13780700,140.87720769,80.14964804
39.89154445,3.66728819,8.93308183,1.03677557,0.38543989,-3.09409166

>  <Name>
1yrj_lig

>  <RI>
0

>  <Rbt.Current_Directory>
/home/itssahil/PROJECTS/Mol_Feturizer/New_Systems/rnas/1yrj

>  <Rbt.Executable>
rbdock ($Id: //depot/dev/client3/rdock/2013.1/src/exe/rbdock.cxx#4 $)

>  <Rbt.Library>
libRbt.so (2013.1, Build901 2013/11/27)

>  <Rbt.Parameter_File>
/export/apps/rDock/src/rDock_2013.1_src/data/scripts/dock_solv.prm

>  <Rbt.Receptor>
prm/pocket_docking_5.prm

>  <SCORE>
-29.8221

>  <SCORE.INTER>
-26.8369

>  <SCORE.INTER.CONST>
1

>  <SCORE.INTER.POLAR>
-2.23738

>  <SCORE.INTER.ROT>
6

>  <SCORE.INTER.SOLV>
16.5681

>  <SCORE.INTER.VDW>
-23.5561

>  <SCORE.INTER.norm>
-0.725323

>  <SCORE.INTRA>
-2.98518

>  <SCORE.INTRA.DIHEDRAL>
-5.02311

>  <SCORE.INTRA.DIHEDRAL.0>
15.6389

>  <SCORE.INTRA.POLAR>
0

>  <SCORE.INTRA.POLAR.0>
0

>  <SCORE.INTRA.REPUL>
0

>  <SCORE.INTRA.REPUL.0>
0

>  <SCORE.INTRA.SOLV>
-2.06743

>  <SCORE.INTRA.SOLV.lig_0>
-90.9181

>  <SCORE.INTRA.VDW>
0.560092

>  <SCORE.INTRA.VDW.0>
-3.14158

>  <SCORE.INTRA.norm>
-0.0806805

>  <SCORE.RESTR>
0

>  <SCORE.RESTR.CAVITY>
0

>  <SCORE.RESTR.norm>
0

>  <SCORE.SYSTEM>
0

>  <SCORE.SYSTEM.CONST>
0

>  <SCORE.SYSTEM.DIHEDRAL>
0

>  <SCORE.SYSTEM.SOLV>
0

>  <SCORE.SYSTEM.norm>
0

>  <SCORE.heavy>
37

>  <SCORE.norm>
-0.806003

>  <RMSD>
10.087

$$$$
1yrj_lig
 OpenBabel11021811423D
libRbt.so/2013.1/901 2013/11/27
 37 40  0  0  0  0  0  0  0  0999 V2000
   39.6094    0.0250    9.3156 C   0  0  1  0  0  0  0  0  0  0  0  0
   38.3047    0.1503    8.5048 C   0  0  1  0  0  0  0  0  0  0  0  0
   38.2906    1.4191    7.6373 C   0  0  0  0  0  0  0  0  0  0  0  0
   38.5443    2.6693    8.5195 C   0  0  1  0  0  0  0  0  0  0  0  0
   39.8810    2.5225    9.2709 C   0  0  1  0  0  0  0  0  0  0  0  0
   40.1220    3.8185   10.1543 C   0  0  1  0  0  0  0  0  0  0  0  0
   40.1533    5.0622    9.2512 C   0  0  1  0  0  0  0  0  0  0  0  0
   38.8107    5.1359    8.4842 C   0  0  2  0  0  0  0  0  0  0  0  0
   39.3382    6.7529   10.9786 C   0  0  0  0  0  0  0  0  0  0  0  0
   38.0588   -1.0384    7.6720 N   0  0  0  0  0  0  0  0  0  0  0  0
   40.4304    6.2828   10.0702 N   0  0  0  0  0  0  0  0  0  0  0  0
   40.7482   -0.3572    8.5218 O   0  0  0  0  0  0  0  0  0  0  0  0
   39.8331    1.2775   10.0639 O   0  0  0  0  0  0  0  0  0  0  0  0
   38.5790    3.9170    7.7228 O   0  0  0  0  0  0  0  0  0  0  0  0
   39.0458    3.9797   11.0546 O   0  0  0  0  0  0  0  0  0  0  0  0
   38.7784    6.2332    7.5708 O   0  0  0  0  0  0  0  0  0  0  0  0
   37.4378    6.6865    7.2695 C   0  0  2  0  0  0  0  0  0  0  0  0
   37.3834    7.7061    6.1201 C   0  0  1  0  0  0  0  0  0  0  0  0
   38.0178    9.0584    6.5408 C   0  0  2  0  0  0  0  0  0  0  0  0
   37.3121    9.5995    7.7631 C   0  0  1  0  0  0  0  0  0  0  0  0
   37.4097    8.5651    8.9092 C   0  0  1  0  0  0  0  0  0  0  0  0
   36.6786    9.0110   10.1735 C   0  0  0  0  0  0  0  0  0  0  0  0
   37.9402   10.8824    8.1414 N   0  0  0  0  0  0  0  0  0  0  0  0
   36.8173    7.2879    8.4729 O   0  0  0  0  0  0  0  0  0  0  0  0
   38.0348    7.1335    4.9769 O   0  0  0  0  0  0  0  0  0  0  0  0
   37.8830   10.0073    5.4739 O   0  0  0  0  0  0  0  0  0  0  0  0
   36.3297    7.8842   10.9328 O   0  0  0  0  0  0  0  0  0  0  0  0
   42.1667   -0.4528    9.0632 C   0  0  1  0  0  0  0  0  0  0  0  0
   42.2280   -1.7092    9.9597 C   0  0  1  0  0  0  0  0  0  0  0  0
   43.6572   -1.9350   10.5096 C   0  0  2  0  0  0  0  0  0  0  0  0
   44.6477   -2.0830    9.3486 C   0  0  1  0  0  0  0  0  0  0  0  0
   44.6237   -0.8127    8.4606 C   0  0  0  0  0  0  0  0  0  0  0  0
   43.2054   -0.6177    7.9144 C   0  0  2  0  0  0  0  0  0  0  0  0
   46.0134   -2.2874    9.8813 N   0  0  0  0  0  0  0  0  0  0  0  0
   43.2282    0.5747    7.0714 N   0  0  0  0  0  0  0  0  0  0  0  0
   41.3262   -1.5371   11.0747 O   0  0  0  0  0  0  0  0  0  0  0  0
   43.6619   -3.1317   11.3174 O   0  0  0  0  0  0  0  0  0  0  0  0
  1  2  1  0  0  0  0
  1 12  1  6  0  0  0
  1 13  1  0  0  0  0
  2  3  1  0  0  0  0
  2 10  1  6  0  0  0
  4  3  1  6  0  0  0
  4  5  1  0  0  0  0
  4 14  1  0  0  0  0
  5  6  1  0  0  0  0
  5 13  1  1  0  0  0
  6  7  1  0  0  0  0
  6 15  1  1  0  0  0
  7  8  1  0  0  0  0
  7 11  1  1  0  0  0
  8 14  1  0  0  0  0
  8 16  1  6  0  0  0
  9 11  1  0  0  0  0
 17 16  1  1  0  0  0
 17 18  1  0  0  0  0
 17 24  1  0  0  0  0
 18 19  1  0  0  0  0
 18 25  1  6  0  0  0
 19 20  1  0  0  0  0
 19 26  1  6  0  0  0
 20 21  1  0  0  0  0
 20 23  1  1  0  0  0
 21 22  1  1  0  0  0
 21 24  1  0  0  0  0
 22 27  1  0  0  0  0
 28 12  1  6  0  0  0
 28 29  1  0  0  0  0
 28 33  1  0  0  0  0
 29 30  1  0  0  0  0
 29 36  1  1  0  0  0
 30 31  1  0  0  0  0
 30 37  1  6  0  0  0
 31 32  1  0  0  0  0
 31 34  1  1  0  0  0
 32 33  1  0  0  0  0
 33 35  1  6  0  0  0
M  END
>  <CHROM.1>
175.51454320,-71.00300381,-155.29227902,-170.55041301,155.88890052,72.60598818
39.82065609,3.48366743,8.77255393,0.29736814,-1.06544668,1.74649710

>  <Name>
1yrj_lig

>  <RI>
0

>  <Rbt.Current_Directory>
/home/itssahil/PROJECTS/Mol_Feturizer/New_Systems/rnas/1yrj

>  <Rbt.Executable>
rbdock ($Id: //depot/dev/client3/rdock/2013.1/src/exe/rbdock.cxx#4 $)

>  <Rbt.Library>
libRbt.so (2013.1, Build901 2013/11/27)

>  <Rbt.Parameter_File>
/export/apps/rDock/src/rDock_2013.1_src/data/scripts/dock_solv.prm

>  <Rbt.Receptor>
prm/pocket_docking_8.prm

>  <SCORE>
-26.4448

>  <SCORE.INTER>
-22.7902

>  <SCORE.INTER.CONST>
1

>  <SCORE.INTER.POLAR>
-1.80477

>  <SCORE.INTER.ROT>
6

>  <SCORE.INTER.SOLV>
15.3362

>  <SCORE.INTER.VDW>
-21.8897

>  <SCORE.INTER.norm>
-0.615953

>  <SCORE.INTRA>
-3.65454

>  <SCORE.INTRA.DIHEDRAL>
-9.71203

>  <SCORE.INTRA.DIHEDRAL.0>
15.6389

>  <SCORE.INTRA.POLAR>
0

>  <SCORE.INTRA.POLAR.0>
0

>  <SCORE.INTRA.REPUL>
0

>  <SCORE.INTRA.REPUL.0>
0

>  <SCORE.INTRA.SOLV>
-2.02264

>  <SCORE.INTRA.SOLV.lig_0>
-90.9181

>  <SCORE.INTRA.VDW>
2.2128

>  <SCORE.INTRA.VDW.0>
-3.14158

>  <SCORE.INTRA.norm>
-0.0987714

>  <SCORE.RESTR>
0

>  <SCORE.RESTR.CAVITY>
0

>  <SCORE.RESTR.norm>
0

>  <SCORE.SYSTEM>
0

>  <SCORE.SYSTEM.CONST>
0

>  <SCORE.SYSTEM.DIHEDRAL>
0

>  <SCORE.SYSTEM.SOLV>
0

>  <SCORE.SYSTEM.norm>
0

>  <SCORE.heavy>
37

>  <SCORE.norm>
-0.714724

>  <RMSD>
10.087

$$$$
1yrj_lig
 OpenBabel11021811423D
libRbt.so/2013.1/901 2013/11/27
 37 40  0  0  0  0  0  0  0  0999 V2000
   39.5901    0.1862    9.5364 C   0  0  1  0  0  0  0  0  0  0  0  0
   38.2872    0.2299    8.7143 C   0  0  1  0  0  0  0  0  0  0  0  0
   38.2787    1.4008    7.7186 C   0  0  0  0  0  0  0  0  0  0  0  0
   38.5351    2.7358    8.4654 C   0  0  1  0  0  0  0  0  0  0  0  0
   39.8701    2.6644    9.2307 C   0  0  1  0  0  0  0  0  0  0  0  0
   40.1140    4.0451    9.9739 C   0  0  1  0  0  0  0  0  0  0  0  0
   40.1508    5.1872    8.9455 C   0  0  1  0  0  0  0  0  0  0  0  0
   38.8097    5.1843    8.1724 C   0  0  2  0  0  0  0  0  0  0  0  0
   41.0616    7.5661    8.8112 C   0  0  0  0  0  0  0  0  0  0  0  0
   38.0386   -1.0387    8.0102 N   0  0  0  0  0  0  0  0  0  0  0  0
   40.4307    6.4860    9.6326 N   0  0  0  0  0  0  0  0  0  0  0  0
   40.7290   -0.2807    8.7892 O   0  0  0  0  0  0  0  0  0  0  0  0
   39.8168    1.5095   10.1498 O   0  0  0  0  0  0  0  0  0  0  0  0
   38.5752    3.8931    7.5425 O   0  0  0  0  0  0  0  0  0  0  0  0
   39.0369    4.3031   10.8502 O   0  0  0  0  0  0  0  0  0  0  0  0
   38.7826    6.1799    7.1489 O   0  0  0  0  0  0  0  0  0  0  0  0
   37.4555    6.6931    6.8861 C   0  0  2  0  0  0  0  0  0  0  0  0
   37.4204    7.7470    5.7674 C   0  0  1  0  0  0  0  0  0  0  0  0
   38.1145    9.0611    6.2144 C   0  0  2  0  0  0  0  0  0  0  0  0
   37.4523    9.5931    7.4647 C   0  0  1  0  0  0  0  0  0  0  0  0
   37.5300    8.5227    8.5789 C   0  0  1  0  0  0  0  0  0  0  0  0
   36.8395    8.9593    9.8690 C   0  0  0  0  0  0  0  0  0  0  0  0
   38.1366   10.8393    7.8674 N   0  0  0  0  0  0  0  0  0  0  0  0
   36.8805    7.2825    8.1177 O   0  0  0  0  0  0  0  0  0  0  0  0
   38.0285    7.1834    4.5962 O   0  0  0  0  0  0  0  0  0  0  0  0
   37.9978   10.0453    5.1777 O   0  0  0  0  0  0  0  0  0  0  0  0
   36.5586    7.8305   10.6531 O   0  0  0  0  0  0  0  0  0  0  0  0
   42.1394   -0.3611    9.3535 C   0  0  1  0  0  0  0  0  0  0  0  0
   42.2407   -1.6879   10.1381 C   0  0  1  0  0  0  0  0  0  0  0  0
   43.6677   -1.8982   10.6999 C   0  0  2  0  0  0  0  0  0  0  0  0
   44.6866   -1.8993    9.5541 C   0  0  1  0  0  0  0  0  0  0  0  0
   44.6217   -0.5579    8.7801 C   0  0  0  0  0  0  0  0  0  0  0  0
   43.2070   -0.3780    8.2197 C   0  0  2  0  0  0  0  0  0  0  0  0
   46.0495   -2.0896   10.0991 N   0  0  0  0  0  0  0  0  0  0  0  0
   43.1916    0.8839    7.4848 N   0  0  0  0  0  0  0  0  0  0  0  0
   41.3103   -1.6548   11.2423 O   0  0  0  0  0  0  0  0  0  0  0  0
   43.7115   -3.1602   11.4000 O   0  0  0  0  0  0  0  0  0  0  0  0
  1  2  1  0  0  0  0
  1 12  1  6  0  0  0
  1 13  1  0  0  0  0
  2  3  1  0  0  0  0
  2 10  1  6  0  0  0
  4  3  1  6  0  0  0
  4  5  1  0  0  0  0
  4 14  1  0  0  0  0
  5  6  1  0  0  0  0
  5 13  1  1  0  0  0
  6  7  1  0  0  0  0
  6 15  1  1  0  0  0
  7  8  1  0  0  0  0
  7 11  1  1  0  0  0
  8 14  1  0  0  0  0
  8 16  1  6  0  0  0
  9 11  1  0  0  0  0
 17 16  1  1  0  0  0
 17 18  1  0  0  0  0
 17 24  1  0  0  0  0
 18 19  1  0  0  0  0
 18 25  1  6  0  0  0
 19 20  1  0  0  0  0
 19 26  1  6  0  0  0
 20 21  1  0  0  0  0
 20 23  1  1  0  0  0
 21 22  1  1  0  0  0
 21 24  1  0  0  0  0
 22 27  1  0  0  0  0
 28 12  1  6  0  0  0
 28 29  1  0  0  0  0
 28 33  1  0  0  0  0
 29 30  1  0  0  0  0
 29 36  1  1  0  0  0
 30 31  1  0  0  0  0
 30 37  1  6  0  0  0
 31 32  1  0  0  0  0
 31 34  1  1  0  0  0
 32 33  1  0  0  0  0
 33 35  1  1  0  0  0
M  END
>  <CHROM.1>
177.35316218,154.88743850,-149.88246212,-178.97926392,160.67843021,82.93090507
39.90001991,3.57841386,8.64925454,1.10847880,-0.05101534,2.88517293

>  <Name>
1yrj_lig

>  <RI>
0

>  <Rbt.Current_Directory>
/home/itssahil/PROJECTS/Mol_Feturizer/New_Systems/rnas/1yrj

>  <Rbt.Executable>
rbdock ($Id: //depot/dev/client3/rdock/2013.1/src/exe/rbdock.cxx#4 $)

>  <Rbt.Library>
libRbt.so (2013.1, Build901 2013/11/27)

>  <Rbt.Parameter_File>
/export/apps/rDock/src/rDock_2013.1_src/data/scripts/dock_solv.prm

>  <Rbt.Receptor>
prm/pocket_docking_4.prm

>  <SCORE>
-29.2157

>  <SCORE.INTER>
-23.9414

>  <SCORE.INTER.CONST>
1

>  <SCORE.INTER.POLAR>
-1.99696

>  <SCORE.INTER.ROT>
6

>  <SCORE.INTER.SOLV>
15.3486

>  <SCORE.INTER.VDW>
-22.0206

>  <SCORE.INTER.norm>
-0.647066

>  <SCORE.INTRA>
-5.2743

>  <SCORE.INTRA.DIHEDRAL>
-7.90595

>  <SCORE.INTRA.DIHEDRAL.0>
15.6389

>  <SCORE.INTRA.POLAR>
0

>  <SCORE.INTRA.POLAR.0>
0

>  <SCORE.INTRA.REPUL>
0.00203574

>  <SCORE.INTRA.REPUL.0>
0

>  <SCORE.INTRA.SOLV>
-1.80467

>  <SCORE.INTRA.SOLV.lig_0>
-90.9181

>  <SCORE.INTRA.VDW>
-0.429167

>  <SCORE.INTRA.VDW.0>
-3.14158

>  <SCORE.INTRA.norm>
-0.142549

>  <SCORE.RESTR>
0

>  <SCORE.RESTR.CAVITY>
0

>  <SCORE.RESTR.norm>
0

>  <SCORE.SYSTEM>
0

>  <SCORE.SYSTEM.CONST>
0

>  <SCORE.SYSTEM.DIHEDRAL>
0

>  <SCORE.SYSTEM.SOLV>
0

>  <SCORE.SYSTEM.norm>
0

>  <SCORE.heavy>
37

>  <SCORE.norm>
-0.789614

>  <RMSD>
10.089

$$$$
1yrj_lig
 OpenBabel11021811423D
libRbt.so/2013.1/901 2013/11/27
 37 40  0  0  0  0  0  0  0  0999 V2000
   38.6153    0.7138    9.5890 C   0  0  1  0  0  0  0  0  0  0  0  0
   37.8598    1.1140    8.3066 C   0  0  1  0  0  0  0  0  0  0  0  0
   38.5678    2.2551    7.5589 C   0  0  0  0  0  0  0  0  0  0  0  0
   38.7753    3.4644    8.5076 C   0  0  1  0  0  0  0  0  0  0  0  0
   39.5771    3.0296    9.7491 C   0  0  1  0  0  0  0  0  0  0  0  0
   39.7862    4.2862   10.6952 C   0  0  1  0  0  0  0  0  0  0  0  0
   40.5411    5.3878    9.9335 C   0  0  1  0  0  0  0  0  0  0  0  0
   39.7199    5.7528    8.6730 C   0  0  2  0  0  0  0  0  0  0  0  0
   42.2120    6.8709   11.1642 C   0  0  0  0  0  0  0  0  0  0  0  0
   37.6558   -0.0340    7.4080 N   0  0  0  0  0  0  0  0  0  0  0  0
   40.7868    6.5566   10.8340 N   0  0  0  0  0  0  0  0  0  0  0  0
   39.8208   -0.0330    9.3398 O   0  0  0  0  0  0  0  0  0  0  0  0
   38.8532    1.9213   10.4041 O   0  0  0  0  0  0  0  0  0  0  0  0
   39.4901    4.5785    7.8439 O   0  0  0  0  0  0  0  0  0  0  0  0
   38.5279    4.8139   11.0597 O   0  0  0  0  0  0  0  0  0  0  0  0
   40.3826    6.7303    7.8700 O   0  0  0  0  0  0  0  0  0  0  0  0
   39.9204    6.7521    6.4990 C   0  0  2  0  0  0  0  0  0  0  0  0
   40.5657    7.8643    5.6563 C   0  0  1  0  0  0  0  0  0  0  0  0
   40.0760    9.2655    6.1093 C   0  0  2  0  0  0  0  0  0  0  0  0
   38.5689    9.3381    6.0181 C   0  0  1  0  0  0  0  0  0  0  0  0
   37.9497    8.2269    6.8986 C   0  0  1  0  0  0  0  0  0  0  0  0
   36.4246    8.1958    6.8277 C   0  0  0  0  0  0  0  0  0  0  0  0
   38.1334   10.6793    6.4594 N   0  0  0  0  0  0  0  0  0  0  0  0
   38.4482    6.9121    6.4567 O   0  0  0  0  0  0  0  0  0  0  0  0
   41.9915    7.7318    5.7486 O   0  0  0  0  0  0  0  0  0  0  0  0
   40.6375   10.2721    5.2560 O   0  0  0  0  0  0  0  0  0  0  0  0
   36.0246    7.8816    5.5203 O   0  0  0  0  0  0  0  0  0  0  0  0
   39.9812   -1.5139    9.6491 C   0  0  1  0  0  0  0  0  0  0  0  0
   38.8149   -2.2524    8.9561 C   0  0  1  0  0  0  0  0  0  0  0  0
   38.9250   -3.7836    9.1554 C   0  0  2  0  0  0  0  0  0  0  0  0
   40.2595   -4.2900    8.5953 C   0  0  1  0  0  0  0  0  0  0  0  0
   41.4406   -3.5835    9.3084 C   0  0  0  0  0  0  0  0  0  0  0  0
   41.3210   -2.0723    9.0848 C   0  0  2  0  0  0  0  0  0  0  0  0
   40.3629   -5.7522    8.7991 N   0  0  0  0  0  0  0  0  0  0  0  0
   42.4578   -1.4461    9.7544 N   0  0  0  0  0  0  0  0  0  0  0  0
   37.5665   -1.8014    9.5255 O   0  0  0  0  0  0  0  0  0  0  0  0
   37.8276   -4.4229    8.4686 O   0  0  0  0  0  0  0  0  0  0  0  0
  1  2  1  0  0  0  0
  1 12  1  6  0  0  0
  1 13  1  0  0  0  0
  2  3  1  0  0  0  0
  2 10  1  6  0  0  0
  4  3  1  6  0  0  0
  4  5  1  0  0  0  0
  4 14  1  0  0  0  0
  5  6  1  0  0  0  0
  5 13  1  1  0  0  0
  6  7  1  0  0  0  0
  6 15  1  6  0  0  0
  7  8  1  0  0  0  0
  7 11  1  1  0  0  0
  8 14  1  0  0  0  0
  8 16  1  6  0  0  0
  9 11  1  0  0  0  0
 17 16  1  1  0  0  0
 17 18  1  0  0  0  0
 17 24  1  0  0  0  0
 18 19  1  0  0  0  0
 18 25  1  1  0  0  0
 19 20  1  0  0  0  0
 19 26  1  6  0  0  0
 20 21  1  0  0  0  0
 20 23  1  1  0  0  0
 21 22  1  6  0  0  0
 21 24  1  0  0  0  0
 22 27  1  0  0  0  0
 28 12  1  6  0  0  0
 28 29  1  0  0  0  0
 28 33  1  0  0  0  0
 29 30  1  0  0  0  0
 29 36  1  1  0  0  0
 30 31  1  0  0  0  0
 30 37  1  6  0  0  0
 31 32  1  0  0  0  0
 31 34  1  1  0  0  0
 32 33  1  0  0  0  0
 33 35  1  1  0  0  0
M  END
>  <CHROM.1>
-109.18271970,114.97325019,159.26609903,176.21456833,63.75305637,53.57519976
39.41670659,3.28092256,8.30483594,1.53613975,0.68326472,2.95973534

>  <Name>
1yrj_lig

>  <RI>
0

>  <Rbt.Current_Directory>
/home/itssahil/PROJECTS/Mol_Feturizer/New_Systems/rnas/1yrj

>  <Rbt.Executable>
rbdock ($Id: //depot/dev/client3/rdock/2013.1/src/exe/rbdock.cxx#4 $)

>  <Rbt.Library>
libRbt.so (2013.1, Build901 2013/11/27)

>  <Rbt.Parameter_File>
/export/apps/rDock/src/rDock_2013.1_src/data/scripts/dock_solv.prm

>  <Rbt.Receptor>
prm/pocket_docking_7.prm

>  <SCORE>
-17.2335

>  <SCORE.INTER>
-16.8134

>  <SCORE.INTER.CONST>
1

>  <SCORE.INTER.POLAR>
-1.45542

>  <SCORE.INTER.ROT>
6

>  <SCORE.INTER.SOLV>
18.1871

>  <SCORE.INTER.VDW>
-20.0199

>  <SCORE.INTER.norm>
-0.454415

>  <SCORE.INTRA>
-0.420086

>  <SCORE.INTRA.DIHEDRAL>
-5.60065

>  <SCORE.INTRA.DIHEDRAL.0>
15.6389

>  <SCORE.INTRA.POLAR>
0

>  <SCORE.INTRA.POLAR.0>
0

>  <SCORE.INTRA.REPUL>
0

>  <SCORE.INTRA.REPUL.0>
0

>  <SCORE.INTRA.SOLV>
0.526287

>  <SCORE.INTRA.SOLV.lig_0>
-90.9181

>  <SCORE.INTRA.VDW>
2.1171

>  <SCORE.INTRA.VDW.0>
-3.14158

>  <SCORE.INTRA.norm>
-0.0113537

>  <SCORE.RESTR>
0

>  <SCORE.RESTR.CAVITY>
0

>  <SCORE.RESTR.norm>
0

>  <SCORE.SYSTEM>
0

>  <SCORE.SYSTEM.CONST>
0

>  <SCORE.SYSTEM.DIHEDRAL>
0

>  <SCORE.SYSTEM.SOLV>
0

>  <SCORE.SYSTEM.norm>
0

>  <SCORE.heavy>
37

>  <SCORE.norm>
-0.465769

>  <RMSD>
10.094

$$$$
1yrj_lig
 OpenBabel11021811423D
libRbt.so/2013.1/901 2013/11/27
 37 40  0  0  0  0  0  0  0  0999 V2000
   39.6881    0.1052    9.4119 C   0  0  1  0  0  0  0  0  0  0  0  0
   38.3863    0.1334    8.5872 C   0  0  1  0  0  0  0  0  0  0  0  0
   38.3330    1.3466    7.6451 C   0  0  0  0  0  0  0  0  0  0  0  0
   38.5335    2.6559    8.4520 C   0  0  1  0  0  0  0  0  0  0  0  0
   39.8684    2.6039    9.2189 C   0  0  1  0  0  0  0  0  0  0  0  0
   40.0547    3.9584   10.0243 C   0  0  1  0  0  0  0  0  0  0  0  0
   40.0478    5.1462    9.0483 C   0  0  1  0  0  0  0  0  0  0  0  0
   38.7097    5.1241    8.2703 C   0  0  2  0  0  0  0  0  0  0  0  0
   41.0203    7.5041    9.0782 C   0  0  0  0  0  0  0  0  0  0  0  0
   38.1909   -1.1113    7.8259 N   0  0  0  0  0  0  0  0  0  0  0  0
   40.2734    6.4230    9.7941 N   0  0  0  0  0  0  0  0  0  0  0  0
   40.8465   -0.2814    8.6493 O   0  0  0  0  0  0  0  0  0  0  0  0
   39.8597    1.4076   10.0850 O   0  0  0  0  0  0  0  0  0  0  0  0
   38.5290    3.8541    7.5821 O   0  0  0  0  0  0  0  0  0  0  0  0
   38.9660    4.1332   10.9068 O   0  0  0  0  0  0  0  0  0  0  0  0
   38.6448    6.1629    7.2923 O   0  0  0  0  0  0  0  0  0  0  0  0
   37.3075    6.6788    7.0949 C   0  0  2  0  0  0  0  0  0  0  0  0
   37.2247    7.7524    5.9975 C   0  0  1  0  0  0  0  0  0  0  0  0
   37.9362    9.0593    6.4380 C   0  0  2  0  0  0  0  0  0  0  0  0
   37.3270    9.5682    7.7243 C   0  0  1  0  0  0  0  0  0  0  0  0
   37.4522    8.4783    8.8151 C   0  0  1  0  0  0  0  0  0  0  0  0
   36.8164    8.8912   10.1407 C   0  0  0  0  0  0  0  0  0  0  0  0
   38.0269   10.8080    8.1198 N   0  0  0  0  0  0  0  0  0  0  0  0
   36.7846    7.2457    8.3598 O   0  0  0  0  0  0  0  0  0  0  0  0
   37.7832    7.2103    4.7919 O   0  0  0  0  0  0  0  0  0  0  0  0
   37.7753   10.0614    5.4247 O   0  0  0  0  0  0  0  0  0  0  0  0
   37.1613    7.9617   11.1332 O   0  0  0  0  0  0  0  0  0  0  0  0
   42.2510   -0.3732    9.2268 C   0  0  1  0  0  0  0  0  0  0  0  0
   42.3073   -1.6564   10.0849 C   0  0  1  0  0  0  0  0  0  0  0  0
   43.7243   -1.8784   10.6671 C   0  0  2  0  0  0  0  0  0  0  0  0
   44.7484   -1.9749    9.5301 C   0  0  1  0  0  0  0  0  0  0  0  0
   44.7289   -0.6776    8.6820 C   0  0  0  0  0  0  0  0  0  0  0  0
   43.3232   -0.4862    8.1029 C   0  0  2  0  0  0  0  0  0  0  0  0
   46.1019   -2.1760   10.0940 N   0  0  0  0  0  0  0  0  0  0  0  0
   43.3505    0.7324    7.2986 N   0  0  0  0  0  0  0  0  0  0  0  0
   41.3728   -1.5331   11.1792 O   0  0  0  0  0  0  0  0  0  0  0  0
   43.7255   -3.1000   11.4369 O   0  0  0  0  0  0  0  0  0  0  0  0
  1  2  1  0  0  0  0
  1 12  1  6  0  0  0
  1 13  1  0  0  0  0
  2  3  1  0  0  0  0
  2 10  1  6  0  0  0
  4  3  1  6  0  0  0
  4  5  1  0  0  0  0
  4 14  1  0  0  0  0
  5  6  1  0  0  0  0
  5 13  1  1  0  0  0
  6  7  1  0  0  0  0
  6 15  1  1  0  0  0
  7  8  1  0  0  0  0
  7 11  1  1  0  0  0
  8 14  1  0  0  0  0
  8 16  1  6  0  0  0
  9 11  1  0  0  0  0
 17 16  1  1  0  0  0
 17 18  1  0  0  0  0
 17 24  1  0  0  0  0
 18 19  1  0  0  0  0
 18 25  1  6  0  0  0
 19 20  1  0  0  0  0
 19 26  1  6  0  0  0
 20 21  1  0  0  0  0
 20 23  1  1  0  0  0
 21 22  1  1  0  0  0
 21 24  1  0  0  0  0
 22 27  1  0  0  0  0
 28 12  1  6  0  0  0
 28 29  1  0  0  0  0
 28 33  1  0  0  0  0
 29 30  1  0  0  0  0
 29 36  1  1  0  0  0
 30 31  1  0  0  0  0
 30 37  1  6  0  0  0
 31 32  1  0  0  0  0
 31 34  1  1  0  0  0
 32 33  1  0  0  0  0
 33 35  1  1  0  0  0
M  END
>  <CHROM.1>
179.38886580,147.26952647,-147.02755444,-177.38439234,-170.18356256,74.92574659
39.89630084,3.54093898,8.71575291,1.04074313,0.42666617,-3.10223617

>  <Name>
1yrj_lig

>  <RI>
0

>  <Rbt.Current_Directory>
/home/itssahil/PROJECTS/Mol_Feturizer/New_Systems/rnas/1yrj

>  <Rbt.Executable>
rbdock ($Id: //depot/dev/client3/rdock/2013.1/src/exe/rbdock.cxx#4 $)

>  <Rbt.Library>
libRbt.so (2013.1, Build901 2013/11/27)

>  <Rbt.Parameter_File>
/export/apps/rDock/src/rDock_2013.1_src/data/scripts/dock_solv.prm

>  <Rbt.Receptor>
prm/pocket_docking_4.prm

>  <SCORE>
-28.1883

>  <SCORE.INTER>
-21.9714

>  <SCORE.INTER.CONST>
1

>  <SCORE.INTER.POLAR>
-1.6066

>  <SCORE.INTER.ROT>
6

>  <SCORE.INTER.SOLV>
14.4937

>  <SCORE.INTER.VDW>
-21.7235

>  <SCORE.INTER.norm>
-0.593821

>  <SCORE.INTRA>
-6.21694

>  <SCORE.INTRA.DIHEDRAL>
-9.27766

>  <SCORE.INTRA.DIHEDRAL.0>
15.6389

>  <SCORE.INTRA.POLAR>
0

>  <SCORE.INTRA.POLAR.0>
0

>  <SCORE.INTRA.REPUL>
0

>  <SCORE.INTRA.REPUL.0>
0

>  <SCORE.INTRA.SOLV>
-1.72078

>  <SCORE.INTRA.SOLV.lig_0>
-90.9181

>  <SCORE.INTRA.VDW>
-0.717724

>  <SCORE.INTRA.VDW.0>
-3.14158

>  <SCORE.INTRA.norm>
-0.168026

>  <SCORE.RESTR>
0

>  <SCORE.RESTR.CAVITY>
0

>  <SCORE.RESTR.norm>
0

>  <SCORE.SYSTEM>
0

>  <SCORE.SYSTEM.CONST>
0

>  <SCORE.SYSTEM.DIHEDRAL>
0

>  <SCORE.SYSTEM.SOLV>
0

>  <SCORE.SYSTEM.norm>
0

>  <SCORE.heavy>
37

>  <SCORE.norm>
-0.761846

>  <RMSD>
10.101

$$$$
1yrj_lig
 OpenBabel11021811423D
libRbt.so/2013.1/901 2013/11/27
 37 40  0  0  0  0  0  0  0  0999 V2000
   39.3031    0.0925    9.2984 C   0  0  1  0  0  0  0  0  0  0  0  0
   38.0765    0.3244    8.3945 C   0  0  1  0  0  0  0  0  0  0  0  0
   38.2447    1.5714    7.5118 C   0  0  0  0  0  0  0  0  0  0  0  0
   38.5542    2.8093    8.3936 C   0  0  1  0  0  0  0  0  0  0  0  0
   39.8146    2.5519    9.2409 C   0  0  1  0  0  0  0  0  0  0  0  0
   40.1158    3.8365   10.1224 C   0  0  1  0  0  0  0  0  0  0  0  0
   40.3292    5.0536    9.2078 C   0  0  1  0  0  0  0  0  0  0  0  0
   39.0569    5.2386    8.3456 C   0  0  2  0  0  0  0  0  0  0  0  0
   41.9170    6.1979   10.8436 C   0  0  0  0  0  0  0  0  0  0  0  0
   37.7772   -0.8520    7.5617 N   0  0  0  0  0  0  0  0  0  0  0  0
   40.6635    6.2585   10.0286 N   0  0  0  0  0  0  0  0  0  0  0  0
   40.4531   -0.4111    8.5934 O   0  0  0  0  0  0  0  0  0  0  0  0
   39.5924    1.3328   10.0446 O   0  0  0  0  0  0  0  0  0  0  0  0
   38.7638    4.0322    7.5854 O   0  0  0  0  0  0  0  0  0  0  0  0
   38.9994    4.1163   10.9410 O   0  0  0  0  0  0  0  0  0  0  0  0
   39.1939    6.3157    7.4180 O   0  0  0  0  0  0  0  0  0  0  0  0
   37.9272    6.8879    7.0158 C   0  0  2  0  0  0  0  0  0  0  0  0
   37.9630    7.5239    5.6166 C   0  0  1  0  0  0  0  0  0  0  0  0
   38.8337    8.8085    5.6076 C   0  0  2  0  0  0  0  0  0  0  0  0
   38.3062    9.7945    6.6247 C   0  0  1  0  0  0  0  0  0  0  0  0
   38.3104    9.1360    8.0246 C   0  0  1  0  0  0  0  0  0  0  0  0
   37.7454   10.0490    9.1103 C   0  0  0  0  0  0  0  0  0  0  0  0
   39.1567   11.0026    6.5959 N   0  0  0  0  0  0  0  0  0  0  0  0
   37.4923    7.9104    7.9957 O   0  0  0  0  0  0  0  0  0  0  0  0
   38.4370    6.5407    4.6851 O   0  0  0  0  0  0  0  0  0  0  0  0
   38.7842    9.4160    4.3093 O   0  0  0  0  0  0  0  0  0  0  0  0
   36.4026   10.3379    8.8249 O   0  0  0  0  0  0  0  0  0  0  0  0
   41.6244   -1.1084    9.2687 C   0  0  1  0  0  0  0  0  0  0  0  0
   42.2313   -0.1067   10.2757 C   0  0  1  0  0  0  0  0  0  0  0  0
   43.3964   -0.7468   11.0687 C   0  0  2  0  0  0  0  0  0  0  0  0
   42.9003   -1.9904   11.8160 C   0  0  1  0  0  0  0  0  0  0  0  0
   42.3217   -3.0210   10.8131 C   0  0  0  0  0  0  0  0  0  0  0  0
   41.1609   -2.3725   10.0517 C   0  0  2  0  0  0  0  0  0  0  0  0
   44.0214   -2.6036   12.5628 N   0  0  0  0  0  0  0  0  0  0  0  0
   40.6331   -3.3774    9.1328 N   0  0  0  0  0  0  0  0  0  0  0  0
   42.7375    1.0380    9.5550 O   0  0  0  0  0  0  0  0  0  0  0  0
   43.9080    0.2222   12.0089 O   0  0  0  0  0  0  0  0  0  0  0  0
  1  2  1  0  0  0  0
  1 12  1  6  0  0  0
  1 13  1  0  0  0  0
  2  3  1  0  0  0  0
  2 10  1  6  0  0  0
  4  3  1  6  0  0  0
  4  5  1  0  0  0  0
  4 14  1  0  0  0  0
  5  6  1  0  0  0  0
  5 13  1  1  0  0  0
  6  7  1  0  0  0  0
  6 15  1  1  0  0  0
  7  8  1  0  0  0  0
  7 11  1  1  0  0  0
  8 14  1  0  0  0  0
  8 16  1  6  0  0  0
  9 11  1  0  0  0  0
 17 16  1  1  0  0  0
 17 18  1  0  0  0  0
 17 24  1  0  0  0  0
 18 19  1  0  0  0  0
 18 25  1  6  0  0  0
 19 20  1  0  0  0  0
 19 26  1  6  0  0  0
 20 21  1  0  0  0  0
 20 23  1  1  0  0  0
 21 22  1  1  0  0  0
 21 24  1  0  0  0  0
 22 27  1  0  0  0  0
 28 12  1  1  0  0  0
 28 29  1  0  0  0  0
 28 33  1  0  0  0  0
 29 30  1  0  0  0  0
 29 36  1  6  0  0  0
 30 31  1  0  0  0  0
 30 37  1  1  0  0  0
 31 32  1  0  0  0  0
 31 34  1  6  0  0  0
 32 33  1  0  0  0  0
 33 35  1  6  0  0  0
M  END
>  <CHROM.1>
-160.89202484,61.84842857,-155.27063273,-152.60676547,62.34773311,-59.98381746
39.85820253,3.62092125,8.75846574,1.08130446,0.83869612,-3.08565483

>  <Name>
1yrj_lig

>  <RI>
0

>  <Rbt.Current_Directory>
/home/itssahil/PROJECTS/Mol_Feturizer/New_Systems/rnas/1yrj

>  <Rbt.Executable>
rbdock ($Id: //depot/dev/client3/rdock/2013.1/src/exe/rbdock.cxx#4 $)

>  <Rbt.Library>
libRbt.so (2013.1, Build901 2013/11/27)

>  <Rbt.Parameter_File>
/export/apps/rDock/src/rDock_2013.1_src/data/scripts/dock_solv.prm

>  <Rbt.Receptor>
prm/pocket_docking_3.prm

>  <SCORE>
-25.9273

>  <SCORE.INTER>
-21.8368

>  <SCORE.INTER.CONST>
1

>  <SCORE.INTER.POLAR>
-0.909439

>  <SCORE.INTER.ROT>
6

>  <SCORE.INTER.SOLV>
13.1887

>  <SCORE.INTER.VDW>
-23.5226

>  <SCORE.INTER.norm>
-0.590183

>  <SCORE.INTRA>
-4.09052

>  <SCORE.INTRA.DIHEDRAL>
-8.17327

>  <SCORE.INTRA.DIHEDRAL.0>
15.6389

>  <SCORE.INTRA.POLAR>
0

>  <SCORE.INTRA.POLAR.0>
0

>  <SCORE.INTRA.REPUL>
0

>  <SCORE.INTRA.REPUL.0>
0

>  <SCORE.INTRA.SOLV>
-0.851089

>  <SCORE.INTRA.SOLV.lig_0>
-90.9181

>  <SCORE.INTRA.VDW>
0.421662

>  <SCORE.INTRA.VDW.0>
-3.14158

>  <SCORE.INTRA.norm>
-0.110554

>  <SCORE.RESTR>
0

>  <SCORE.RESTR.CAVITY>
0

>  <SCORE.RESTR.norm>
0

>  <SCORE.SYSTEM>
0

>  <SCORE.SYSTEM.CONST>
0

>  <SCORE.SYSTEM.DIHEDRAL>
0

>  <SCORE.SYSTEM.SOLV>
0

>  <SCORE.SYSTEM.norm>
0

>  <SCORE.heavy>
37

>  <SCORE.norm>
-0.700738

>  <RMSD>
10.102

$$$$
1yrj_lig
 OpenBabel11021811423D
libRbt.so/2013.1/901 2013/11/27
 37 40  0  0  0  0  0  0  0  0999 V2000
   39.6277    0.0169    9.3029 C   0  0  1  0  0  0  0  0  0  0  0  0
   38.3123    0.1449    8.5099 C   0  0  1  0  0  0  0  0  0  0  0  0
   38.2826    1.4217    7.6548 C   0  0  0  0  0  0  0  0  0  0  0  0
   38.5427    2.6645    8.5456 C   0  0  1  0  0  0  0  0  0  0  0  0
   39.8894    2.5157    9.2787 C   0  0  1  0  0  0  0  0  0  0  0  0
   40.1367    3.8042   10.1713 C   0  0  1  0  0  0  0  0  0  0  0  0
   40.1519    5.0565    9.2798 C   0  0  1  0  0  0  0  0  0  0  0  0
   38.7994    5.1323    8.5306 C   0  0  2  0  0  0  0  0  0  0  0  0
   41.2204    7.3659    9.4574 C   0  0  0  0  0  0  0  0  0  0  0  0
   38.0603   -1.0368    7.6689 N   0  0  0  0  0  0  0  0  0  0  0  0
   40.4349    6.2703   10.1068 N   0  0  0  0  0  0  0  0  0  0  0  0
   40.7577   -0.3534    8.4911 O   0  0  0  0  0  0  0  0  0  0  0  0
   39.8562    1.2630   10.0603 O   0  0  0  0  0  0  0  0  0  0  0  0
   38.5626    3.9199    7.7606 O   0  0  0  0  0  0  0  0  0  0  0  0
   39.0715    3.9526   11.0866 O   0  0  0  0  0  0  0  0  0  0  0  0
   38.7515    6.2381    7.6281 O   0  0  0  0  0  0  0  0  0  0  0  0
   37.4054    6.6882    7.3471 C   0  0  2  0  0  0  0  0  0  0  0  0
   37.3341    7.7267    6.2156 C   0  0  1  0  0  0  0  0  0  0  0  0
   37.9644    9.0756    6.6533 C   0  0  2  0  0  0  0  0  0  0  0  0
   37.2670    9.5917    7.8911 C   0  0  1  0  0  0  0  0  0  0  0  0
   37.3816    8.5386    9.0186 C   0  0  1  0  0  0  0  0  0  0  0  0
   36.6597    8.9587   10.2970 C   0  0  0  0  0  0  0  0  0  0  0  0
   37.8909   10.8718    8.2852 N   0  0  0  0  0  0  0  0  0  0  0  0
   36.7927    7.2654    8.5662 O   0  0  0  0  0  0  0  0  0  0  0  0
   37.9781    7.1775    5.0569 O   0  0  0  0  0  0  0  0  0  0  0  0
   37.8139   10.0416    5.6039 O   0  0  0  0  0  0  0  0  0  0  0  0
   36.9031    8.0118   11.3030 O   0  0  0  0  0  0  0  0  0  0  0  0
   42.1727   -0.5108    9.0272 C   0  0  1  0  0  0  0  0  0  0  0  0
   42.1815   -1.7664    9.9269 C   0  0  1  0  0  0  0  0  0  0  0  0
   43.6015   -2.0543   10.4718 C   0  0  2  0  0  0  0  0  0  0  0  0
   44.5798   -2.2493    9.3073 C   0  0  1  0  0  0  0  0  0  0  0  0
   44.6088   -0.9815    8.4160 C   0  0  0  0  0  0  0  0  0  0  0  0
   43.1984   -0.7247    7.8749 C   0  0  2  0  0  0  0  0  0  0  0  0
   45.9370   -2.5131    9.8353 N   0  0  0  0  0  0  0  0  0  0  0  0
   43.2709    0.4633    7.0285 N   0  0  0  0  0  0  0  0  0  0  0  0
   41.2929   -1.5515   11.0450 O   0  0  0  0  0  0  0  0  0  0  0  0
   43.5561   -3.2480   11.2829 O   0  0  0  0  0  0  0  0  0  0  0  0
  1  2  1  0  0  0  0
  1 12  1  6  0  0  0
  1 13  1  0  0  0  0
  2  3  1  0  0  0  0
  2 10  1  6  0  0  0
  4  3  1  6  0  0  0
  4  5  1  0  0  0  0
  4 14  1  0  0  0  0
  5  6  1  0  0  0  0
  5 13  1  1  0  0  0
  6  7  1  0  0  0  0
  6 15  1  1  0  0  0
  7  8  1  0  0  0  0
  7 11  1  1  0  0  0
  8 14  1  0  0  0  0
  8 16  1  6  0  0  0
  9 11  1  0  0  0  0
 17 16  1  1  0  0  0
 17 18  1  0  0  0  0
 17 24  1  0  0  0  0
 18 19  1  0  0  0  0
 18 25  1  6  0  0  0
 19 20  1  0  0  0  0
 19 26  1  6  0  0  0
 20 21  1  0  0  0  0
 20 23  1  1  0  0  0
 21 22  1  1  0  0  0
 21 24  1  0  0  0  0
 22 27  1  0  0  0  0
 28 12  1  6  0  0  0
 28 29  1  0  0  0  0
 28 33  1  0  0  0  0
 29 30  1  0  0  0  0
 29 36  1  1  0  0  0
 30 31  1  0  0  0  0
 30 37  1  6  0  0  0
 31 32  1  0  0  0  0
 31 34  1  1  0  0  0
 32 33  1  0  0  0  0
 33 35  1  6  0  0  0
M  END
>  <CHROM.1>
178.44045178,146.47152898,-155.35324845,-171.00314300,-175.02541889,69.38331001
39.87199566,3.47282903,8.76656784,0.89517285,0.76679920,-2.78444488

>  <Name>
1yrj_lig

>  <RI>
0

>  <Rbt.Current_Directory>
/home/itssahil/PROJECTS/Mol_Feturizer/New_Systems/rnas/1yrj

>  <Rbt.Executable>
rbdock ($Id: //depot/dev/client3/rdock/2013.1/src/exe/rbdock.cxx#4 $)

>  <Rbt.Library>
libRbt.so (2013.1, Build901 2013/11/27)

>  <Rbt.Parameter_File>
/export/apps/rDock/src/rDock_2013.1_src/data/scripts/dock_solv.prm

>  <Rbt.Receptor>
prm/pocket_docking_6.prm

>  <SCORE>
-27.8334

>  <SCORE.INTER>
-20.6579

>  <SCORE.INTER.CONST>
1

>  <SCORE.INTER.POLAR>
-1.34358

>  <SCORE.INTER.ROT>
6

>  <SCORE.INTER.SOLV>
14.8003

>  <SCORE.INTER.VDW>
-21.8268

>  <SCORE.INTER.norm>
-0.558322

>  <SCORE.INTRA>
-7.17553

>  <SCORE.INTRA.DIHEDRAL>
-11.3039

>  <SCORE.INTRA.DIHEDRAL.0>
15.6389

>  <SCORE.INTRA.POLAR>
0

>  <SCORE.INTRA.POLAR.0>
0

>  <SCORE.INTRA.REPUL>
0

>  <SCORE.INTRA.REPUL.0>
0

>  <SCORE.INTRA.SOLV>
-2.54824

>  <SCORE.INTRA.SOLV.lig_0>
-90.9181

>  <SCORE.INTRA.VDW>
-0.249431

>  <SCORE.INTRA.VDW.0>
-3.14158

>  <SCORE.INTRA.norm>
-0.193933

>  <SCORE.RESTR>
0

>  <SCORE.RESTR.CAVITY>
0

>  <SCORE.RESTR.norm>
0

>  <SCORE.SYSTEM>
0

>  <SCORE.SYSTEM.CONST>
0

>  <SCORE.SYSTEM.DIHEDRAL>
0

>  <SCORE.SYSTEM.SOLV>
0

>  <SCORE.SYSTEM.norm>
0

>  <SCORE.heavy>
37

>  <SCORE.norm>
-0.752255

>  <RMSD>
10.112

$$$$
1yrj_lig
 OpenBabel11021811423D
libRbt.so/2013.1/901 2013/11/27
 37 40  0  0  0  0  0  0  0  0999 V2000
   38.7260   -0.7203    9.6508 C   0  0  1  0  0  0  0  0  0  0  0  0
   37.6394   -0.5308    8.5743 C   0  0  1  0  0  0  0  0  0  0  0  0
   38.0211    0.5620    7.5633 C   0  0  0  0  0  0  0  0  0  0  0  0
   38.3354    1.8871    8.3057 C   0  0  1  0  0  0  0  0  0  0  0  0
   39.4598    1.6618    9.3342 C   0  0  1  0  0  0  0  0  0  0  0  0
   39.7701    3.0335   10.0692 C   0  0  1  0  0  0  0  0  0  0  0  0
   40.1976    4.0890    9.0364 C   0  0  1  0  0  0  0  0  0  0  0  0
   39.0567    4.2415    8.0012 C   0  0  2  0  0  0  0  0  0  0  0  0
   41.6324    5.3205   10.7485 C   0  0  0  0  0  0  0  0  0  0  0  0
   37.3349   -1.7889    7.8732 N   0  0  0  0  0  0  0  0  0  0  0  0
   40.5406    5.3710    9.7264 N   0  0  0  0  0  0  0  0  0  0  0  0
   39.9005   -1.4018    9.1721 O   0  0  0  0  0  0  0  0  0  0  0  0
   39.0364    0.5892   10.2571 O   0  0  0  0  0  0  0  0  0  0  0  0
   38.7472    2.9637    7.3762 O   0  0  0  0  0  0  0  0  0  0  0  0
   38.5954    3.5078   10.6934 O   0  0  0  0  0  0  0  0  0  0  0  0
   39.3976    5.1626    6.9644 O   0  0  0  0  0  0  0  0  0  0  0  0
   38.8710    6.4920    7.1855 C   0  0  2  0  0  0  0  0  0  0  0  0
   38.7138    7.3078    5.8919 C   0  0  1  0  0  0  0  0  0  0  0  0
   40.0963    7.6809    5.2938 C   0  0  2  0  0  0  0  0  0  0  0  0
   40.9060    8.4516    6.3113 C   0  0  1  0  0  0  0  0  0  0  0  0
   41.0715    7.5939    7.5882 C   0  0  1  0  0  0  0  0  0  0  0  0
   41.8394    8.3173    8.6922 C   0  0  0  0  0  0  0  0  0  0  0  0
   42.2157    8.7877    5.7155 N   0  0  0  0  0  0  0  0  0  0  0  0
   39.7434    7.2401    8.1205 O   0  0  0  0  0  0  0  0  0  0  0  0
   37.9122    6.5499    4.9742 O   0  0  0  0  0  0  0  0  0  0  0  0
   39.9139    8.5030    4.1328 O   0  0  0  0  0  0  0  0  0  0  0  0
   43.1398    8.5998    8.2481 O   0  0  0  0  0  0  0  0  0  0  0  0
   41.0228   -1.8941   10.0735 C   0  0  1  0  0  0  0  0  0  0  0  0
   40.4616   -3.0759   10.8949 C   0  0  1  0  0  0  0  0  0  0  0  0
   41.5528   -3.6952   11.8015 C   0  0  2  0  0  0  0  0  0  0  0  0
   42.7320   -4.1764   10.9477 C   0  0  1  0  0  0  0  0  0  0  0  0
   43.3289   -2.9922   10.1453 C   0  0  0  0  0  0  0  0  0  0  0  0
   42.2377   -2.4053    9.2438 C   0  0  2  0  0  0  0  0  0  0  0  0
   43.7759   -4.7571   11.8214 N   0  0  0  0  0  0  0  0  0  0  0  0
   42.8422   -1.3075    8.4939 N   0  0  0  0  0  0  0  0  0  0  0  0
   39.3834   -2.5999   11.7297 O   0  0  0  0  0  0  0  0  0  0  0  0
   40.9818   -4.8067   12.5249 O   0  0  0  0  0  0  0  0  0  0  0  0
  1  2  1  0  0  0  0
  1 12  1  6  0  0  0
  1 13  1  0  0  0  0
  2  3  1  0  0  0  0
  2 10  1  6  0  0  0
  4  3  1  6  0  0  0
  4  5  1  0  0  0  0
  4 14  1  0  0  0  0
  5  6  1  0  0  0  0
  5 13  1  1  0  0  0
  6  7  1  0  0  0  0
  6 15  1  6  0  0  0
  7  8  1  0  0  0  0
  7 11  1  1  0  0  0
  8 14  1  0  0  0  0
  8 16  1  6  0  0  0
  9 11  1  0  0  0  0
 17 16  1  6  0  0  0
 17 18  1  0  0  0  0
 17 24  1  0  0  0  0
 18 19  1  0  0  0  0
 18 25  1  6  0  0  0
 19 20  1  0  0  0  0
 19 26  1  6  0  0  0
 20 21  1  0  0  0  0
 20 23  1  6  0  0  0
 21 22  1  1  0  0  0
 21 24  1  0  0  0  0
 22 27  1  0  0  0  0
 28 12  1  6  0  0  0
 28 29  1  0  0  0  0
 28 33  1  0  0  0  0
 29 30  1  0  0  0  0
 29 36  1  1  0  0  0
 30 31  1  0  0  0  0
 30 37  1  6  0  0  0
 31 32  1  0  0  0  0
 31 34  1  1  0  0  0
 32 33  1  0  0  0  0
 33 35  1  1  0  0  0
M  END
>  <CHROM.1>
-170.57540118,58.75496226,-97.35941878,-156.26859166,-62.39582568,69.68029274
40.23330006,2.41713474,8.73183655,1.49732177,0.45435089,2.81572279

>  <Name>
1yrj_lig

>  <RI>
0

>  <Rbt.Current_Directory>
/home/itssahil/PROJECTS/Mol_Feturizer/New_Systems/rnas/1yrj

>  <Rbt.Executable>
rbdock ($Id: //depot/dev/client3/rdock/2013.1/src/exe/rbdock.cxx#4 $)

>  <Rbt.Library>
libRbt.so (2013.1, Build901 2013/11/27)

>  <Rbt.Parameter_File>
/export/apps/rDock/src/rDock_2013.1_src/data/scripts/dock_solv.prm

>  <Rbt.Receptor>
prm/pocket_docking_6.prm

>  <SCORE>
-23.0524

>  <SCORE.INTER>
-20.0907

>  <SCORE.INTER.CONST>
1

>  <SCORE.INTER.POLAR>
-0.959166

>  <SCORE.INTER.ROT>
6

>  <SCORE.INTER.SOLV>
14.5226

>  <SCORE.INTER.VDW>
-22.6375

>  <SCORE.INTER.norm>
-0.542993

>  <SCORE.INTRA>
-2.96167

>  <SCORE.INTRA.DIHEDRAL>
-7.27102

>  <SCORE.INTRA.DIHEDRAL.0>
15.6389

>  <SCORE.INTRA.POLAR>
0

>  <SCORE.INTRA.POLAR.0>
0

>  <SCORE.INTRA.REPUL>
0

>  <SCORE.INTRA.REPUL.0>
0

>  <SCORE.INTRA.SOLV>
-0.0811661

>  <SCORE.INTRA.SOLV.lig_0>
-90.9181

>  <SCORE.INTRA.VDW>
0.714418

>  <SCORE.INTRA.VDW.0>
-3.14158

>  <SCORE.INTRA.norm>
-0.0800453

>  <SCORE.RESTR>
0

>  <SCORE.RESTR.CAVITY>
0

>  <SCORE.RESTR.norm>
0

>  <SCORE.SYSTEM>
0

>  <SCORE.SYSTEM.CONST>
0

>  <SCORE.SYSTEM.DIHEDRAL>
0

>  <SCORE.SYSTEM.SOLV>
0

>  <SCORE.SYSTEM.norm>
0

>  <SCORE.heavy>
37

>  <SCORE.norm>
-0.623038

>  <RMSD>
10.115

$$$$
1yrj_lig
 OpenBabel11021811423D
libRbt.so/2013.1/901 2013/11/27
 37 40  0  0  0  0  0  0  0  0999 V2000
   39.6363    0.0744    9.4588 C   0  0  1  0  0  0  0  0  0  0  0  0
   38.3439    0.1612    8.6236 C   0  0  1  0  0  0  0  0  0  0  0  0
   38.3432    1.3881    7.6978 C   0  0  0  0  0  0  0  0  0  0  0  0
   38.5839    2.6783    8.5244 C   0  0  1  0  0  0  0  0  0  0  0  0
   39.9092    2.5672    9.3018 C   0  0  1  0  0  0  0  0  0  0  0  0
   40.1374    3.9031   10.1273 C   0  0  1  0  0  0  0  0  0  0  0  0
   40.1825    5.1034    9.1678 C   0  0  1  0  0  0  0  0  0  0  0  0
   38.8515    5.1406    8.3782 C   0  0  2  0  0  0  0  0  0  0  0  0
   41.7277    6.4283   10.7051 C   0  0  0  0  0  0  0  0  0  0  0  0
   38.1101   -1.0651    7.8435 N   0  0  0  0  0  0  0  0  0  0  0  0
   40.4477    6.3609    9.9330 N   0  0  0  0  0  0  0  0  0  0  0  0
   40.7868   -0.3439    8.7007 O   0  0  0  0  0  0  0  0  0  0  0  0
   39.8492    1.3605   10.1512 O   0  0  0  0  0  0  0  0  0  0  0  0
   38.6309    3.8875    7.6711 O   0  0  0  0  0  0  0  0  0  0  0  0
   39.0479    4.1056   11.0029 O   0  0  0  0  0  0  0  0  0  0  0  0
   38.8332    6.1941    7.4142 O   0  0  0  0  0  0  0  0  0  0  0  0
   37.5004    6.6710    7.1143 C   0  0  2  0  0  0  0  0  0  0  0  0
   37.4762    7.7862    6.0563 C   0  0  1  0  0  0  0  0  0  0  0  0
   38.0938    9.0974    6.6109 C   0  0  2  0  0  0  0  0  0  0  0  0
   37.3513    9.5302    7.8542 C   0  0  1  0  0  0  0  0  0  0  0  0
   37.4189    8.4004    8.9089 C   0  0  1  0  0  0  0  0  0  0  0  0
   36.6500    8.7348   10.1852 C   0  0  0  0  0  0  0  0  0  0  0  0
   37.9641   10.7759    8.3603 N   0  0  0  0  0  0  0  0  0  0  0  0
   36.8434    7.1655    8.3466 O   0  0  0  0  0  0  0  0  0  0  0  0
   38.1623    7.3152    4.8873 O   0  0  0  0  0  0  0  0  0  0  0  0
   37.9871   10.1351    5.6266 O   0  0  0  0  0  0  0  0  0  0  0  0
   37.2609    9.8225   10.8267 O   0  0  0  0  0  0  0  0  0  0  0  0
   42.2009   -0.3895    9.2598 C   0  0  1  0  0  0  0  0  0  0  0  0
   42.3178   -1.6821   10.0973 C   0  0  1  0  0  0  0  0  0  0  0  0
   43.7495   -1.8574   10.6589 C   0  0  2  0  0  0  0  0  0  0  0  0
   44.7622   -1.8969    9.5083 C   0  0  1  0  0  0  0  0  0  0  0  0
   44.6817   -0.5889    8.6806 C   0  0  0  0  0  0  0  0  0  0  0  0
   43.2624   -0.4438    8.1214 C   0  0  2  0  0  0  0  0  0  0  0  0
   46.1296   -2.0534   10.0528 N   0  0  0  0  0  0  0  0  0  0  0  0
   43.2322    0.7868    7.3357 N   0  0  0  0  0  0  0  0  0  0  0  0
   41.3931   -1.6117   11.2045 O   0  0  0  0  0  0  0  0  0  0  0  0
   43.8079   -3.0893   11.4098 O   0  0  0  0  0  0  0  0  0  0  0  0
  1  2  1  0  0  0  0
  1 12  1  6  0  0  0
  1 13  1  0  0  0  0
  2  3  1  0  0  0  0
  2 10  1  6  0  0  0
  4  3  1  6  0  0  0
  4  5  1  0  0  0  0
  4 14  1  0  0  0  0
  5  6  1  0  0  0  0
  5 13  1  1  0  0  0
  6  7  1  0  0  0  0
  6 15  1  1  0  0  0
  7  8  1  0  0  0  0
  7 11  1  1  0  0  0
  8 14  1  0  0  0  0
  8 16  1  6  0  0  0
  9 11  1  0  0  0  0
 17 16  1  1  0  0  0
 17 18  1  0  0  0  0
 17 24  1  0  0  0  0
 18 19  1  0  0  0  0
 18 25  1  6  0  0  0
 19 20  1  0  0  0  0
 19 26  1  6  0  0  0
 20 21  1  0  0  0  0
 20 23  1  1  0  0  0
 21 22  1  1  0  0  0
 21 24  1  0  0  0  0
 22 27  1  0  0  0  0
 28 12  1  6  0  0  0
 28 29  1  0  0  0  0
 28 33  1  0  0  0  0
 29 30  1  0  0  0  0
 29 36  1  1  0  0  0
 30 31  1  0  0  0  0
 30 37  1  6  0  0  0
 31 32  1  0  0  0  0
 31 34  1  1  0  0  0
 32 33  1  0  0  0  0
 33 35  1  1  0  0  0
M  END
>  <CHROM.1>
174.35905991,60.12913881,-152.82310662,-178.86655716,-65.20316595,79.37264781
39.96678676,3.56705473,8.81440636,0.97896960,0.62572982,-2.94629679

>  <Name>
1yrj_lig

>  <RI>
0

>  <Rbt.Current_Directory>
/home/itssahil/PROJECTS/Mol_Feturizer/New_Systems/rnas/1yrj

>  <Rbt.Executable>
rbdock ($Id: //depot/dev/client3/rdock/2013.1/src/exe/rbdock.cxx#4 $)

>  <Rbt.Library>
libRbt.so (2013.1, Build901 2013/11/27)

>  <Rbt.Parameter_File>
/export/apps/rDock/src/rDock_2013.1_src/data/scripts/dock_solv.prm

>  <Rbt.Receptor>
prm/pocket_docking_7.prm

>  <SCORE>
-28.9654

>  <SCORE.INTER>
-23.9124

>  <SCORE.INTER.CONST>
1

>  <SCORE.INTER.POLAR>
-1.59759

>  <SCORE.INTER.ROT>
6

>  <SCORE.INTER.SOLV>
14.3459

>  <SCORE.INTER.VDW>
-22.9982

>  <SCORE.INTER.norm>
-0.64628

>  <SCORE.INTRA>
-5.05304

>  <SCORE.INTRA.DIHEDRAL>
-10.518

>  <SCORE.INTRA.DIHEDRAL.0>
15.6389

>  <SCORE.INTRA.POLAR>
0

>  <SCORE.INTRA.POLAR.0>
0

>  <SCORE.INTRA.REPUL>
0

>  <SCORE.INTRA.REPUL.0>
0

>  <SCORE.INTRA.SOLV>
-1.27694

>  <SCORE.INTRA.SOLV.lig_0>
-90.9181

>  <SCORE.INTRA.VDW>
0.844428

>  <SCORE.INTRA.VDW.0>
-3.14158

>  <SCORE.INTRA.norm>
-0.136569

>  <SCORE.RESTR>
0

>  <SCORE.RESTR.CAVITY>
0

>  <SCORE.RESTR.norm>
0

>  <SCORE.SYSTEM>
0

>  <SCORE.SYSTEM.CONST>
0

>  <SCORE.SYSTEM.DIHEDRAL>
0

>  <SCORE.SYSTEM.SOLV>
0

>  <SCORE.SYSTEM.norm>
0

>  <SCORE.heavy>
37

>  <SCORE.norm>
-0.782849

>  <RMSD>
10.115

$$$$
1yrj_lig
 OpenBabel11021811423D
libRbt.so/2013.1/901 2013/11/27
 37 40  0  0  0  0  0  0  0  0999 V2000
   39.6527    0.1003    9.4358 C   0  0  1  0  0  0  0  0  0  0  0  0
   38.3518    0.1634    8.6117 C   0  0  1  0  0  0  0  0  0  0  0  0
   38.3328    1.3747    7.6657 C   0  0  0  0  0  0  0  0  0  0  0  0
   38.5714    2.6801    8.4685 C   0  0  1  0  0  0  0  0  0  0  0  0
   39.9048    2.5921    9.2349 C   0  0  1  0  0  0  0  0  0  0  0  0
   40.1304    3.9432   10.0359 C   0  0  1  0  0  0  0  0  0  0  0  0
   40.1572    5.1277    9.0562 C   0  0  1  0  0  0  0  0  0  0  0  0
   38.8185    5.1417    8.2789 C   0  0  2  0  0  0  0  0  0  0  0  0
   41.6990    6.4834   10.5698 C   0  0  0  0  0  0  0  0  0  0  0  0
   38.1202   -1.0775    7.8543 N   0  0  0  0  0  0  0  0  0  0  0  0
   40.4199    6.3998    9.7979 N   0  0  0  0  0  0  0  0  0  0  0  0
   40.7991   -0.3219    8.6738 O   0  0  0  0  0  0  0  0  0  0  0  0
   39.8621    1.3993   10.1047 O   0  0  0  0  0  0  0  0  0  0  0  0
   38.6009    3.8753    7.5948 O   0  0  0  0  0  0  0  0  0  0  0  0
   39.0478    4.1520   10.9184 O   0  0  0  0  0  0  0  0  0  0  0  0
   38.7830    6.1788    7.2978 O   0  0  0  0  0  0  0  0  0  0  0  0
   37.4476    6.6684    7.0322 C   0  0  2  0  0  0  0  0  0  0  0  0
   37.4075    7.7879    5.9792 C   0  0  1  0  0  0  0  0  0  0  0  0
   38.0499    9.0915    6.5233 C   0  0  2  0  0  0  0  0  0  0  0  0
   37.3416    9.5260    7.7859 C   0  0  1  0  0  0  0  0  0  0  0  0
   37.4249    8.3916    8.8346 C   0  0  1  0  0  0  0  0  0  0  0  0
   36.6902    8.7277   10.1303 C   0  0  0  0  0  0  0  0  0  0  0  0
   37.9775   10.7643    8.2815 N   0  0  0  0  0  0  0  0  0  0  0  0
   36.8251    7.1639    8.2819 O   0  0  0  0  0  0  0  0  0  0  0  0
   38.0608    7.3154    4.7921 O   0  0  0  0  0  0  0  0  0  0  0  0
   37.9284   10.1339    5.5457 O   0  0  0  0  0  0  0  0  0  0  0  0
   37.3414    9.7906   10.7738 O   0  0  0  0  0  0  0  0  0  0  0  0
   42.2154   -0.3695    9.2271 C   0  0  1  0  0  0  0  0  0  0  0  0
   42.3384   -1.6697   10.0519 C   0  0  1  0  0  0  0  0  0  0  0  0
   43.7726   -1.8470   10.6066 C   0  0  2  0  0  0  0  0  0  0  0  0
   44.7811   -1.8733    9.4519 C   0  0  1  0  0  0  0  0  0  0  0  0
   44.6944   -0.5576    8.6368 C   0  0  0  0  0  0  0  0  0  0  0  0
   43.2728   -0.4106    8.0844 C   0  0  2  0  0  0  0  0  0  0  0  0
   46.1508   -2.0317    9.9897 N   0  0  0  0  0  0  0  0  0  0  0  0
   43.2369    0.8274    7.3104 N   0  0  0  0  0  0  0  0  0  0  0  0
   41.4177   -1.6119   11.1632 O   0  0  0  0  0  0  0  0  0  0  0  0
   43.8367   -3.0858   11.3455 O   0  0  0  0  0  0  0  0  0  0  0  0
  1  2  1  0  0  0  0
  1 12  1  6  0  0  0
  1 13  1  0  0  0  0
  2  3  1  0  0  0  0
  2 10  1  6  0  0  0
  4  3  1  6  0  0  0
  4  5  1  0  0  0  0
  4 14  1  0  0  0  0
  5  6  1  0  0  0  0
  5 13  1  1  0  0  0
  6  7  1  0  0  0  0
  6 15  1  1  0  0  0
  7  8  1  0  0  0  0
  7 11  1  1  0  0  0
  8 14  1  0  0  0  0
  8 16  1  6  0  0  0
  9 11  1  0  0  0  0
 17 16  1  1  0  0  0
 17 18  1  0  0  0  0
 17 24  1  0  0  0  0
 18 19  1  0  0  0  0
 18 25  1  6  0  0  0
 19 20  1  0  0  0  0
 19 26  1  6  0  0  0
 20 21  1  0  0  0  0
 20 23  1  1  0  0  0
 21 22  1  1  0  0  0
 21 24  1  0  0  0  0
 22 27  1  0  0  0  0
 28 12  1  6  0  0  0
 28 29  1  0  0  0  0
 28 33  1  0  0  0  0
 29 30  1  0  0  0  0
 29 36  1  1  0  0  0
 30 31  1  0  0  0  0
 30 37  1  6  0  0  0
 31 32  1  0  0  0  0
 31 34  1  1  0  0  0
 32 33  1  0  0  0  0
 33 35  1  1  0  0  0
M  END
>  <CHROM.1>
175.42078144,59.41961895,-151.06985946,179.83178189,-66.34712718,80.06900258
39.96118720,3.57742012,8.74972884,0.98364779,0.60702887,-2.96353543

>  <Name>
1yrj_lig

>  <RI>
0

>  <Rbt.Current_Directory>
/home/itssahil/PROJECTS/Mol_Feturizer/New_Systems/rnas/1yrj

>  <Rbt.Executable>
rbdock ($Id: //depot/dev/client3/rdock/2013.1/src/exe/rbdock.cxx#4 $)

>  <Rbt.Library>
libRbt.so (2013.1, Build901 2013/11/27)

>  <Rbt.Parameter_File>
/export/apps/rDock/src/rDock_2013.1_src/data/scripts/dock_solv.prm

>  <Rbt.Receptor>
prm/pocket_docking_5.prm

>  <SCORE>
-28.8967

>  <SCORE.INTER>
-24.0617

>  <SCORE.INTER.CONST>
1

>  <SCORE.INTER.POLAR>
-1.65894

>  <SCORE.INTER.ROT>
6

>  <SCORE.INTER.SOLV>
14.4561

>  <SCORE.INTER.VDW>
-22.93

>  <SCORE.INTER.norm>
-0.650316

>  <SCORE.INTRA>
-4.835

>  <SCORE.INTRA.DIHEDRAL>
-10.0895

>  <SCORE.INTRA.DIHEDRAL.0>
15.6389

>  <SCORE.INTRA.POLAR>
0

>  <SCORE.INTRA.POLAR.0>
0

>  <SCORE.INTRA.REPUL>
0

>  <SCORE.INTRA.REPUL.0>
0

>  <SCORE.INTRA.SOLV>
-1.2114

>  <SCORE.INTRA.SOLV.lig_0>
-90.9181

>  <SCORE.INTRA.VDW>
0.815462

>  <SCORE.INTRA.VDW.0>
-3.14158

>  <SCORE.INTRA.norm>
-0.130676

>  <SCORE.RESTR>
0

>  <SCORE.RESTR.CAVITY>
0

>  <SCORE.RESTR.norm>
0

>  <SCORE.SYSTEM>
0

>  <SCORE.SYSTEM.CONST>
0

>  <SCORE.SYSTEM.DIHEDRAL>
0

>  <SCORE.SYSTEM.SOLV>
0

>  <SCORE.SYSTEM.norm>
0

>  <SCORE.heavy>
37

>  <SCORE.norm>
-0.780991

>  <RMSD>
10.117

$$$$
1yrj_lig
 OpenBabel11021811423D
libRbt.so/2013.1/901 2013/11/27
 37 40  0  0  0  0  0  0  0  0999 V2000
   39.0135   -0.0237    9.5704 C   0  0  1  0  0  0  0  0  0  0  0  0
   37.8977    0.2215    8.5358 C   0  0  1  0  0  0  0  0  0  0  0  0
   38.2357    1.3905    7.5970 C   0  0  0  0  0  0  0  0  0  0  0  0
   38.5453    2.6650    8.4249 C   0  0  1  0  0  0  0  0  0  0  0  0
   39.6984    2.3884    9.4082 C   0  0  1  0  0  0  0  0  0  0  0  0
   40.0031    3.7099   10.2320 C   0  0  1  0  0  0  0  0  0  0  0  0
   40.3869    4.8441    9.2678 C   0  0  1  0  0  0  0  0  0  0  0  0
   39.2185    5.0483    8.2730 C   0  0  2  0  0  0  0  0  0  0  0  0
   41.9266    6.0173   10.9290 C   0  0  0  0  0  0  0  0  0  0  0  0
   37.5977   -0.9891    7.7537 N   0  0  0  0  0  0  0  0  0  0  0  0
   40.7248    6.0800   10.0397 N   0  0  0  0  0  0  0  0  0  0  0  0
   40.1874   -0.6471    9.0169 O   0  0  0  0  0  0  0  0  0  0  0  0
   39.3162    1.2450   10.2614 O   0  0  0  0  0  0  0  0  0  0  0  0
   38.9157    3.8127    7.5656 O   0  0  0  0  0  0  0  0  0  0  0  0
   38.8361    4.1163   10.9158 O   0  0  0  0  0  0  0  0  0  0  0  0
   39.5180    6.0471    7.2972 O   0  0  0  0  0  0  0  0  0  0  0  0
   38.3527    6.5041    6.5713 C   0  0  2  0  0  0  0  0  0  0  0  0
   38.6990    7.2847    5.2929 C   0  0  1  0  0  0  0  0  0  0  0  0
   39.3390    8.6574    5.6312 C   0  0  2  0  0  0  0  0  0  0  0  0
   38.4027    9.4601    6.5052 C   0  0  1  0  0  0  0  0  0  0  0  0
   38.0974    8.6619    7.7948 C   0  0  1  0  0  0  0  0  0  0  0  0
   37.1162    9.3807    8.7181 C   0  0  0  0  0  0  0  0  0  0  0  0
   39.0405   10.7569    6.8136 N   0  0  0  0  0  0  0  0  0  0  0  0
   37.5094    7.3577    7.4401 O   0  0  0  0  0  0  0  0  0  0  0  0
   39.5595    6.4693    4.4844 O   0  0  0  0  0  0  0  0  0  0  0  0
   39.5796    9.3890    4.4214 O   0  0  0  0  0  0  0  0  0  0  0  0
   36.8693    8.5852    9.8468 O   0  0  0  0  0  0  0  0  0  0  0  0
   41.4555   -0.9240    9.8103 C   0  0  1  0  0  0  0  0  0  0  0  0
   41.3214   -2.3447   10.4016 C   0  0  1  0  0  0  0  0  0  0  0  0
   42.5981   -2.7510   11.1768 C   0  0  2  0  0  0  0  0  0  0  0  0
   43.8159   -2.6939   10.2469 C   0  0  1  0  0  0  0  0  0  0  0  0
   43.9845   -1.2633    9.6746 C   0  0  0  0  0  0  0  0  0  0  0  0
   42.7176   -0.8883    8.8985 C   0  0  2  0  0  0  0  0  0  0  0  0
   45.0342   -3.0726   10.9971 N   0  0  0  0  0  0  0  0  0  0  0  0
   42.9223    0.4544    8.3619 N   0  0  0  0  0  0  0  0  0  0  0  0
   40.2002   -2.3726   11.3117 O   0  0  0  0  0  0  0  0  0  0  0  0
   42.4279   -4.0918   11.6848 O   0  0  0  0  0  0  0  0  0  0  0  0
  1  2  1  0  0  0  0
  1 12  1  6  0  0  0
  1 13  1  0  0  0  0
  2  3  1  0  0  0  0
  2 10  1  6  0  0  0
  4  3  1  6  0  0  0
  4  5  1  0  0  0  0
  4 14  1  0  0  0  0
  5  6  1  0  0  0  0
  5 13  1  1  0  0  0
  6  7  1  0  0  0  0
  6 15  1  6  0  0  0
  7  8  1  0  0  0  0
  7 11  1  1  0  0  0
  8 14  1  0  0  0  0
  8 16  1  6  0  0  0
  9 11  1  0  0  0  0
 17 16  1  1  0  0  0
 17 18  1  0  0  0  0
 17 24  1  0  0  0  0
 18 19  1  0  0  0  0
 18 25  1  6  0  0  0
 19 20  1  0  0  0  0
 19 26  1  6  0  0  0
 20 21  1  0  0  0  0
 20 23  1  1  0  0  0
 21 22  1  1  0  0  0
 21 24  1  0  0  0  0
 22 27  1  0  0  0  0
 28 12  1  6  0  0  0
 28 29  1  0  0  0  0
 28 33  1  0  0  0  0
 29 30  1  0  0  0  0
 29 36  1  1  0  0  0
 30 31  1  0  0  0  0
 30 37  1  6  0  0  0
 31 32  1  0  0  0  0
 31 34  1  1  0  0  0
 32 33  1  0  0  0  0
 33 35  1  1  0  0  0
M  END
>  <CHROM.1>
176.44705987,64.66292804,-165.31903228,-164.81309326,178.77780377,91.14856675
39.95267720,3.23433018,8.68290248,1.26151548,0.21155488,2.90021295

>  <Name>
1yrj_lig

>  <RI>
0

>  <Rbt.Current_Directory>
/home/itssahil/PROJECTS/Mol_Feturizer/New_Systems/rnas/1yrj

>  <Rbt.Executable>
rbdock ($Id: //depot/dev/client3/rdock/2013.1/src/exe/rbdock.cxx#4 $)

>  <Rbt.Library>
libRbt.so (2013.1, Build901 2013/11/27)

>  <Rbt.Parameter_File>
/export/apps/rDock/src/rDock_2013.1_src/data/scripts/dock_solv.prm

>  <Rbt.Receptor>
prm/pocket_docking_3.prm

>  <SCORE>
-25.9045

>  <SCORE.INTER>
-20.5436

>  <SCORE.INTER.CONST>
1

>  <SCORE.INTER.POLAR>
-1.08343

>  <SCORE.INTER.ROT>
6

>  <SCORE.INTER.SOLV>
13.1898

>  <SCORE.INTER.VDW>
-22.0809

>  <SCORE.INTER.norm>
-0.555232

>  <SCORE.INTRA>
-5.38774

>  <SCORE.INTRA.DIHEDRAL>
-9.54991

>  <SCORE.INTRA.DIHEDRAL.0>
15.6389

>  <SCORE.INTRA.POLAR>
0

>  <SCORE.INTRA.POLAR.0>
0

>  <SCORE.INTRA.REPUL>
0

>  <SCORE.INTRA.REPUL.0>
0

>  <SCORE.INTRA.SOLV>
-2.39944

>  <SCORE.INTRA.SOLV.lig_0>
-90.9181

>  <SCORE.INTRA.VDW>
0.586935

>  <SCORE.INTRA.VDW.0>
-3.14158

>  <SCORE.INTRA.norm>
-0.145615

>  <SCORE.RESTR>
0.0268297

>  <SCORE.RESTR.CAVITY>
0.0268297

>  <SCORE.RESTR.norm>
0.000725127

>  <SCORE.SYSTEM>
0

>  <SCORE.SYSTEM.CONST>
0

>  <SCORE.SYSTEM.DIHEDRAL>
0

>  <SCORE.SYSTEM.SOLV>
0

>  <SCORE.SYSTEM.norm>
0

>  <SCORE.heavy>
37

>  <SCORE.norm>
-0.700121

>  <RMSD>
10.120

$$$$
1yrj_lig
 OpenBabel11021811423D
libRbt.so/2013.1/901 2013/11/27
 37 40  0  0  0  0  0  0  0  0999 V2000
   39.3394    0.7993    9.1020 C   0  0  1  0  0  0  0  0  0  0  0  0
   38.1800    1.1611    8.1532 C   0  0  1  0  0  0  0  0  0  0  0  0
   38.4016    2.5214    7.4729 C   0  0  0  0  0  0  0  0  0  0  0  0
   38.6356    3.6194    8.5430 C   0  0  1  0  0  0  0  0  0  0  0  0
   39.8332    3.2404    9.4347 C   0  0  1  0  0  0  0  0  0  0  0  0
   40.0587    4.3847   10.5107 C   0  0  1  0  0  0  0  0  0  0  0  0
   40.3279    5.7199    9.7978 C   0  0  1  0  0  0  0  0  0  0  0  0
   39.1202    6.0293    8.8801 C   0  0  2  0  0  0  0  0  0  0  0  0
   42.0083    6.9716   11.2525 C   0  0  0  0  0  0  0  0  0  0  0  0
   37.9519    0.1169    7.1410 N   0  0  0  0  0  0  0  0  0  0  0  0
   40.5915    6.7940   10.8049 N   0  0  0  0  0  0  0  0  0  0  0  0
   40.5418    0.3994    8.4183 O   0  0  0  0  0  0  0  0  0  0  0  0
   39.5633    1.9192   10.0372 O   0  0  0  0  0  0  0  0  0  0  0  0
   38.8933    4.9450    7.9357 O   0  0  0  0  0  0  0  0  0  0  0  0
   38.8834    4.5467   11.2769 O   0  0  0  0  0  0  0  0  0  0  0  0
   39.3154    7.2281    8.1288 O   0  0  0  0  0  0  0  0  0  0  0  0
   38.3140    8.2381    8.3943 C   0  0  2  0  0  0  0  0  0  0  0  0
   36.9139    7.8557    7.8872 C   0  0  1  0  0  0  0  0  0  0  0  0
   36.8620    7.8514    6.3362 C   0  0  2  0  0  0  0  0  0  0  0  0
   37.2664    9.2072    5.8042 C   0  0  1  0  0  0  0  0  0  0  0  0
   38.6888    9.5498    6.3068 C   0  0  1  0  0  0  0  0  0  0  0  0
   39.1605   10.9299    5.8545 C   0  0  0  0  0  0  0  0  0  0  0  0
   37.2118    9.1704    4.3280 N   0  0  0  0  0  0  0  0  0  0  0  0
   38.7102    9.5269    7.7804 O   0  0  0  0  0  0  0  0  0  0  0  0
   36.5635    6.5811    8.4454 O   0  0  0  0  0  0  0  0  0  0  0  0
   35.5264    7.5652    5.8988 O   0  0  0  0  0  0  0  0  0  0  0  0
   40.4570   11.1614    6.3376 O   0  0  0  0  0  0  0  0  0  0  0  0
   41.6246   -0.4680    9.0424 C   0  0  1  0  0  0  0  0  0  0  0  0
   42.2423    0.3410   10.2043 C   0  0  1  0  0  0  0  0  0  0  0  0
   43.3164   -0.4853   10.9525 C   0  0  2  0  0  0  0  0  0  0  0  0
   42.6971   -1.7776   11.4979 C   0  0  1  0  0  0  0  0  0  0  0  0
   42.1054   -2.6177   10.3374 C   0  0  0  0  0  0  0  0  0  0  0  0
   41.0344   -1.7877    9.6217 C   0  0  2  0  0  0  0  0  0  0  0  0
   43.7316   -2.5677   12.2021 N   0  0  0  0  0  0  0  0  0  0  0  0
   40.4905   -2.6176    8.5502 N   0  0  0  0  0  0  0  0  0  0  0  0
   42.8636    1.5312    9.6721 O   0  0  0  0  0  0  0  0  0  0  0  0
   43.8406    0.3074   12.0395 O   0  0  0  0  0  0  0  0  0  0  0  0
  1  2  1  0  0  0  0
  1 12  1  6  0  0  0
  1 13  1  0  0  0  0
  2  3  1  0  0  0  0
  2 10  1  6  0  0  0
  4  3  1  6  0  0  0
  4  5  1  0  0  0  0
  4 14  1  0  0  0  0
  5  6  1  0  0  0  0
  5 13  1  1  0  0  0
  6  7  1  0  0  0  0
  6 15  1  6  0  0  0
  7  8  1  0  0  0  0
  7 11  1  1  0  0  0
  8 14  1  0  0  0  0
  8 16  1  6  0  0  0
  9 11  1  0  0  0  0
 17 16  1  6  0  0  0
 17 18  1  0  0  0  0
 17 24  1  0  0  0  0
 18 19  1  0  0  0  0
 18 25  1  6  0  0  0
 19 20  1  0  0  0  0
 19 26  1  1  0  0  0
 20 21  1  0  0  0  0
 20 23  1  6  0  0  0
 21 22  1  1  0  0  0
 21 24  1  0  0  0  0
 22 27  1  0  0  0  0
 28 12  1  1  0  0  0
 28 29  1  0  0  0  0
 28 33  1  0  0  0  0
 29 30  1  0  0  0  0
 29 36  1  6  0  0  0
 30 31  1  0  0  0  0
 30 37  1  1  0  0  0
 31 32  1  0  0  0  0
 31 34  1  6  0  0  0
 32 33  1  0  0  0  0
 33 35  1  6  0  0  0
M  END
>  <CHROM.1>
-156.67112484,88.28581176,-119.78055237,-67.99047843,-179.48646252,-65.16446388
39.76273157,4.05590186,8.76741560,1.11323434,0.69637790,3.11078647

>  <Name>
1yrj_lig

>  <RI>
0

>  <Rbt.Current_Directory>
/home/itssahil/PROJECTS/Mol_Feturizer/New_Systems/rnas/1yrj

>  <Rbt.Executable>
rbdock ($Id: //depot/dev/client3/rdock/2013.1/src/exe/rbdock.cxx#4 $)

>  <Rbt.Library>
libRbt.so (2013.1, Build901 2013/11/27)

>  <Rbt.Parameter_File>
/export/apps/rDock/src/rDock_2013.1_src/data/scripts/dock_solv.prm

>  <Rbt.Receptor>
prm/pocket_docking_3.prm

>  <SCORE>
-29.2561

>  <SCORE.INTER>
-26.8636

>  <SCORE.INTER.CONST>
1

>  <SCORE.INTER.POLAR>
-2.45852

>  <SCORE.INTER.ROT>
6

>  <SCORE.INTER.SOLV>
20.0471

>  <SCORE.INTER.VDW>
-23.9963

>  <SCORE.INTER.norm>
-0.726042

>  <SCORE.INTRA>
-2.39252

>  <SCORE.INTRA.DIHEDRAL>
-5.048

>  <SCORE.INTRA.DIHEDRAL.0>
15.6389

>  <SCORE.INTRA.POLAR>
0

>  <SCORE.INTRA.POLAR.0>
0

>  <SCORE.INTRA.REPUL>
0

>  <SCORE.INTRA.REPUL.0>
0

>  <SCORE.INTRA.SOLV>
-0.762432

>  <SCORE.INTRA.SOLV.lig_0>
-90.9181

>  <SCORE.INTRA.VDW>
0.512698

>  <SCORE.INTRA.VDW.0>
-3.14158

>  <SCORE.INTRA.norm>
-0.0646627

>  <SCORE.RESTR>
0

>  <SCORE.RESTR.CAVITY>
0

>  <SCORE.RESTR.norm>
0

>  <SCORE.SYSTEM>
0

>  <SCORE.SYSTEM.CONST>
0

>  <SCORE.SYSTEM.DIHEDRAL>
0

>  <SCORE.SYSTEM.SOLV>
0

>  <SCORE.SYSTEM.norm>
0

>  <SCORE.heavy>
37

>  <SCORE.norm>
-0.790705

>  <RMSD>
10.121

$$$$
1yrj_lig
 OpenBabel11021811423D
libRbt.so/2013.1/901 2013/11/27
 37 40  0  0  0  0  0  0  0  0999 V2000
   39.3711    0.1471    9.6992 C   0  0  1  0  0  0  0  0  0  0  0  0
   38.2072    0.2949    8.6996 C   0  0  1  0  0  0  0  0  0  0  0  0
   38.4462    1.4470    7.7107 C   0  0  0  0  0  0  0  0  0  0  0  0
   38.7138    2.7646    8.4839 C   0  0  1  0  0  0  0  0  0  0  0  0
   39.9148    2.5856    9.4319 C   0  0  1  0  0  0  0  0  0  0  0  0
   40.1748    3.9497   10.1996 C   0  0  1  0  0  0  0  0  0  0  0  0
   40.4604    5.0687    9.1848 C   0  0  1  0  0  0  0  0  0  0  0  0
   39.2478    5.1742    8.2284 C   0  0  2  0  0  0  0  0  0  0  0  0
   41.9403    6.3535   10.8175 C   0  0  0  0  0  0  0  0  0  0  0  0
   37.9473   -0.9568    7.9697 N   0  0  0  0  0  0  0  0  0  0  0  0
   40.7564    6.3473    9.9023 N   0  0  0  0  0  0  0  0  0  0  0  0
   40.5573   -0.4307    9.1230 O   0  0  0  0  0  0  0  0  0  0  0  0
   39.6273    1.4538   10.3361 O   0  0  0  0  0  0  0  0  0  0  0  0
   38.9891    3.8999    7.5739 O   0  0  0  0  0  0  0  0  0  0  0  0
   39.0121    4.3159   10.9129 O   0  0  0  0  0  0  0  0  0  0  0  0
   39.4564    6.1530    7.2096 O   0  0  0  0  0  0  0  0  0  0  0  0
   38.9313    7.4566    7.5537 C   0  0  2  0  0  0  0  0  0  0  0  0
   37.3988    7.5395    7.4619 C   0  0  1  0  0  0  0  0  0  0  0  0
   36.9210    7.4568    5.9877 C   0  0  2  0  0  0  0  0  0  0  0  0
   37.5610    8.5602    5.1768 C   0  0  1  0  0  0  0  0  0  0  0  0
   39.1003    8.4320    5.2649 C   0  0  1  0  0  0  0  0  0  0  0  0
   39.8311    9.5404    4.5105 C   0  0  0  0  0  0  0  0  0  0  0  0
   37.0914    8.4525    3.7799 N   0  0  0  0  0  0  0  0  0  0  0  0
   39.5205    8.4947    6.6762 O   0  0  0  0  0  0  0  0  0  0  0  0
   36.8403    6.4957    8.2727 O   0  0  0  0  0  0  0  0  0  0  0  0
   35.4963    7.6125    5.9328 O   0  0  0  0  0  0  0  0  0  0  0  0
   41.2160    9.3479    4.6247 O   0  0  0  0  0  0  0  0  0  0  0  0
   41.9202   -0.4218    9.7989 C   0  0  1  0  0  0  0  0  0  0  0  0
   42.1348   -1.8246   10.4090 C   0  0  1  0  0  0  0  0  0  0  0  0
   43.5312   -1.9410   11.0669 C   0  0  2  0  0  0  0  0  0  0  0  0
   44.6241   -1.6589   10.0291 C   0  0  1  0  0  0  0  0  0  0  0  0
   44.4428   -0.2389    9.4347 C   0  0  0  0  0  0  0  0  0  0  0  0
   43.0624   -0.1512    8.7753 C   0  0  2  0  0  0  0  0  0  0  0  0
   45.9557   -1.7609   10.6671 N   0  0  0  0  0  0  0  0  0  0  0  0
   42.9375    1.1911    8.2136 N   0  0  0  0  0  0  0  0  0  0  0  0
   41.1283   -2.0588   11.4180 O   0  0  0  0  0  0  0  0  0  0  0  0
   43.6868   -3.2750   11.5968 O   0  0  0  0  0  0  0  0  0  0  0  0
  1  2  1  0  0  0  0
  1 12  1  6  0  0  0
  1 13  1  0  0  0  0
  2  3  1  0  0  0  0
  2 10  1  6  0  0  0
  4  3  1  6  0  0  0
  4  5  1  0  0  0  0
  4 14  1  0  0  0  0
  5  6  1  0  0  0  0
  5 13  1  1  0  0  0
  6  7  1  0  0  0  0
  6 15  1  6  0  0  0
  7  8  1  0  0  0  0
  7 11  1  1  0  0  0
  8 14  1  0  0  0  0
  8 16  1  6  0  0  0
  9 11  1  0  0  0  0
 17 16  1  6  0  0  0
 17 18  1  0  0  0  0
 17 24  1  0  0  0  0
 18 19  1  0  0  0  0
 18 25  1  1  0  0  0
 19 20  1  0  0  0  0
 19 26  1  1  0  0  0
 20 21  1  0  0  0  0
 20 23  1  6  0  0  0
 21 22  1  6  0  0  0
 21 24  1  0  0  0  0
 22 27  1  0  0  0  0
 28 12  1  6  0  0  0
 28 29  1  0  0  0  0
 28 33  1  0  0  0  0
 29 30  1  0  0  0  0
 29 36  1  1  0  0  0
 30 31  1  0  0  0  0
 30 37  1  6  0  0  0
 31 32  1  0  0  0  0
 31 34  1  1  0  0  0
 32 33  1  0  0  0  0
 33 35  1  1  0  0  0
M  END
>  <CHROM.1>
166.85441094,60.77105594,-93.46177839,-74.71003803,-179.36994198,101.37463130
40.14888214,3.43199459,8.44008896,1.16927462,0.14793534,2.78209751

>  <Name>
1yrj_lig

>  <RI>
0

>  <Rbt.Current_Directory>
/home/itssahil/PROJECTS/Mol_Feturizer/New_Systems/rnas/1yrj

>  <Rbt.Executable>
rbdock ($Id: //depot/dev/client3/rdock/2013.1/src/exe/rbdock.cxx#4 $)

>  <Rbt.Library>
libRbt.so (2013.1, Build901 2013/11/27)

>  <Rbt.Parameter_File>
/export/apps/rDock/src/rDock_2013.1_src/data/scripts/dock_solv.prm

>  <Rbt.Receptor>
prm/pocket_docking_6.prm

>  <SCORE>
-27.4574

>  <SCORE.INTER>
-25.8928

>  <SCORE.INTER.CONST>
1

>  <SCORE.INTER.POLAR>
-2.90206

>  <SCORE.INTER.ROT>
6

>  <SCORE.INTER.SOLV>
18.5862

>  <SCORE.INTER.VDW>
-21.3837

>  <SCORE.INTER.norm>
-0.699806

>  <SCORE.INTRA>
-1.56454

>  <SCORE.INTRA.DIHEDRAL>
-3.86966

>  <SCORE.INTRA.DIHEDRAL.0>
15.6389

>  <SCORE.INTRA.POLAR>
0

>  <SCORE.INTRA.POLAR.0>
0

>  <SCORE.INTRA.REPUL>
0

>  <SCORE.INTRA.REPUL.0>
0

>  <SCORE.INTRA.SOLV>
-0.875173

>  <SCORE.INTRA.SOLV.lig_0>
-90.9181

>  <SCORE.INTRA.VDW>
0.807875

>  <SCORE.INTRA.VDW.0>
-3.14158

>  <SCORE.INTRA.norm>
-0.042285

>  <SCORE.RESTR>
0

>  <SCORE.RESTR.CAVITY>
0

>  <SCORE.RESTR.norm>
0

>  <SCORE.SYSTEM>
0

>  <SCORE.SYSTEM.CONST>
0

>  <SCORE.SYSTEM.DIHEDRAL>
0

>  <SCORE.SYSTEM.SOLV>
0

>  <SCORE.SYSTEM.norm>
0

>  <SCORE.heavy>
37

>  <SCORE.norm>
-0.742091

>  <RMSD>
10.126

$$$$
1yrj_lig
 OpenBabel11021811423D
libRbt.so/2013.1/901 2013/11/27
 37 40  0  0  0  0  0  0  0  0999 V2000
   39.6633    0.1010    9.4495 C   0  0  1  0  0  0  0  0  0  0  0  0
   38.3712    0.1777    8.6129 C   0  0  1  0  0  0  0  0  0  0  0  0
   38.3613    1.4052    7.6880 C   0  0  0  0  0  0  0  0  0  0  0  0
   38.5906    2.6967    8.5158 C   0  0  1  0  0  0  0  0  0  0  0  0
   39.9159    2.5961    9.2945 C   0  0  1  0  0  0  0  0  0  0  0  0
   40.1321    3.9332   10.1213 C   0  0  1  0  0  0  0  0  0  0  0  0
   40.1683    5.1345    9.1626 C   0  0  1  0  0  0  0  0  0  0  0  0
   38.8380    5.1613    8.3716 C   0  0  2  0  0  0  0  0  0  0  0  0
   41.7632    6.5342   10.5781 C   0  0  0  0  0  0  0  0  0  0  0  0
   38.1484   -1.0500    7.8318 N   0  0  0  0  0  0  0  0  0  0  0  0
   40.4223    6.3937    9.9290 N   0  0  0  0  0  0  0  0  0  0  0  0
   40.8180   -0.3073    8.6925 O   0  0  0  0  0  0  0  0  0  0  0  0
   39.8648    1.3883   10.1430 O   0  0  0  0  0  0  0  0  0  0  0  0
   38.6285    3.9069    7.6633 O   0  0  0  0  0  0  0  0  0  0  0  0
   39.0400    4.1261   10.9957 O   0  0  0  0  0  0  0  0  0  0  0  0
   38.8121    6.2153    7.4083 O   0  0  0  0  0  0  0  0  0  0  0  0
   37.4766    6.6897    7.1163 C   0  0  2  0  0  0  0  0  0  0  0  0
   37.4437    7.8017    6.0551 C   0  0  1  0  0  0  0  0  0  0  0  0
   38.0637    9.1153    6.6013 C   0  0  2  0  0  0  0  0  0  0  0  0
   37.3293    9.5510    7.8486 C   0  0  1  0  0  0  0  0  0  0  0  0
   37.4057    8.4245    8.9062 C   0  0  1  0  0  0  0  0  0  0  0  0
   36.6453    8.7619   10.1868 C   0  0  0  0  0  0  0  0  0  0  0  0
   37.9442   10.7990    8.3465 N   0  0  0  0  0  0  0  0  0  0  0  0
   36.8277    7.1872    8.3517 O   0  0  0  0  0  0  0  0  0  0  0  0
   38.1221    7.3279    4.8828 O   0  0  0  0  0  0  0  0  0  0  0  0
   37.9488   10.1498    5.6147 O   0  0  0  0  0  0  0  0  0  0  0  0
   37.2441    9.8683   10.8073 O   0  0  0  0  0  0  0  0  0  0  0  0
   42.2281   -0.3663    9.2605 C   0  0  1  0  0  0  0  0  0  0  0  0
   42.3327   -1.6686   10.0846 C   0  0  1  0  0  0  0  0  0  0  0  0
   43.7597   -1.8573   10.6540 C   0  0  2  0  0  0  0  0  0  0  0  0
   44.7800   -1.8894    9.5099 C   0  0  1  0  0  0  0  0  0  0  0  0
   44.7117   -0.5719    8.6960 C   0  0  0  0  0  0  0  0  0  0  0  0
   43.2970   -0.4136    8.1288 C   0  0  2  0  0  0  0  0  0  0  0  0
   46.1428   -2.0588   10.0618 N   0  0  0  0  0  0  0  0  0  0  0  0
   43.2784    0.8258    7.3565 N   0  0  0  0  0  0  0  0  0  0  0  0
   41.4008   -1.6055   11.1862 O   0  0  0  0  0  0  0  0  0  0  0  0
   43.8068   -3.0976   11.3916 O   0  0  0  0  0  0  0  0  0  0  0  0
  1  2  1  0  0  0  0
  1 12  1  6  0  0  0
  1 13  1  0  0  0  0
  2  3  1  0  0  0  0
  2 10  1  6  0  0  0
  4  3  1  6  0  0  0
  4  5  1  0  0  0  0
  4 14  1  0  0  0  0
  5  6  1  0  0  0  0
  5 13  1  1  0  0  0
  6  7  1  0  0  0  0
  6 15  1  1  0  0  0
  7  8  1  0  0  0  0
  7 11  1  1  0  0  0
  8 14  1  0  0  0  0
  8 16  1  6  0  0  0
  9 11  1  0  0  0  0
 17 16  1  1  0  0  0
 17 18  1  0  0  0  0
 17 24  1  0  0  0  0
 18 19  1  0  0  0  0
 18 25  1  6  0  0  0
 19 20  1  0  0  0  0
 19 26  1  6  0  0  0
 20 21  1  0  0  0  0
 20 23  1  1  0  0  0
 21 22  1  1  0  0  0
 21 24  1  0  0  0  0
 22 27  1  0  0  0  0
 28 12  1  6  0  0  0
 28 29  1  0  0  0  0
 28 33  1  0  0  0  0
 29 30  1  0  0  0  0
 29 36  1  1  0  0  0
 30 31  1  0  0  0  0
 30 37  1  6  0  0  0
 31 32  1  0  0  0  0
 31 34  1  1  0  0  0
 32 33  1  0  0  0  0
 33 35  1  1  0  0  0
M  END
>  <CHROM.1>
175.53846288,66.69968777,-152.29102201,-178.64252020,-64.08236583,78.98889219
39.96809197,3.58971195,8.80582781,0.98353173,0.60860992,-2.95767643

>  <Name>
1yrj_lig

>  <RI>
0

>  <Rbt.Current_Directory>
/home/itssahil/PROJECTS/Mol_Feturizer/New_Systems/rnas/1yrj

>  <Rbt.Executable>
rbdock ($Id: //depot/dev/client3/rdock/2013.1/src/exe/rbdock.cxx#4 $)

>  <Rbt.Library>
libRbt.so (2013.1, Build901 2013/11/27)

>  <Rbt.Parameter_File>
/export/apps/rDock/src/rDock_2013.1_src/data/scripts/dock_solv.prm

>  <Rbt.Receptor>
prm/pocket_docking_4.prm

>  <SCORE>
-28.8799

>  <SCORE.INTER>
-23.5963

>  <SCORE.INTER.CONST>
1

>  <SCORE.INTER.POLAR>
-1.5986

>  <SCORE.INTER.ROT>
6

>  <SCORE.INTER.SOLV>
14.4731

>  <SCORE.INTER.VDW>
-22.8266

>  <SCORE.INTER.norm>
-0.637738

>  <SCORE.INTRA>
-5.28358

>  <SCORE.INTRA.DIHEDRAL>
-10.5345

>  <SCORE.INTRA.DIHEDRAL.0>
15.6389

>  <SCORE.INTRA.POLAR>
0

>  <SCORE.INTRA.POLAR.0>
0

>  <SCORE.INTRA.REPUL>
0

>  <SCORE.INTRA.REPUL.0>
0

>  <SCORE.INTRA.SOLV>
-1.26916

>  <SCORE.INTRA.SOLV.lig_0>
-90.9181

>  <SCORE.INTRA.VDW>
0.618269

>  <SCORE.INTRA.VDW.0>
-3.14158

>  <SCORE.INTRA.norm>
-0.1428

>  <SCORE.RESTR>
0

>  <SCORE.RESTR.CAVITY>
0

>  <SCORE.RESTR.norm>
0

>  <SCORE.SYSTEM>
0

>  <SCORE.SYSTEM.CONST>
0

>  <SCORE.SYSTEM.DIHEDRAL>
0

>  <SCORE.SYSTEM.SOLV>
0

>  <SCORE.SYSTEM.norm>
0

>  <SCORE.heavy>
37

>  <SCORE.norm>
-0.780538

>  <RMSD>
10.128

$$$$
1yrj_lig
 OpenBabel11021811423D
libRbt.so/2013.1/901 2013/11/27
 37 40  0  0  0  0  0  0  0  0999 V2000
   39.6994    0.2375    9.4410 C   0  0  1  0  0  0  0  0  0  0  0  0
   38.3879    0.2719    8.6322 C   0  0  1  0  0  0  0  0  0  0  0  0
   38.3264    1.4884    7.6948 C   0  0  0  0  0  0  0  0  0  0  0  0
   38.5402    2.7945    8.5037 C   0  0  1  0  0  0  0  0  0  0  0  0
   39.8842    2.7363    9.2542 C   0  0  1  0  0  0  0  0  0  0  0  0
   40.0837    4.0876   10.0618 C   0  0  1  0  0  0  0  0  0  0  0  0
   40.0683    5.2787    9.0900 C   0  0  1  0  0  0  0  0  0  0  0  0
   38.7208    5.2628    8.3281 C   0  0  2  0  0  0  0  0  0  0  0  0
   41.6682    6.7502   10.4247 C   0  0  0  0  0  0  0  0  0  0  0  0
   38.1800   -0.9696    7.8692 N   0  0  0  0  0  0  0  0  0  0  0  0
   40.3063    6.5524    9.8373 N   0  0  0  0  0  0  0  0  0  0  0  0
   40.8476   -0.1496    8.6632 O   0  0  0  0  0  0  0  0  0  0  0  0
   39.8827    1.5372   10.1163 O   0  0  0  0  0  0  0  0  0  0  0  0
   38.5284    3.9957    7.6379 O   0  0  0  0  0  0  0  0  0  0  0  0
   39.0063    4.2623   10.9580 O   0  0  0  0  0  0  0  0  0  0  0  0
   38.6469    6.3050    7.3545 O   0  0  0  0  0  0  0  0  0  0  0  0
   37.3479    6.9395    7.2944 C   0  0  2  0  0  0  0  0  0  0  0  0
   37.2343    7.9902    6.1778 C   0  0  1  0  0  0  0  0  0  0  0  0
   38.1079    9.2345    6.4891 C   0  0  2  0  0  0  0  0  0  0  0  0
   37.7026    9.8281    7.8187 C   0  0  1  0  0  0  0  0  0  0  0  0
   37.8558    8.7570    8.9244 C   0  0  1  0  0  0  0  0  0  0  0  0
   37.4200    9.2584   10.2994 C   0  0  0  0  0  0  0  0  0  0  0  0
   38.5534   11.0056    8.0889 N   0  0  0  0  0  0  0  0  0  0  0  0
   37.0305    7.5822    8.5909 O   0  0  0  0  0  0  0  0  0  0  0  0
   37.5960    7.3703    4.9353 O   0  0  0  0  0  0  0  0  0  0  0  0
   37.9206   10.2235    5.4674 O   0  0  0  0  0  0  0  0  0  0  0  0
   36.0699    9.6364   10.2519 O   0  0  0  0  0  0  0  0  0  0  0  0
   42.2704   -0.1686    9.2015 C   0  0  1  0  0  0  0  0  0  0  0  0
   42.4482   -1.4962    9.9707 C   0  0  1  0  0  0  0  0  0  0  0  0
   43.8936   -1.6441   10.5048 C   0  0  2  0  0  0  0  0  0  0  0  0
   44.8904   -1.5865    9.3411 C   0  0  1  0  0  0  0  0  0  0  0  0
   44.7483   -0.2426    8.5820 C   0  0  0  0  0  0  0  0  0  0  0  0
   43.3166   -0.1245    8.0487 C   0  0  2  0  0  0  0  0  0  0  0  0
   46.2703   -1.7173    9.8598 N   0  0  0  0  0  0  0  0  0  0  0  0
   43.2285    1.1420    7.3270 N   0  0  0  0  0  0  0  0  0  0  0  0
   41.5376   -1.5174   11.0915 O   0  0  0  0  0  0  0  0  0  0  0  0
   44.0095   -2.9091   11.1912 O   0  0  0  0  0  0  0  0  0  0  0  0
  1  2  1  0  0  0  0
  1 12  1  6  0  0  0
  1 13  1  0  0  0  0
  2  3  1  0  0  0  0
  2 10  1  6  0  0  0
  4  3  1  6  0  0  0
  4  5  1  0  0  0  0
  4 14  1  0  0  0  0
  5  6  1  0  0  0  0
  5 13  1  1  0  0  0
  6  7  1  0  0  0  0
  6 15  1  1  0  0  0
  7  8  1  0  0  0  0
  7 11  1  1  0  0  0
  8 14  1  0  0  0  0
  8 16  1  6  0  0  0
  9 11  1  0  0  0  0
 17 16  1  1  0  0  0
 17 18  1  0  0  0  0
 17 24  1  0  0  0  0
 18 19  1  0  0  0  0
 18 25  1  6  0  0  0
 19 20  1  0  0  0  0
 19 26  1  6  0  0  0
 20 21  1  0  0  0  0
 20 23  1  1  0  0  0
 21 22  1  1  0  0  0
 21 24  1  0  0  0  0
 22 27  1  0  0  0  0
 28 12  1  6  0  0  0
 28 29  1  0  0  0  0
 28 33  1  0  0  0  0
 29 30  1  0  0  0  0
 29 36  1  1  0  0  0
 30 31  1  0  0  0  0
 30 37  1  6  0  0  0
 31 32  1  0  0  0  0
 31 34  1  1  0  0  0
 32 33  1  0  0  0  0
 33 35  1  1  0  0  0
M  END
>  <CHROM.1>
175.65327246,68.26197542,-139.70131023,-175.76029652,59.96379851,81.99071352
39.97465663,3.76530350,8.74507799,1.05095978,0.37944229,-3.10943908

>  <Name>
1yrj_lig

>  <RI>
0

>  <Rbt.Current_Directory>
/home/itssahil/PROJECTS/Mol_Feturizer/New_Systems/rnas/1yrj

>  <Rbt.Executable>
rbdock ($Id: //depot/dev/client3/rdock/2013.1/src/exe/rbdock.cxx#4 $)

>  <Rbt.Library>
libRbt.so (2013.1, Build901 2013/11/27)

>  <Rbt.Parameter_File>
/export/apps/rDock/src/rDock_2013.1_src/data/scripts/dock_solv.prm

>  <Rbt.Receptor>
prm/pocket_docking_4.prm

>  <SCORE>
-27.3585

>  <SCORE.INTER>
-23.0146

>  <SCORE.INTER.CONST>
1

>  <SCORE.INTER.POLAR>
-1.61532

>  <SCORE.INTER.ROT>
6

>  <SCORE.INTER.SOLV>
15.5126

>  <SCORE.INTER.VDW>
-22.7295

>  <SCORE.INTER.norm>
-0.622017

>  <SCORE.INTRA>
-4.34387

>  <SCORE.INTRA.DIHEDRAL>
-7.73588

>  <SCORE.INTRA.DIHEDRAL.0>
15.6389

>  <SCORE.INTRA.POLAR>
0

>  <SCORE.INTRA.POLAR.0>
0

>  <SCORE.INTRA.REPUL>
0

>  <SCORE.INTRA.REPUL.0>
0

>  <SCORE.INTRA.SOLV>
-1.19138

>  <SCORE.INTRA.SOLV.lig_0>
-90.9181

>  <SCORE.INTRA.VDW>
0.119762

>  <SCORE.INTRA.VDW.0>
-3.14158

>  <SCORE.INTRA.norm>
-0.117402

>  <SCORE.RESTR>
0

>  <SCORE.RESTR.CAVITY>
0

>  <SCORE.RESTR.norm>
0

>  <SCORE.SYSTEM>
0

>  <SCORE.SYSTEM.CONST>
0

>  <SCORE.SYSTEM.DIHEDRAL>
0

>  <SCORE.SYSTEM.SOLV>
0

>  <SCORE.SYSTEM.norm>
0

>  <SCORE.heavy>
37

>  <SCORE.norm>
-0.739418

>  <RMSD>
10.131

$$$$
1yrj_lig
 OpenBabel11021811423D
libRbt.so/2013.1/901 2013/11/27
 37 40  0  0  0  0  0  0  0  0999 V2000
   39.3815    0.3846    9.6838 C   0  0  1  0  0  0  0  0  0  0  0  0
   38.2200    0.4597    8.6735 C   0  0  1  0  0  0  0  0  0  0  0  0
   38.4213    1.5927    7.6546 C   0  0  0  0  0  0  0  0  0  0  0  0
   38.6325    2.9404    8.3926 C   0  0  1  0  0  0  0  0  0  0  0  0
   39.8327    2.8341    9.3524 C   0  0  1  0  0  0  0  0  0  0  0  0
   40.0344    4.2278   10.0837 C   0  0  1  0  0  0  0  0  0  0  0  0
   40.2838    5.3287    9.0401 C   0  0  1  0  0  0  0  0  0  0  0  0
   39.0749    5.3609    8.0738 C   0  0  2  0  0  0  0  0  0  0  0  0
   41.2802    7.6753    8.9548 C   0  0  0  0  0  0  0  0  0  0  0  0
   38.0137   -0.8206    7.9769 N   0  0  0  0  0  0  0  0  0  0  0  0
   40.5252    6.6371    9.7237 N   0  0  0  0  0  0  0  0  0  0  0  0
   40.5933   -0.1624    9.1309 O   0  0  0  0  0  0  0  0  0  0  0  0
   39.5826    1.7172   10.2859 O   0  0  0  0  0  0  0  0  0  0  0  0
   38.8702    4.0601    7.4532 O   0  0  0  0  0  0  0  0  0  0  0  0
   38.8534    4.5680   10.7795 O   0  0  0  0  0  0  0  0  0  0  0  0
   39.2528    6.3188    7.0296 O   0  0  0  0  0  0  0  0  0  0  0  0
   38.0947    6.4511    6.1723 C   0  0  2  0  0  0  0  0  0  0  0  0
   38.2874    5.8152    4.7858 C   0  0  1  0  0  0  0  0  0  0  0  0
   39.3174    6.6127    3.9424 C   0  0  2  0  0  0  0  0  0  0  0  0
   38.8698    8.0502    3.8086 C   0  0  1  0  0  0  0  0  0  0  0  0
   38.7138    8.6700    5.2174 C   0  0  1  0  0  0  0  0  0  0  0  0
   38.2157   10.1130    5.1779 C   0  0  0  0  0  0  0  0  0  0  0  0
   39.8709    8.7834    3.0062 N   0  0  0  0  0  0  0  0  0  0  0  0
   37.7454    7.8804    5.9992 O   0  0  0  0  0  0  0  0  0  0  0  0
   38.6780    4.4463    4.9668 O   0  0  0  0  0  0  0  0  0  0  0  0
   39.4167    6.0378    2.6322 O   0  0  0  0  0  0  0  0  0  0  0  0
   36.9994   10.1679    4.4812 O   0  0  0  0  0  0  0  0  0  0  0  0
   40.7821   -1.6327    8.7889 C   0  0  1  0  0  0  0  0  0  0  0  0
   41.4801   -1.6937    7.4123 C   0  0  1  0  0  0  0  0  0  0  0  0
   41.7799   -3.1557    7.0013 C   0  0  2  0  0  0  0  0  0  0  0  0
   42.6670   -3.8252    8.0576 C   0  0  1  0  0  0  0  0  0  0  0  0
   41.9624   -3.8040    9.4382 C   0  0  0  0  0  0  0  0  0  0  0  0
   41.6901   -2.3486    9.8324 C   0  0  2  0  0  0  0  0  0  0  0  0
   42.9405   -5.2255    7.6641 N   0  0  0  0  0  0  0  0  0  0  0  0
   41.0441   -2.3702   11.1420 N   0  0  0  0  0  0  0  0  0  0  0  0
   40.6145   -1.1031    6.4183 O   0  0  0  0  0  0  0  0  0  0  0  0
   42.4521   -3.1519    5.7234 O   0  0  0  0  0  0  0  0  0  0  0  0
  1  2  1  0  0  0  0
  1 12  1  6  0  0  0
  1 13  1  0  0  0  0
  2  3  1  0  0  0  0
  2 10  1  6  0  0  0
  4  3  1  6  0  0  0
  4  5  1  0  0  0  0
  4 14  1  0  0  0  0
  5  6  1  0  0  0  0
  5 13  1  1  0  0  0
  6  7  1  0  0  0  0
  6 15  1  6  0  0  0
  7  8  1  0  0  0  0
  7 11  1  1  0  0  0
  8 14  1  0  0  0  0
  8 16  1  6  0  0  0
  9 11  1  0  0  0  0
 17 16  1  1  0  0  0
 17 18  1  0  0  0  0
 17 24  1  0  0  0  0
 18 19  1  0  0  0  0
 18 25  1  1  0  0  0
 19 20  1  0  0  0  0
 19 26  1  6  0  0  0
 20 21  1  0  0  0  0
 20 23  1  6  0  0  0
 21 22  1  6  0  0  0
 21 24  1  0  0  0  0
 22 27  1  0  0  0  0
 28 12  1  1  0  0  0
 28 29  1  0  0  0  0
 28 33  1  0  0  0  0
 29 30  1  0  0  0  0
 29 36  1  6  0  0  0
 30 31  1  0  0  0  0
 30 37  1  6  0  0  0
 31 32  1  0  0  0  0
 31 34  1  6  0  0  0
 32 33  1  0  0  0  0
 33 35  1  1  0  0  0
M  END
>  <CHROM.1>
-72.35420908,157.25966052,-175.26582286,-106.60836803,56.62536025,136.27229320
39.78047739,2.96656659,7.37781508,0.40709259,-1.31204101,1.70208123

>  <Name>
1yrj_lig

>  <RI>
0

>  <Rbt.Current_Directory>
/home/itssahil/PROJECTS/Mol_Feturizer/New_Systems/rnas/1yrj

>  <Rbt.Executable>
rbdock ($Id: //depot/dev/client3/rdock/2013.1/src/exe/rbdock.cxx#4 $)

>  <Rbt.Library>
libRbt.so (2013.1, Build901 2013/11/27)

>  <Rbt.Parameter_File>
/export/apps/rDock/src/rDock_2013.1_src/data/scripts/dock_solv.prm

>  <Rbt.Receptor>
prm/pocket_docking_7.prm

>  <SCORE>
-20.4454

>  <SCORE.INTER>
-20.2163

>  <SCORE.INTER.CONST>
1

>  <SCORE.INTER.POLAR>
-1.69639

>  <SCORE.INTER.ROT>
6

>  <SCORE.INTER.SOLV>
13.9267

>  <SCORE.INTER.VDW>
-20.0651

>  <SCORE.INTER.norm>
-0.546386

>  <SCORE.INTRA>
-0.229118

>  <SCORE.INTRA.DIHEDRAL>
-2.00689

>  <SCORE.INTRA.DIHEDRAL.0>
15.6389

>  <SCORE.INTRA.POLAR>
0

>  <SCORE.INTRA.POLAR.0>
0

>  <SCORE.INTRA.REPUL>
0

>  <SCORE.INTRA.REPUL.0>
0

>  <SCORE.INTRA.SOLV>
1.1611

>  <SCORE.INTRA.SOLV.lig_0>
-90.9181

>  <SCORE.INTRA.VDW>
0.193776

>  <SCORE.INTRA.VDW.0>
-3.14158

>  <SCORE.INTRA.norm>
-0.00619239

>  <SCORE.RESTR>
0

>  <SCORE.RESTR.CAVITY>
0

>  <SCORE.RESTR.norm>
0

>  <SCORE.SYSTEM>
0

>  <SCORE.SYSTEM.CONST>
0

>  <SCORE.SYSTEM.DIHEDRAL>
0

>  <SCORE.SYSTEM.SOLV>
0

>  <SCORE.SYSTEM.norm>
0

>  <SCORE.heavy>
37

>  <SCORE.norm>
-0.552578

>  <RMSD>
10.131

$$$$
1yrj_lig
 OpenBabel11021811423D
libRbt.so/2013.1/901 2013/11/27
 37 40  0  0  0  0  0  0  0  0999 V2000
   39.3101    0.0706    9.2606 C   0  0  1  0  0  0  0  0  0  0  0  0
   38.0983    0.3376    8.3464 C   0  0  1  0  0  0  0  0  0  0  0  0
   38.2995    1.5934    7.4833 C   0  0  0  0  0  0  0  0  0  0  0  0
   38.6215    2.8130    8.3857 C   0  0  1  0  0  0  0  0  0  0  0  0
   39.8673    2.5206    9.2433 C   0  0  1  0  0  0  0  0  0  0  0  0
   40.1819    3.7871   10.1461 C   0  0  1  0  0  0  0  0  0  0  0  0
   40.4280    5.0126    9.2511 C   0  0  1  0  0  0  0  0  0  0  0  0
   39.1693    5.2329    8.3774 C   0  0  2  0  0  0  0  0  0  0  0  0
   42.0393    6.1205   10.8890 C   0  0  0  0  0  0  0  0  0  0  0  0
   37.7870   -0.8214    7.4939 N   0  0  0  0  0  0  0  0  0  0  0  0
   40.7751    6.1996   10.0924 N   0  0  0  0  0  0  0  0  0  0  0  0
   40.4586   -0.4445    8.5615 O   0  0  0  0  0  0  0  0  0  0  0  0
   39.6136    1.2949   10.0273 O   0  0  0  0  0  0  0  0  0  0  0  0
   38.8628    4.0428    7.5971 O   0  0  0  0  0  0  0  0  0  0  0  0
   39.0616    4.0762   10.9560 O   0  0  0  0  0  0  0  0  0  0  0  0
   39.3366    6.3201    7.4666 O   0  0  0  0  0  0  0  0  0  0  0  0
   39.1849    7.6167    8.0906 C   0  0  2  0  0  0  0  0  0  0  0  0
   37.7182    8.0527    8.2405 C   0  0  1  0  0  0  0  0  0  0  0  0
   37.0822    8.3622    6.8592 C   0  0  2  0  0  0  0  0  0  0  0  0
   37.8833    9.4312    6.1519 C   0  0  1  0  0  0  0  0  0  0  0  0
   39.3451    8.9512    5.9901 C   0  0  1  0  0  0  0  0  0  0  0  0
   40.2409    9.9941    5.3255 C   0  0  0  0  0  0  0  0  0  0  0  0
   37.2572    9.7002    4.8408 N   0  0  0  0  0  0  0  0  0  0  0  0
   39.9141    8.6474    7.3154 O   0  0  0  0  0  0  0  0  0  0  0  0
   37.0103    7.0225    8.9452 O   0  0  0  0  0  0  0  0  0  0  0  0
   35.7411    8.8368    7.0408 O   0  0  0  0  0  0  0  0  0  0  0  0
   41.5409    9.4817    5.2014 O   0  0  0  0  0  0  0  0  0  0  0  0
   41.6282   -1.1368    9.2449 C   0  0  1  0  0  0  0  0  0  0  0  0
   42.2629   -0.1116   10.2103 C   0  0  1  0  0  0  0  0  0  0  0  0
   43.4287   -0.7428   11.0095 C   0  0  2  0  0  0  0  0  0  0  0  0
   42.9241   -1.9532   11.8040 C   0  0  1  0  0  0  0  0  0  0  0  0
   42.3173   -3.0075   10.8433 C   0  0  0  0  0  0  0  0  0  0  0  0
   41.1564   -2.3670   10.0753 C   0  0  2  0  0  0  0  0  0  0  0  0
   44.0456   -2.5583   12.5566 N   0  0  0  0  0  0  0  0  0  0  0  0
   40.6018   -3.3937    9.1971 N   0  0  0  0  0  0  0  0  0  0  0  0
   42.7766    1.0008    9.4456 O   0  0  0  0  0  0  0  0  0  0  0  0
   43.9667    0.2489   11.9104 O   0  0  0  0  0  0  0  0  0  0  0  0
  1  2  1  0  0  0  0
  1 12  1  6  0  0  0
  1 13  1  0  0  0  0
  2  3  1  0  0  0  0
  2 10  1  6  0  0  0
  4  3  1  6  0  0  0
  4  5  1  0  0  0  0
  4 14  1  0  0  0  0
  5  6  1  0  0  0  0
  5 13  1  1  0  0  0
  6  7  1  0  0  0  0
  6 15  1  1  0  0  0
  7  8  1  0  0  0  0
  7 11  1  1  0  0  0
  8 14  1  0  0  0  0
  8 16  1  6  0  0  0
  9 11  1  0  0  0  0
 17 16  1  6  0  0  0
 17 18  1  0  0  0  0
 17 24  1  0  0  0  0
 18 19  1  0  0  0  0
 18 25  1  6  0  0  0
 19 20  1  0  0  0  0
 19 26  1  1  0  0  0
 20 21  1  0  0  0  0
 20 23  1  6  0  0  0
 21 22  1  1  0  0  0
 21 24  1  0  0  0  0
 22 27  1  0  0  0  0
 28 12  1  1  0  0  0
 28 29  1  0  0  0  0
 28 33  1  0  0  0  0
 29 30  1  0  0  0  0
 29 36  1  6  0  0  0
 30 31  1  0  0  0  0
 30 37  1  1  0  0  0
 31 32  1  0  0  0  0
 31 34  1  6  0  0  0
 32 33  1  0  0  0  0
 33 35  1  6  0  0  0
M  END
>  <CHROM.1>
-162.74844572,63.62367960,-77.95520693,-82.19770277,-179.36329936,-61.56797381
39.99904673,3.57712606,8.74703442,1.22993395,0.49784564,2.96033427

>  <Name>
1yrj_lig

>  <RI>
0

>  <Rbt.Current_Directory>
/home/itssahil/PROJECTS/Mol_Feturizer/New_Systems/rnas/1yrj

>  <Rbt.Executable>
rbdock ($Id: //depot/dev/client3/rdock/2013.1/src/exe/rbdock.cxx#4 $)

>  <Rbt.Library>
libRbt.so (2013.1, Build901 2013/11/27)

>  <Rbt.Parameter_File>
/export/apps/rDock/src/rDock_2013.1_src/data/scripts/dock_solv.prm

>  <Rbt.Receptor>
prm/pocket_docking_3.prm

>  <SCORE>
-23.6683

>  <SCORE.INTER>
-19.1948

>  <SCORE.INTER.CONST>
1

>  <SCORE.INTER.POLAR>
-0.915943

>  <SCORE.INTER.ROT>
6

>  <SCORE.INTER.SOLV>
17.2085

>  <SCORE.INTER.VDW>
-23.0795

>  <SCORE.INTER.norm>
-0.518778

>  <SCORE.INTRA>
-5.0337

>  <SCORE.INTRA.DIHEDRAL>
-10.5241

>  <SCORE.INTRA.DIHEDRAL.0>
15.6389

>  <SCORE.INTRA.POLAR>
0

>  <SCORE.INTRA.POLAR.0>
0

>  <SCORE.INTRA.REPUL>
0

>  <SCORE.INTRA.REPUL.0>
0

>  <SCORE.INTRA.SOLV>
-0.723309

>  <SCORE.INTRA.SOLV.lig_0>
-90.9181

>  <SCORE.INTRA.VDW>
0.590002

>  <SCORE.INTRA.VDW.0>
-3.14158

>  <SCORE.INTRA.norm>
-0.136046

>  <SCORE.RESTR>
0.560186

>  <SCORE.RESTR.CAVITY>
0.560186

>  <SCORE.RESTR.norm>
0.0151402

>  <SCORE.SYSTEM>
0

>  <SCORE.SYSTEM.CONST>
0

>  <SCORE.SYSTEM.DIHEDRAL>
0

>  <SCORE.SYSTEM.SOLV>
0

>  <SCORE.SYSTEM.norm>
0

>  <SCORE.heavy>
37

>  <SCORE.norm>
-0.639684

>  <RMSD>
10.132

$$$$
1yrj_lig
 OpenBabel11021811423D
libRbt.so/2013.1/901 2013/11/27
 37 40  0  0  0  0  0  0  0  0999 V2000
   39.6670    0.1562    9.4631 C   0  0  1  0  0  0  0  0  0  0  0  0
   38.3501    0.1743    8.6625 C   0  0  1  0  0  0  0  0  0  0  0  0
   38.2980    1.3507    7.6746 C   0  0  0  0  0  0  0  0  0  0  0  0
   38.5352    2.6868    8.4258 C   0  0  1  0  0  0  0  0  0  0  0  0
   39.8838    2.6421    9.1689 C   0  0  1  0  0  0  0  0  0  0  0  0
   40.1075    4.0236    9.9170 C   0  0  1  0  0  0  0  0  0  0  0  0
   40.1008    5.1725    8.8955 C   0  0  1  0  0  0  0  0  0  0  0  0
   38.7477    5.1427    8.1442 C   0  0  2  0  0  0  0  0  0  0  0  0
   41.0067    7.5540    8.7772 C   0  0  0  0  0  0  0  0  0  0  0  0
   38.1198   -1.0956    7.9543 N   0  0  0  0  0  0  0  0  0  0  0  0
   40.3614    6.4733    9.5864 N   0  0  0  0  0  0  0  0  0  0  0  0
   40.8040   -0.2793    8.6946 O   0  0  0  0  0  0  0  0  0  0  0  0
   39.8726    1.4807   10.0812 O   0  0  0  0  0  0  0  0  0  0  0  0
   38.5332    3.8502    7.5098 O   0  0  0  0  0  0  0  0  0  0  0  0
   39.0391    4.2509   10.8122 O   0  0  0  0  0  0  0  0  0  0  0  0
   38.6806    6.1437    7.1277 O   0  0  0  0  0  0  0  0  0  0  0  0
   37.3498    6.6800    6.9411 C   0  0  2  0  0  0  0  0  0  0  0  0
   37.2771    7.7644    5.8537 C   0  0  1  0  0  0  0  0  0  0  0  0
   38.0088    9.0572    6.3026 C   0  0  2  0  0  0  0  0  0  0  0  0
   37.4126    9.5630    7.5962 C   0  0  1  0  0  0  0  0  0  0  0  0
   37.5275    8.4617    8.6767 C   0  0  1  0  0  0  0  0  0  0  0  0
   36.9035    8.8715   10.0088 C   0  0  0  0  0  0  0  0  0  0  0  0
   38.1317   10.7893    7.9996 N   0  0  0  0  0  0  0  0  0  0  0  0
   36.8406    7.2427    8.2135 O   0  0  0  0  0  0  0  0  0  0  0  0
   37.8224    7.2255    4.6408 O   0  0  0  0  0  0  0  0  0  0  0  0
   37.8574   10.0706    5.2991 O   0  0  0  0  0  0  0  0  0  0  0  0
   37.5926    9.9786   10.5259 O   0  0  0  0  0  0  0  0  0  0  0  0
   42.2261   -0.3233    9.2333 C   0  0  1  0  0  0  0  0  0  0  0  0
   42.3535   -1.6109   10.0771 C   0  0  1  0  0  0  0  0  0  0  0  0
   43.7930   -1.7846   10.6189 C   0  0  2  0  0  0  0  0  0  0  0  0
   44.7888   -1.8326    9.4540 C   0  0  1  0  0  0  0  0  0  0  0  0
   44.6979   -0.5296    8.6194 C   0  0  0  0  0  0  0  0  0  0  0  0
   43.2709   -0.3861    8.0800 C   0  0  2  0  0  0  0  0  0  0  0  0
   46.1637   -1.9876    9.9795 N   0  0  0  0  0  0  0  0  0  0  0  0
   43.2308    0.8397    7.2872 N   0  0  0  0  0  0  0  0  0  0  0  0
   41.4450   -1.5323   11.1971 O   0  0  0  0  0  0  0  0  0  0  0  0
   43.8608   -3.0119   11.3765 O   0  0  0  0  0  0  0  0  0  0  0  0
  1  2  1  0  0  0  0
  1 12  1  6  0  0  0
  1 13  1  0  0  0  0
  2  3  1  0  0  0  0
  2 10  1  6  0  0  0
  4  3  1  6  0  0  0
  4  5  1  0  0  0  0
  4 14  1  0  0  0  0
  5  6  1  0  0  0  0
  5 13  1  1  0  0  0
  6  7  1  0  0  0  0
  6 15  1  1  0  0  0
  7  8  1  0  0  0  0
  7 11  1  1  0  0  0
  8 14  1  0  0  0  0
  8 16  1  6  0  0  0
  9 11  1  0  0  0  0
 17 16  1  1  0  0  0
 17 18  1  0  0  0  0
 17 24  1  0  0  0  0
 18 19  1  0  0  0  0
 18 25  1  6  0  0  0
 19 20  1  0  0  0  0
 19 26  1  6  0  0  0
 20 21  1  0  0  0  0
 20 23  1  1  0  0  0
 21 22  1  1  0  0  0
 21 24  1  0  0  0  0
 22 27  1  0  0  0  0
 28 12  1  6  0  0  0
 28 29  1  0  0  0  0
 28 33  1  0  0  0  0
 29 30  1  0  0  0  0
 29 36  1  1  0  0  0
 30 31  1  0  0  0  0
 30 37  1  6  0  0  0
 31 32  1  0  0  0  0
 31 34  1  1  0  0  0
 32 33  1  0  0  0  0
 33 35  1  1  0  0  0
M  END
>  <CHROM.1>
177.02856674,152.37232855,-146.66316792,179.61407386,-62.82534613,79.92724129
39.93829190,3.64232732,8.62305478,1.05476551,0.43043792,-3.11497812

>  <Name>
1yrj_lig

>  <RI>
0

>  <Rbt.Current_Directory>
/home/itssahil/PROJECTS/Mol_Feturizer/New_Systems/rnas/1yrj

>  <Rbt.Executable>
rbdock ($Id: //depot/dev/client3/rdock/2013.1/src/exe/rbdock.cxx#4 $)

>  <Rbt.Library>
libRbt.so (2013.1, Build901 2013/11/27)

>  <Rbt.Parameter_File>
/export/apps/rDock/src/rDock_2013.1_src/data/scripts/dock_solv.prm

>  <Rbt.Receptor>
prm/pocket_docking_3.prm

>  <SCORE>
-28.2075

>  <SCORE.INTER>
-22.9216

>  <SCORE.INTER.CONST>
1

>  <SCORE.INTER.POLAR>
-1.72212

>  <SCORE.INTER.ROT>
6

>  <SCORE.INTER.SOLV>
14.2814

>  <SCORE.INTER.VDW>
-21.9011

>  <SCORE.INTER.norm>
-0.619502

>  <SCORE.INTRA>
-5.29023

>  <SCORE.INTRA.DIHEDRAL>
-8.93625

>  <SCORE.INTRA.DIHEDRAL.0>
15.6389

>  <SCORE.INTRA.POLAR>
0

>  <SCORE.INTRA.POLAR.0>
0

>  <SCORE.INTRA.REPUL>
0

>  <SCORE.INTRA.REPUL.0>
0

>  <SCORE.INTRA.SOLV>
-0.715579

>  <SCORE.INTRA.SOLV.lig_0>
-90.9181

>  <SCORE.INTRA.VDW>
-0.464311

>  <SCORE.INTRA.VDW.0>
-3.14158

>  <SCORE.INTRA.norm>
-0.142979

>  <SCORE.RESTR>
0.00429743

>  <SCORE.RESTR.CAVITY>
0.00429743

>  <SCORE.RESTR.norm>
0.000116147

>  <SCORE.SYSTEM>
0

>  <SCORE.SYSTEM.CONST>
0

>  <SCORE.SYSTEM.DIHEDRAL>
0

>  <SCORE.SYSTEM.SOLV>
0

>  <SCORE.SYSTEM.norm>
0

>  <SCORE.heavy>
37

>  <SCORE.norm>
-0.762365

>  <RMSD>
10.134

$$$$
1yrj_lig
 OpenBabel11021811423D
libRbt.so/2013.1/901 2013/11/27
 37 40  0  0  0  0  0  0  0  0999 V2000
   39.6787    0.2001    9.5263 C   0  0  1  0  0  0  0  0  0  0  0  0
   38.3672    0.2107    8.7168 C   0  0  1  0  0  0  0  0  0  0  0  0
   38.3147    1.3873    7.7293 C   0  0  0  0  0  0  0  0  0  0  0  0
   38.5386    2.7244    8.4828 C   0  0  1  0  0  0  0  0  0  0  0  0
   39.8824    2.6875    9.2351 C   0  0  1  0  0  0  0  0  0  0  0  0
   40.0925    4.0698    9.9854 C   0  0  1  0  0  0  0  0  0  0  0  0
   40.0858    5.2193    8.9646 C   0  0  1  0  0  0  0  0  0  0  0  0
   38.7380    5.1818    8.2041 C   0  0  2  0  0  0  0  0  0  0  0  0
   40.9606    7.6126    8.8484 C   0  0  0  0  0  0  0  0  0  0  0  0
   38.1496   -1.0601    8.0064 N   0  0  0  0  0  0  0  0  0  0  0  0
   40.3337    6.5213    9.6579 N   0  0  0  0  0  0  0  0  0  0  0  0
   40.8236   -0.2279    8.7653 O   0  0  0  0  0  0  0  0  0  0  0  0
   39.8721    1.5255   10.1466 O   0  0  0  0  0  0  0  0  0  0  0  0
   38.5357    3.8883    7.5675 O   0  0  0  0  0  0  0  0  0  0  0  0
   39.0167    4.2900   10.8735 O   0  0  0  0  0  0  0  0  0  0  0  0
   38.6717    6.1829    7.1877 O   0  0  0  0  0  0  0  0  0  0  0  0
   37.3346    6.6935    6.9752 C   0  0  2  0  0  0  0  0  0  0  0  0
   37.2744    7.8329    5.9447 C   0  0  1  0  0  0  0  0  0  0  0  0
   37.9509    9.1182    6.4910 C   0  0  2  0  0  0  0  0  0  0  0  0
   37.2899    9.5377    7.7841 C   0  0  1  0  0  0  0  0  0  0  0  0
   37.3930    8.3830    8.8085 C   0  0  1  0  0  0  0  0  0  0  0  0
   36.7054    8.7037   10.1338 C   0  0  0  0  0  0  0  0  0  0  0  0
   37.9574   10.7587    8.2809 N   0  0  0  0  0  0  0  0  0  0  0  0
   36.7598    7.1732    8.2537 O   0  0  0  0  0  0  0  0  0  0  0  0
   37.8824    7.3747    4.7284 O   0  0  0  0  0  0  0  0  0  0  0  0
   37.8108   10.1800    5.5372 O   0  0  0  0  0  0  0  0  0  0  0  0
   37.4104    9.7234   10.7904 O   0  0  0  0  0  0  0  0  0  0  0  0
   42.2349   -0.3082    9.3277 C   0  0  1  0  0  0  0  0  0  0  0  0
   42.3443   -1.6451   10.0936 C   0  0  1  0  0  0  0  0  0  0  0  0
   43.7728   -1.8551   10.6516 C   0  0  2  0  0  0  0  0  0  0  0  0
   44.7910   -1.8343    9.5053 C   0  0  1  0  0  0  0  0  0  0  0  0
   44.7179   -0.4826    8.7502 C   0  0  0  0  0  0  0  0  0  0  0  0
   43.3018   -0.3030    8.1931 C   0  0  2  0  0  0  0  0  0  0  0  0
   46.1553   -2.0244   10.0468 N   0  0  0  0  0  0  0  0  0  0  0  0
   43.2787    0.9690    7.4759 N   0  0  0  0  0  0  0  0  0  0  0  0
   41.4144   -1.6328   11.1986 O   0  0  0  0  0  0  0  0  0  0  0  0
   43.8243   -3.1264   11.3339 O   0  0  0  0  0  0  0  0  0  0  0  0
  1  2  1  0  0  0  0
  1 12  1  6  0  0  0
  1 13  1  0  0  0  0
  2  3  1  0  0  0  0
  2 10  1  6  0  0  0
  4  3  1  6  0  0  0
  4  5  1  0  0  0  0
  4 14  1  0  0  0  0
  5  6  1  0  0  0  0
  5 13  1  1  0  0  0
  6  7  1  0  0  0  0
  6 15  1  1  0  0  0
  7  8  1  0  0  0  0
  7 11  1  1  0  0  0
  8 14  1  0  0  0  0
  8 16  1  6  0  0  0
  9 11  1  0  0  0  0
 17 16  1  1  0  0  0
 17 18  1  0  0  0  0
 17 24  1  0  0  0  0
 18 19  1  0  0  0  0
 18 25  1  6  0  0  0
 19 20  1  0  0  0  0
 19 26  1  6  0  0  0
 20 21  1  0  0  0  0
 20 23  1  1  0  0  0
 21 22  1  1  0  0  0
 21 24  1  0  0  0  0
 22 27  1  0  0  0  0
 28 12  1  6  0  0  0
 28 29  1  0  0  0  0
 28 33  1  0  0  0  0
 29 30  1  0  0  0  0
 29 36  1  1  0  0  0
 30 31  1  0  0  0  0
 30 37  1  6  0  0  0
 31 32  1  0  0  0  0
 31 34  1  1  0  0  0
 32 33  1  0  0  0  0
 33 35  1  1  0  0  0
M  END
>  <CHROM.1>
179.17509879,153.19230656,-147.73816838,176.38023391,-67.81964728,81.82102652
39.91096905,3.65163635,8.71288212,1.06379987,0.35439402,3.13385895

>  <Name>
1yrj_lig

>  <RI>
0

>  <Rbt.Current_Directory>
/home/itssahil/PROJECTS/Mol_Feturizer/New_Systems/rnas/1yrj

>  <Rbt.Executable>
rbdock ($Id: //depot/dev/client3/rdock/2013.1/src/exe/rbdock.cxx#4 $)

>  <Rbt.Library>
libRbt.so (2013.1, Build901 2013/11/27)

>  <Rbt.Parameter_File>
/export/apps/rDock/src/rDock_2013.1_src/data/scripts/dock_solv.prm

>  <Rbt.Receptor>
prm/pocket_docking_8.prm

>  <SCORE>
-28.515

>  <SCORE.INTER>
-23.2624

>  <SCORE.INTER.CONST>
1

>  <SCORE.INTER.POLAR>
-1.71016

>  <SCORE.INTER.ROT>
6

>  <SCORE.INTER.SOLV>
14.6252

>  <SCORE.INTER.VDW>
-22.2828

>  <SCORE.INTER.norm>
-0.628714

>  <SCORE.INTRA>
-5.25255

>  <SCORE.INTRA.DIHEDRAL>
-8.63358

>  <SCORE.INTRA.DIHEDRAL.0>
15.6389

>  <SCORE.INTRA.POLAR>
0

>  <SCORE.INTRA.POLAR.0>
0

>  <SCORE.INTRA.REPUL>
0

>  <SCORE.INTRA.REPUL.0>
0

>  <SCORE.INTRA.SOLV>
-0.757306

>  <SCORE.INTRA.SOLV.lig_0>
-90.9181

>  <SCORE.INTRA.VDW>
-0.557107

>  <SCORE.INTRA.VDW.0>
-3.14158

>  <SCORE.INTRA.norm>
-0.141961

>  <SCORE.RESTR>
0

>  <SCORE.RESTR.CAVITY>
0

>  <SCORE.RESTR.norm>
0

>  <SCORE.SYSTEM>
0

>  <SCORE.SYSTEM.CONST>
0

>  <SCORE.SYSTEM.DIHEDRAL>
0

>  <SCORE.SYSTEM.SOLV>
0

>  <SCORE.SYSTEM.norm>
0

>  <SCORE.heavy>
37

>  <SCORE.norm>
-0.770675

>  <RMSD>
10.137

$$$$
1yrj_lig
 OpenBabel11021811423D
libRbt.so/2013.1/901 2013/11/27
 37 40  0  0  0  0  0  0  0  0999 V2000
   38.7063    1.9051    9.7487 C   0  0  1  0  0  0  0  0  0  0  0  0
   38.2054    2.3739    8.3685 C   0  0  1  0  0  0  0  0  0  0  0  0
   39.1359    3.4303    7.7516 C   0  0  0  0  0  0  0  0  0  0  0  0
   39.3178    4.6172    8.7333 C   0  0  1  0  0  0  0  0  0  0  0  0
   39.8669    4.1088   10.0798 C   0  0  1  0  0  0  0  0  0  0  0  0
   40.0557    5.3427   11.0597 C   0  0  1  0  0  0  0  0  0  0  0  0
   41.0303    6.3548   10.4359 C   0  0  1  0  0  0  0  0  0  0  0  0
   40.4579    6.7956    9.0667 C   0  0  2  0  0  0  0  0  0  0  0  0
   42.6164    7.6234   11.9790 C   0  0  0  0  0  0  0  0  0  0  0  0
   38.0256    1.2480    7.4375 N   0  0  0  0  0  0  0  0  0  0  0  0
   41.2530    7.4972   11.3754 N   0  0  0  0  0  0  0  0  0  0  0  0
   39.8516    1.0351    9.6823 O   0  0  0  0  0  0  0  0  0  0  0  0
   38.9386    3.0861   10.6030 O   0  0  0  0  0  0  0  0  0  0  0  0
   40.2391    5.6466    8.2001 O   0  0  0  0  0  0  0  0  0  0  0  0
   38.8177    6.0009   11.2294 O   0  0  0  0  0  0  0  0  0  0  0  0
   41.3355    7.6937    8.3865 O   0  0  0  0  0  0  0  0  0  0  0  0
   41.3128    9.0350    8.9288 C   0  0  2  0  0  0  0  0  0  0  0  0
   40.0239    9.8045    8.5966 C   0  0  1  0  0  0  0  0  0  0  0  0
   39.9483   10.1432    7.0840 C   0  0  2  0  0  0  0  0  0  0  0  0
   41.1637   10.9431    6.6744 C   0  0  1  0  0  0  0  0  0  0  0  0
   42.4411   10.1310    6.9938 C   0  0  1  0  0  0  0  0  0  0  0  0
   43.7238   10.8872    6.6552 C   0  0  0  0  0  0  0  0  0  0  0  0
   41.0653   11.2456    5.2315 N   0  0  0  0  0  0  0  0  0  0  0  0
   42.4742    9.8088    8.4317 O   0  0  0  0  0  0  0  0  0  0  0  0
   38.9042    9.0209    9.0339 O   0  0  0  0  0  0  0  0  0  0  0  0
   38.7740   10.9241    6.8225 O   0  0  0  0  0  0  0  0  0  0  0  0
   44.8329   10.0808    6.9513 O   0  0  0  0  0  0  0  0  0  0  0  0
   39.8123   -0.3788    9.1221 C   0  0  1  0  0  0  0  0  0  0  0  0
   41.2514   -0.9357    9.1906 C   0  0  1  0  0  0  0  0  0  0  0  0
   41.3072   -2.4035    8.7022 C   0  0  2  0  0  0  0  0  0  0  0  0
   40.3775   -3.2749    9.5552 C   0  0  1  0  0  0  0  0  0  0  0  0
   38.9220   -2.7491    9.4663 C   0  0  0  0  0  0  0  0  0  0  0  0
   38.8872   -1.3020    9.9691 C   0  0  2  0  0  0  0  0  0  0  0  0
   40.4272   -4.6743    9.0760 N   0  0  0  0  0  0  0  0  0  0  0  0
   37.5008   -0.8502    9.8867 N   0  0  0  0  0  0  0  0  0  0  0  0
   42.1072   -0.1355    8.3461 O   0  0  0  0  0  0  0  0  0  0  0  0
   42.6660   -2.8794    8.8108 O   0  0  0  0  0  0  0  0  0  0  0  0
  1  2  1  0  0  0  0
  1 12  1  6  0  0  0
  1 13  1  0  0  0  0
  2  3  1  0  0  0  0
  2 10  1  6  0  0  0
  4  3  1  6  0  0  0
  4  5  1  0  0  0  0
  4 14  1  0  0  0  0
  5  6  1  0  0  0  0
  5 13  1  1  0  0  0
  6  7  1  0  0  0  0
  6 15  1  6  0  0  0
  7  8  1  0  0  0  0
  7 11  1  1  0  0  0
  8 14  1  0  0  0  0
  8 16  1  6  0  0  0
  9 11  1  0  0  0  0
 17 16  1  6  0  0  0
 17 18  1  0  0  0  0
 17 24  1  0  0  0  0
 18 19  1  0  0  0  0
 18 25  1  6  0  0  0
 19 20  1  0  0  0  0
 19 26  1  1  0  0  0
 20 21  1  0  0  0  0
 20 23  1  6  0  0  0
 21 22  1  1  0  0  0
 21 24  1  0  0  0  0
 22 27  1  0  0  0  0
 28 12  1  1  0  0  0
 28 29  1  0  0  0  0
 28 33  1  0  0  0  0
 29 30  1  0  0  0  0
 29 36  1  6  0  0  0
 30 31  1  0  0  0  0
 30 37  1  1  0  0  0
 31 32  1  0  0  0  0
 31 34  1  6  0  0  0
 32 33  1  0  0  0  0
 33 35  1  6  0  0  0
M  END
>  <CHROM.1>
-68.44816198,112.03924995,-75.80975737,-72.48296371,-179.05396857,177.98256121
40.45266651,4.57182264,8.85506222,1.69898653,-0.38677393,3.06670789

>  <Name>
1yrj_lig

>  <RI>
0

>  <Rbt.Current_Directory>
/home/itssahil/PROJECTS/Mol_Feturizer/New_Systems/rnas/1yrj

>  <Rbt.Executable>
rbdock ($Id: //depot/dev/client3/rdock/2013.1/src/exe/rbdock.cxx#4 $)

>  <Rbt.Library>
libRbt.so (2013.1, Build901 2013/11/27)

>  <Rbt.Parameter_File>
/export/apps/rDock/src/rDock_2013.1_src/data/scripts/dock_solv.prm

>  <Rbt.Receptor>
prm/pocket_docking_7.prm

>  <SCORE>
-22.4083

>  <SCORE.INTER>
-18.2809

>  <SCORE.INTER.CONST>
1

>  <SCORE.INTER.POLAR>
-0.95614

>  <SCORE.INTER.ROT>
6

>  <SCORE.INTER.SOLV>
16.2457

>  <SCORE.INTER.VDW>
-22.0153

>  <SCORE.INTER.norm>
-0.494078

>  <SCORE.INTRA>
-4.12742

>  <SCORE.INTRA.DIHEDRAL>
-12.1148

>  <SCORE.INTRA.DIHEDRAL.0>
15.6389

>  <SCORE.INTRA.POLAR>
0

>  <SCORE.INTRA.POLAR.0>
0

>  <SCORE.INTRA.REPUL>
0

>  <SCORE.INTRA.REPUL.0>
0

>  <SCORE.INTRA.SOLV>
2.6402

>  <SCORE.INTRA.SOLV.lig_0>
-90.9181

>  <SCORE.INTRA.VDW>
0.609908

>  <SCORE.INTRA.VDW.0>
-3.14158

>  <SCORE.INTRA.norm>
-0.111552

>  <SCORE.RESTR>
0

>  <SCORE.RESTR.CAVITY>
0

>  <SCORE.RESTR.norm>
0

>  <SCORE.SYSTEM>
0

>  <SCORE.SYSTEM.CONST>
0

>  <SCORE.SYSTEM.DIHEDRAL>
0

>  <SCORE.SYSTEM.SOLV>
0

>  <SCORE.SYSTEM.norm>
0

>  <SCORE.heavy>
37

>  <SCORE.norm>
-0.60563

>  <RMSD>
10.148

$$$$
1yrj_lig
 OpenBabel11021811423D
libRbt.so/2013.1/901 2013/11/27
 37 40  0  0  0  0  0  0  0  0999 V2000
   39.7103   -0.1087    9.3617 C   0  0  1  0  0  0  0  0  0  0  0  0
   38.4400   -0.0046    8.4951 C   0  0  1  0  0  0  0  0  0  0  0  0
   38.4638    1.2399    7.5934 C   0  0  0  0  0  0  0  0  0  0  0  0
   38.6837    2.5136    8.4507 C   0  0  1  0  0  0  0  0  0  0  0  0
   39.9884    2.3864    9.2598 C   0  0  1  0  0  0  0  0  0  0  0  0
   40.1957    3.7059   10.1165 C   0  0  1  0  0  0  0  0  0  0  0  0
   40.2662    4.9243    9.1818 C   0  0  1  0  0  0  0  0  0  0  0  0
   38.9561    4.9781    8.3588 C   0  0  2  0  0  0  0  0  0  0  0  0
   41.8067    6.2496   10.7236 C   0  0  0  0  0  0  0  0  0  0  0  0
   38.2259   -1.2155    7.6858 N   0  0  0  0  0  0  0  0  0  0  0  0
   40.5121    6.1667    9.9776 N   0  0  0  0  0  0  0  0  0  0  0  0
   40.8797   -0.5136    8.6258 O   0  0  0  0  0  0  0  0  0  0  0  0
   39.9057    1.1636   10.0840 O   0  0  0  0  0  0  0  0  0  0  0  0
   38.7533    3.7390    7.6222 O   0  0  0  0  0  0  0  0  0  0  0  0
   39.0840    3.8926   10.9673 O   0  0  0  0  0  0  0  0  0  0  0  0
   38.9634    6.0500    7.4151 O   0  0  0  0  0  0  0  0  0  0  0  0
   37.6374    6.5086    7.0615 C   0  0  2  0  0  0  0  0  0  0  0  0
   37.6255    7.4716    5.8630 C   0  0  1  0  0  0  0  0  0  0  0  0
   38.2726    8.8329    6.2322 C   0  0  2  0  0  0  0  0  0  0  0  0
   37.5489    9.4439    7.4103 C   0  0  1  0  0  0  0  0  0  0  0  0
   37.6039    8.4652    8.6072 C   0  0  1  0  0  0  0  0  0  0  0  0
   36.8523    8.9835    9.8312 C   0  0  0  0  0  0  0  0  0  0  0  0
   38.1895   10.7339    7.7403 N   0  0  0  0  0  0  0  0  0  0  0  0
   37.0003    7.1776    8.2197 O   0  0  0  0  0  0  0  0  0  0  0  0
   38.2927    6.8339    4.7642 O   0  0  0  0  0  0  0  0  0  0  0  0
   38.1773    9.7306    5.1178 O   0  0  0  0  0  0  0  0  0  0  0  0
   37.4998   10.1246   10.3278 O   0  0  0  0  0  0  0  0  0  0  0  0
   42.2787   -0.5727    9.2207 C   0  0  1  0  0  0  0  0  0  0  0  0
   42.3292   -1.8111   10.1425 C   0  0  1  0  0  0  0  0  0  0  0  0
   43.7409   -2.0000   10.7489 C   0  0  2  0  0  0  0  0  0  0  0  0
   44.7764   -2.1506    9.6281 C   0  0  1  0  0  0  0  0  0  0  0  0
   44.7624   -0.8975    8.7158 C   0  0  0  0  0  0  0  0  0  0  0  0
   43.3621   -0.7390    8.1143 C   0  0  2  0  0  0  0  0  0  0  0  0
   46.1247   -2.3197   10.2144 N   0  0  0  0  0  0  0  0  0  0  0  0
   43.3947    0.4379    7.2502 N   0  0  0  0  0  0  0  0  0  0  0  0
   41.3838   -1.6355   11.2202 O   0  0  0  0  0  0  0  0  0  0  0  0
   43.7372   -3.1814   11.5789 O   0  0  0  0  0  0  0  0  0  0  0  0
  1  2  1  0  0  0  0
  1 12  1  6  0  0  0
  1 13  1  0  0  0  0
  2  3  1  0  0  0  0
  2 10  1  6  0  0  0
  4  3  1  6  0  0  0
  4  5  1  0  0  0  0
  4 14  1  0  0  0  0
  5  6  1  0  0  0  0
  5 13  1  1  0  0  0
  6  7  1  0  0  0  0
  6 15  1  1  0  0  0
  7  8  1  0  0  0  0
  7 11  1  1  0  0  0
  8 14  1  0  0  0  0
  8 16  1  6  0  0  0
  9 11  1  0  0  0  0
 17 16  1  1  0  0  0
 17 18  1  0  0  0  0
 17 24  1  0  0  0  0
 18 19  1  0  0  0  0
 18 25  1  6  0  0  0
 19 20  1  0  0  0  0
 19 26  1  6  0  0  0
 20 21  1  0  0  0  0
 20 23  1  1  0  0  0
 21 22  1  1  0  0  0
 21 24  1  0  0  0  0
 22 27  1  0  0  0  0
 28 12  1  6  0  0  0
 28 29  1  0  0  0  0
 28 33  1  0  0  0  0
 29 30  1  0  0  0  0
 29 36  1  1  0  0  0
 30 31  1  0  0  0  0
 30 37  1  1  0  0  0
 31 32  1  0  0  0  0
 31 34  1  1  0  0  0
 32 33  1  0  0  0  0
 33 35  1  6  0  0  0
M  END
>  <CHROM.1>
174.42542224,63.41670579,-154.46732369,-169.23645281,-66.01824804,74.09023636
40.06832964,3.40755827,8.70874770,0.92725487,0.75304181,-2.87505600

>  <Name>
1yrj_lig

>  <RI>
0

>  <Rbt.Current_Directory>
/home/itssahil/PROJECTS/Mol_Feturizer/New_Systems/rnas/1yrj

>  <Rbt.Executable>
rbdock ($Id: //depot/dev/client3/rdock/2013.1/src/exe/rbdock.cxx#4 $)

>  <Rbt.Library>
libRbt.so (2013.1, Build901 2013/11/27)

>  <Rbt.Parameter_File>
/export/apps/rDock/src/rDock_2013.1_src/data/scripts/dock_solv.prm

>  <Rbt.Receptor>
prm/pocket_docking_3.prm

>  <SCORE>
-27.9884

>  <SCORE.INTER>
-22.5198

>  <SCORE.INTER.CONST>
1

>  <SCORE.INTER.POLAR>
-1.58198

>  <SCORE.INTER.ROT>
6

>  <SCORE.INTER.SOLV>
12.8397

>  <SCORE.INTER.VDW>
-21.6198

>  <SCORE.INTER.norm>
-0.608644

>  <SCORE.INTRA>
-5.46857

>  <SCORE.INTRA.DIHEDRAL>
-10.9956

>  <SCORE.INTRA.DIHEDRAL.0>
15.6389

>  <SCORE.INTRA.POLAR>
0

>  <SCORE.INTRA.POLAR.0>
0

>  <SCORE.INTRA.REPUL>
0

>  <SCORE.INTRA.REPUL.0>
0

>  <SCORE.INTRA.SOLV>
-1.51762

>  <SCORE.INTRA.SOLV.lig_0>
-90.9181

>  <SCORE.INTRA.VDW>
0.788017

>  <SCORE.INTRA.VDW.0>
-3.14158

>  <SCORE.INTRA.norm>
-0.147799

>  <SCORE.RESTR>
0

>  <SCORE.RESTR.CAVITY>
0

>  <SCORE.RESTR.norm>
0

>  <SCORE.SYSTEM>
0

>  <SCORE.SYSTEM.CONST>
0

>  <SCORE.SYSTEM.DIHEDRAL>
0

>  <SCORE.SYSTEM.SOLV>
0

>  <SCORE.SYSTEM.norm>
0

>  <SCORE.heavy>
37

>  <SCORE.norm>
-0.756443

>  <RMSD>
10.149

$$$$
1yrj_lig
 OpenBabel11021811423D
libRbt.so/2013.1/901 2013/11/27
 37 40  0  0  0  0  0  0  0  0999 V2000
   38.6032   -0.9731    9.4889 C   0  0  1  0  0  0  0  0  0  0  0  0
   37.4594   -0.6111    8.5214 C   0  0  1  0  0  0  0  0  0  0  0  0
   37.8665    0.5067    7.5482 C   0  0  0  0  0  0  0  0  0  0  0  0
   38.3671    1.7437    8.3386 C   0  0  1  0  0  0  0  0  0  0  0  0
   39.5411    1.3459    9.2531 C   0  0  1  0  0  0  0  0  0  0  0  0
   40.0419    2.6302   10.0392 C   0  0  1  0  0  0  0  0  0  0  0  0
   40.4889    3.7081    9.0383 C   0  0  1  0  0  0  0  0  0  0  0  0
   39.2908    4.0356    8.1143 C   0  0  2  0  0  0  0  0  0  0  0  0
   39.9978    5.8021   10.4097 C   0  0  0  0  0  0  0  0  0  0  0  0
   36.9783   -1.7854    7.7752 N   0  0  0  0  0  0  0  0  0  0  0  0
   41.0098    4.9033    9.7716 N   0  0  0  0  0  0  0  0  0  0  0  0
   39.6636   -1.7277    8.8730 O   0  0  0  0  0  0  0  0  0  0  0  0
   39.0878    0.2580   10.1433 O   0  0  0  0  0  0  0  0  0  0  0  0
   38.8088    2.8372    7.4431 O   0  0  0  0  0  0  0  0  0  0  0  0
   38.9723    3.1691   10.7876 O   0  0  0  0  0  0  0  0  0  0  0  0
   39.6384    4.9884    7.1088 O   0  0  0  0  0  0  0  0  0  0  0  0
   38.5133    5.3973    6.2960 C   0  0  2  0  0  0  0  0  0  0  0  0
   38.9160    6.2576    5.0871 C   0  0  1  0  0  0  0  0  0  0  0  0
   39.4221    7.6538    5.5373 C   0  0  2  0  0  0  0  0  0  0  0  0
   38.3554    8.3498    6.3512 C   0  0  1  0  0  0  0  0  0  0  0  0
   37.9936    7.4744    7.5744 C   0  0  1  0  0  0  0  0  0  0  0  0
   36.8839    8.0815    8.4299 C   0  0  0  0  0  0  0  0  0  0  0  0
   38.8674    9.6716    6.7684 N   0  0  0  0  0  0  0  0  0  0  0  0
   37.5357    6.1507    7.1155 O   0  0  0  0  0  0  0  0  0  0  0  0
   39.9025    5.5407    4.3308 O   0  0  0  0  0  0  0  0  0  0  0  0
   39.7171    8.4548    4.3847 O   0  0  0  0  0  0  0  0  0  0  0  0
   36.7791    7.3681    9.6332 O   0  0  0  0  0  0  0  0  0  0  0  0
   40.7585   -2.4430    9.6501 C   0  0  1  0  0  0  0  0  0  0  0  0
   41.1245   -3.7153    8.8542 C   0  0  1  0  0  0  0  0  0  0  0  0
   42.2846   -4.4845    9.5314 C   0  0  2  0  0  0  0  0  0  0  0  0
   43.5162   -3.5786    9.6475 C   0  0  1  0  0  0  0  0  0  0  0  0
   43.1731   -2.3142   10.4760 C   0  0  0  0  0  0  0  0  0  0  0  0
   42.0351   -1.5604    9.7800 C   0  0  2  0  0  0  0  0  0  0  0  0
   44.6176   -4.3164   10.3056 N   0  0  0  0  0  0  0  0  0  0  0  0
   41.7542   -0.3704   10.5788 N   0  0  0  0  0  0  0  0  0  0  0  0
   39.9703   -4.5813    8.7928 O   0  0  0  0  0  0  0  0  0  0  0  0
   42.6007   -5.6466    8.7349 O   0  0  0  0  0  0  0  0  0  0  0  0
  1  2  1  0  0  0  0
  1 12  1  6  0  0  0
  1 13  1  0  0  0  0
  2  3  1  0  0  0  0
  2 10  1  6  0  0  0
  4  3  1  6  0  0  0
  4  5  1  0  0  0  0
  4 14  1  0  0  0  0
  5  6  1  0  0  0  0
  5 13  1  1  0  0  0
  6  7  1  0  0  0  0
  6 15  1  6  0  0  0
  7  8  1  0  0  0  0
  7 11  1  1  0  0  0
  8 14  1  0  0  0  0
  8 16  1  6  0  0  0
  9 11  1  0  0  0  0
 17 16  1  1  0  0  0
 17 18  1  0  0  0  0
 17 24  1  0  0  0  0
 18 19  1  0  0  0  0
 18 25  1  1  0  0  0
 19 20  1  0  0  0  0
 19 26  1  6  0  0  0
 20 21  1  0  0  0  0
 20 23  1  1  0  0  0
 21 22  1  6  0  0  0
 21 24  1  0  0  0  0
 22 27  1  0  0  0  0
 28 12  1  6  0  0  0
 28 29  1  0  0  0  0
 28 33  1  0  0  0  0
 29 30  1  0  0  0  0
 29 36  1  1  0  0  0
 30 31  1  0  0  0  0
 30 37  1  6  0  0  0
 31 32  1  0  0  0  0
 31 34  1  1  0  0  0
 32 33  1  0  0  0  0
 33 35  1  1  0  0  0
M  END
>  <CHROM.1>
-167.23898526,-75.59874082,-175.28976320,-171.46346321,-169.40782754,146.60946760
39.72554177,2.14368456,8.38035035,1.28702243,0.36682395,3.00777217

>  <Name>
1yrj_lig

>  <RI>
0

>  <Rbt.Current_Directory>
/home/itssahil/PROJECTS/Mol_Feturizer/New_Systems/rnas/1yrj

>  <Rbt.Executable>
rbdock ($Id: //depot/dev/client3/rdock/2013.1/src/exe/rbdock.cxx#4 $)

>  <Rbt.Library>
libRbt.so (2013.1, Build901 2013/11/27)

>  <Rbt.Parameter_File>
/export/apps/rDock/src/rDock_2013.1_src/data/scripts/dock_solv.prm

>  <Rbt.Receptor>
prm/pocket_docking_4.prm

>  <SCORE>
-24.2276

>  <SCORE.INTER>
-21.0649

>  <SCORE.INTER.CONST>
1

>  <SCORE.INTER.POLAR>
-1.56967

>  <SCORE.INTER.ROT>
6

>  <SCORE.INTER.SOLV>
16.2446

>  <SCORE.INTER.VDW>
-21.8259

>  <SCORE.INTER.norm>
-0.56932

>  <SCORE.INTRA>
-3.16277

>  <SCORE.INTRA.DIHEDRAL>
-9.48959

>  <SCORE.INTRA.DIHEDRAL.0>
15.6389

>  <SCORE.INTRA.POLAR>
0

>  <SCORE.INTRA.POLAR.0>
0

>  <SCORE.INTRA.REPUL>
0

>  <SCORE.INTRA.REPUL.0>
0

>  <SCORE.INTRA.SOLV>
0.398675

>  <SCORE.INTRA.SOLV.lig_0>
-90.9181

>  <SCORE.INTRA.VDW>
1.38268

>  <SCORE.INTRA.VDW.0>
-3.14158

>  <SCORE.INTRA.norm>
-0.0854803

>  <SCORE.RESTR>
0

>  <SCORE.RESTR.CAVITY>
0

>  <SCORE.RESTR.norm>
0

>  <SCORE.SYSTEM>
0

>  <SCORE.SYSTEM.CONST>
0

>  <SCORE.SYSTEM.DIHEDRAL>
0

>  <SCORE.SYSTEM.SOLV>
0

>  <SCORE.SYSTEM.norm>
0

>  <SCORE.heavy>
37

>  <SCORE.norm>
-0.654801

>  <RMSD>
10.149

$$$$
1yrj_lig
 OpenBabel11021811423D
libRbt.so/2013.1/901 2013/11/27
 37 40  0  0  0  0  0  0  0  0999 V2000
   39.6713    0.2217    9.4391 C   0  0  1  0  0  0  0  0  0  0  0  0
   38.3494    0.2258    8.6467 C   0  0  1  0  0  0  0  0  0  0  0  0
   38.2869    1.3906    7.6457 C   0  0  0  0  0  0  0  0  0  0  0  0
   38.5239    2.7361    8.3799 C   0  0  1  0  0  0  0  0  0  0  0  0
   39.8772    2.7049    9.1151 C   0  0  1  0  0  0  0  0  0  0  0  0
   40.1004    4.0956    9.8458 C   0  0  1  0  0  0  0  0  0  0  0  0
   40.0832    5.2327    8.8112 C   0  0  1  0  0  0  0  0  0  0  0  0
   38.7255    5.1894    8.0688 C   0  0  2  0  0  0  0  0  0  0  0  0
   40.9621    7.6221    8.6546 C   0  0  0  0  0  0  0  0  0  0  0  0
   38.1195   -1.0529    7.9546 N   0  0  0  0  0  0  0  0  0  0  0  0
   40.3433    6.5423    9.4854 N   0  0  0  0  0  0  0  0  0  0  0  0
   40.8052   -0.2185    8.6686 O   0  0  0  0  0  0  0  0  0  0  0  0
   39.8759    1.5540   10.0407 O   0  0  0  0  0  0  0  0  0  0  0  0
   38.5118    3.8889    7.4507 O   0  0  0  0  0  0  0  0  0  0  0  0
   39.0368    4.3294   10.7450 O   0  0  0  0  0  0  0  0  0  0  0  0
   38.6484    6.1783    7.0413 O   0  0  0  0  0  0  0  0  0  0  0  0
   37.3174    6.7184    6.8671 C   0  0  2  0  0  0  0  0  0  0  0  0
   37.2373    7.8015    5.7789 C   0  0  1  0  0  0  0  0  0  0  0  0
   37.9774    9.0927    6.2186 C   0  0  2  0  0  0  0  0  0  0  0  0
   37.3956    9.6022    7.5174 C   0  0  1  0  0  0  0  0  0  0  0  0
   37.5178    8.5021    8.5982 C   0  0  1  0  0  0  0  0  0  0  0  0
   36.9083    8.9157    9.9359 C   0  0  0  0  0  0  0  0  0  0  0  0
   38.1224   10.8268    7.9117 N   0  0  0  0  0  0  0  0  0  0  0  0
   36.8226    7.2845    8.1436 O   0  0  0  0  0  0  0  0  0  0  0  0
   37.7690    7.2592    4.5614 O   0  0  0  0  0  0  0  0  0  0  0  0
   37.8192   10.1051    5.2151 O   0  0  0  0  0  0  0  0  0  0  0  0
   37.6080   10.0193   10.4461 O   0  0  0  0  0  0  0  0  0  0  0  0
   42.2217   -0.3055    9.2166 C   0  0  1  0  0  0  0  0  0  0  0  0
   42.3184   -1.6206   10.0211 C   0  0  1  0  0  0  0  0  0  0  0  0
   43.7500   -1.8377   10.5684 C   0  0  2  0  0  0  0  0  0  0  0  0
   44.7544   -1.8684    9.4103 C   0  0  1  0  0  0  0  0  0  0  0  0
   44.6943   -0.5389    8.6157 C   0  0  0  0  0  0  0  0  0  0  0  0
   43.2747   -0.3523    8.0700 C   0  0  2  0  0  0  0  0  0  0  0  0
   46.1218   -2.0651    9.9413 N   0  0  0  0  0  0  0  0  0  0  0  0
   43.2637    0.8979    7.3152 N   0  0  0  0  0  0  0  0  0  0  0  0
   41.4023   -1.5597   11.1360 O   0  0  0  0  0  0  0  0  0  0  0  0
   43.7889   -3.0888   11.2881 O   0  0  0  0  0  0  0  0  0  0  0  0
  1  2  1  0  0  0  0
  1 12  1  6  0  0  0
  1 13  1  0  0  0  0
  2  3  1  0  0  0  0
  2 10  1  6  0  0  0
  4  3  1  6  0  0  0
  4  5  1  0  0  0  0
  4 14  1  0  0  0  0
  5  6  1  0  0  0  0
  5 13  1  1  0  0  0
  6  7  1  0  0  0  0
  6 15  1  1  0  0  0
  7  8  1  0  0  0  0
  7 11  1  1  0  0  0
  8 14  1  0  0  0  0
  8 16  1  6  0  0  0
  9 11  1  0  0  0  0
 17 16  1  1  0  0  0
 17 18  1  0  0  0  0
 17 24  1  0  0  0  0
 18 19  1  0  0  0  0
 18 25  1  6  0  0  0
 19 20  1  0  0  0  0
 19 26  1  6  0  0  0
 20 21  1  0  0  0  0
 20 23  1  1  0  0  0
 21 22  1  1  0  0  0
 21 24  1  0  0  0  0
 22 27  1  0  0  0  0
 28 12  1  6  0  0  0
 28 29  1  0  0  0  0
 28 33  1  0  0  0  0
 29 30  1  0  0  0  0
 29 36  1  1  0  0  0
 30 31  1  0  0  0  0
 30 37  1  6  0  0  0
 31 32  1  0  0  0  0
 31 34  1  1  0  0  0
 32 33  1  0  0  0  0
 33 35  1  1  0  0  0
M  END
>  <CHROM.1>
179.65833544,153.19747675,-146.00946278,178.95133103,-62.97550721,80.30678547
39.92026268,3.67357533,8.56550665,1.06123174,0.41556449,-3.12922899

>  <Name>
1yrj_lig

>  <RI>
0

>  <Rbt.Current_Directory>
/home/itssahil/PROJECTS/Mol_Feturizer/New_Systems/rnas/1yrj

>  <Rbt.Executable>
rbdock ($Id: //depot/dev/client3/rdock/2013.1/src/exe/rbdock.cxx#4 $)

>  <Rbt.Library>
libRbt.so (2013.1, Build901 2013/11/27)

>  <Rbt.Parameter_File>
/export/apps/rDock/src/rDock_2013.1_src/data/scripts/dock_solv.prm

>  <Rbt.Receptor>
prm/pocket_docking_3.prm

>  <SCORE>
-28.2766

>  <SCORE.INTER>
-23.0246

>  <SCORE.INTER.CONST>
1

>  <SCORE.INTER.POLAR>
-1.74042

>  <SCORE.INTER.ROT>
6

>  <SCORE.INTER.SOLV>
14.4767

>  <SCORE.INTER.VDW>
-21.974

>  <SCORE.INTER.norm>
-0.622288

>  <SCORE.INTRA>
-5.25191

>  <SCORE.INTRA.DIHEDRAL>
-8.81375

>  <SCORE.INTRA.DIHEDRAL.0>
15.6389

>  <SCORE.INTRA.POLAR>
0

>  <SCORE.INTRA.POLAR.0>
0

>  <SCORE.INTRA.REPUL>
0

>  <SCORE.INTRA.REPUL.0>
0

>  <SCORE.INTRA.SOLV>
-0.648467

>  <SCORE.INTRA.SOLV.lig_0>
-90.9181

>  <SCORE.INTRA.VDW>
-0.520801

>  <SCORE.INTRA.VDW.0>
-3.14158

>  <SCORE.INTRA.norm>
-0.141943

>  <SCORE.RESTR>
0

>  <SCORE.RESTR.CAVITY>
0

>  <SCORE.RESTR.norm>
0

>  <SCORE.SYSTEM>
0

>  <SCORE.SYSTEM.CONST>
0

>  <SCORE.SYSTEM.DIHEDRAL>
0

>  <SCORE.SYSTEM.SOLV>
0

>  <SCORE.SYSTEM.norm>
0

>  <SCORE.heavy>
37

>  <SCORE.norm>
-0.764231

>  <RMSD>
10.158

$$$$
1yrj_lig
 OpenBabel11021811423D
libRbt.so/2013.1/901 2013/11/27
 37 40  0  0  0  0  0  0  0  0999 V2000
   38.0241    6.0282    9.4906 C   0  0  1  0  0  0  0  0  0  0  0  0
   38.1178    4.8747    8.4728 C   0  0  1  0  0  0  0  0  0  0  0  0
   39.1220    5.1829    7.3507 C   0  0  0  0  0  0  0  0  0  0  0  0
   38.7600    6.5275    6.6676 C   0  0  1  0  0  0  0  0  0  0  0  0
   38.7276    7.6586    7.7129 C   0  0  1  0  0  0  0  0  0  0  0  0
   38.3683    9.0230    6.9868 C   0  0  1  0  0  0  0  0  0  0  0  0
   39.4192    9.3269    5.9066 C   0  0  1  0  0  0  0  0  0  0  0  0
   39.4463    8.1410    4.9121 C   0  0  2  0  0  0  0  0  0  0  0  0
   40.2826   11.4421    4.7721 C   0  0  0  0  0  0  0  0  0  0  0  0
   38.4546    3.5963    9.1202 N   0  0  0  0  0  0  0  0  0  0  0  0
   39.1159   10.6370    5.2515 N   0  0  0  0  0  0  0  0  0  0  0  0
   39.1627    6.1187   10.3673 O   0  0  0  0  0  0  0  0  0  0  0  0
   37.7623    7.2881    8.7675 O   0  0  0  0  0  0  0  0  0  0  0  0
   39.7227    6.8895    5.6023 O   0  0  0  0  0  0  0  0  0  0  0  0
   37.1216    8.8941    6.3359 O   0  0  0  0  0  0  0  0  0  0  0  0
   40.4443    8.3129    3.9050 O   0  0  0  0  0  0  0  0  0  0  0  0
   40.1371    7.6204    2.6723 C   0  0  2  0  0  0  0  0  0  0  0  0
   41.0778    7.9918    1.5143 C   0  0  1  0  0  0  0  0  0  0  0  0
   40.8416    9.4529    1.0478 C   0  0  2  0  0  0  0  0  0  0  0  0
   39.3983    9.6350    0.6374 C   0  0  1  0  0  0  0  0  0  0  0  0
   38.4794    9.2826    1.8310 C   0  0  1  0  0  0  0  0  0  0  0  0
   36.9953    9.3928    1.4888 C   0  0  0  0  0  0  0  0  0  0  0  0
   39.2039   11.0341    0.2037 N   0  0  0  0  0  0  0  0  0  0  0  0
   38.7406    7.8977    2.2626 O   0  0  0  0  0  0  0  0  0  0  0  0
   42.4297    7.7703    1.9414 O   0  0  0  0  0  0  0  0  0  0  0  0
   41.6803    9.7412   -0.0793 O   0  0  0  0  0  0  0  0  0  0  0  0
   36.6506   10.7440    1.3363 O   0  0  0  0  0  0  0  0  0  0  0  0
   39.3026    7.1544   11.4728 C   0  0  1  0  0  0  0  0  0  0  0  0
   38.2027    6.8579   12.5160 C   0  0  1  0  0  0  0  0  0  0  0  0
   38.3020    7.8218   13.7232 C   0  0  2  0  0  0  0  0  0  0  0  0
   39.6815    7.6969   14.3809 C   0  0  1  0  0  0  0  0  0  0  0  0
   40.7947    8.0280   13.3542 C   0  0  0  0  0  0  0  0  0  0  0  0
   40.6880    7.0529   12.1770 C   0  0  2  0  0  0  0  0  0  0  0  0
   39.7736    8.6288   15.5270 N   0  0  0  0  0  0  0  0  0  0  0  0
   41.7610    7.3849   11.2436 N   0  0  0  0  0  0  0  0  0  0  0  0
   36.9085    7.0253   11.8971 O   0  0  0  0  0  0  0  0  0  0  0  0
   37.2698    7.4847   14.6748 O   0  0  0  0  0  0  0  0  0  0  0  0
  1  2  1  0  0  0  0
  1 12  1  6  0  0  0
  1 13  1  0  0  0  0
  2  3  1  0  0  0  0
  2 10  1  1  0  0  0
  4  3  1  1  0  0  0
  4  5  1  0  0  0  0
  4 14  1  0  0  0  0
  5  6  1  0  0  0  0
  5 13  1  1  0  0  0
  6  7  1  0  0  0  0
  6 15  1  6  0  0  0
  7  8  1  0  0  0  0
  7 11  1  6  0  0  0
  8 14  1  0  0  0  0
  8 16  1  6  0  0  0
  9 11  1  0  0  0  0
 17 16  1  1  0  0  0
 17 18  1  0  0  0  0
 17 24  1  0  0  0  0
 18 19  1  0  0  0  0
 18 25  1  1  0  0  0
 19 20  1  0  0  0  0
 19 26  1  6  0  0  0
 20 21  1  0  0  0  0
 20 23  1  1  0  0  0
 21 22  1  6  0  0  0
 21 24  1  0  0  0  0
 22 27  1  0  0  0  0
 28 12  1  6  0  0  0
 28 29  1  0  0  0  0
 28 33  1  0  0  0  0
 29 30  1  0  0  0  0
 29 36  1  6  0  0  0
 30 31  1  0  0  0  0
 30 37  1  1  0  0  0
 31 32  1  0  0  0  0
 31 34  1  1  0  0  0
 32 33  1  0  0  0  0
 33 35  1  6  0  0  0
M  END
>  <CHROM.1>
-178.94195839,147.86835241,-153.52139277,170.21508164,-70.76142210,65.54110608
39.18766733,8.00497246,6.91031352,-1.75960547,1.23215063,-1.19573147

>  <Name>
1yrj_lig

>  <RI>
0

>  <Rbt.Current_Directory>
/home/itssahil/PROJECTS/Mol_Feturizer/New_Systems/rnas/1yrj

>  <Rbt.Executable>
rbdock ($Id: //depot/dev/client3/rdock/2013.1/src/exe/rbdock.cxx#4 $)

>  <Rbt.Library>
libRbt.so (2013.1, Build901 2013/11/27)

>  <Rbt.Parameter_File>
/export/apps/rDock/src/rDock_2013.1_src/data/scripts/dock_solv.prm

>  <Rbt.Receptor>
prm/pocket_docking_7.prm

>  <SCORE>
-17.9668

>  <SCORE.INTER>
-11.8035

>  <SCORE.INTER.CONST>
1

>  <SCORE.INTER.POLAR>
-1.30721

>  <SCORE.INTER.ROT>
6

>  <SCORE.INTER.SOLV>
15.622

>  <SCORE.INTER.VDW>
-16.3189

>  <SCORE.INTER.norm>
-0.319012

>  <SCORE.INTRA>
-6.17046

>  <SCORE.INTRA.DIHEDRAL>
-10.911

>  <SCORE.INTRA.DIHEDRAL.0>
15.6389

>  <SCORE.INTRA.POLAR>
0

>  <SCORE.INTRA.POLAR.0>
0

>  <SCORE.INTRA.REPUL>
0

>  <SCORE.INTRA.REPUL.0>
0

>  <SCORE.INTRA.SOLV>
-1.44559

>  <SCORE.INTRA.SOLV.lig_0>
-90.9181

>  <SCORE.INTRA.VDW>
0.00781766

>  <SCORE.INTRA.VDW.0>
-3.14158

>  <SCORE.INTRA.norm>
-0.166769

>  <SCORE.RESTR>
0.00712877

>  <SCORE.RESTR.CAVITY>
0.00712877

>  <SCORE.RESTR.norm>
0.000192669

>  <SCORE.SYSTEM>
0

>  <SCORE.SYSTEM.CONST>
0

>  <SCORE.SYSTEM.DIHEDRAL>
0

>  <SCORE.SYSTEM.SOLV>
0

>  <SCORE.SYSTEM.norm>
0

>  <SCORE.heavy>
37

>  <SCORE.norm>
-0.485589

>  <RMSD>
10.158

$$$$
1yrj_lig
 OpenBabel11021811423D
libRbt.so/2013.1/901 2013/11/27
 37 40  0  0  0  0  0  0  0  0999 V2000
   38.7922    1.6401    9.5944 C   0  0  1  0  0  0  0  0  0  0  0  0
   38.0480    2.0589    8.3114 C   0  0  1  0  0  0  0  0  0  0  0  0
   38.6478    3.3316    7.6925 C   0  0  0  0  0  0  0  0  0  0  0  0
   38.6740    4.4724    8.7430 C   0  0  1  0  0  0  0  0  0  0  0  0
   39.4698    4.0280    9.9849 C   0  0  1  0  0  0  0  0  0  0  0  0
   39.4921    5.2160   11.0366 C   0  0  1  0  0  0  0  0  0  0  0  0
   40.1435    6.4561   10.4031 C   0  0  1  0  0  0  0  0  0  0  0  0
   39.3374    6.8307    9.1357 C   0  0  2  0  0  0  0  0  0  0  0  0
   41.5216    7.7649   12.1043 C   0  0  0  0  0  0  0  0  0  0  0  0
   38.0162    0.9751    7.3158 N   0  0  0  0  0  0  0  0  0  0  0  0
   40.2143    7.5651   11.4042 N   0  0  0  0  0  0  0  0  0  0  0  0
   40.0858    1.0580    9.3477 O   0  0  0  0  0  0  0  0  0  0  0  0
   38.8542    2.7937   10.5132 O   0  0  0  0  0  0  0  0  0  0  0  0
   39.2802    5.7120    8.2060 O   0  0  0  0  0  0  0  0  0  0  0  0
   38.1670    5.5655   11.3781 O   0  0  0  0  0  0  0  0  0  0  0  0
   39.9136    7.9410    8.4467 O   0  0  0  0  0  0  0  0  0  0  0  0
   38.9533    8.6882    7.6637 C   0  0  2  0  0  0  0  0  0  0  0  0
   39.4617   10.0755    7.2384 C   0  0  1  0  0  0  0  0  0  0  0  0
   39.5843   11.0253    8.4595 C   0  0  2  0  0  0  0  0  0  0  0  0
   38.2484   11.1413    9.1572 C   0  0  1  0  0  0  0  0  0  0  0  0
   37.7786    9.7349    9.5984 C   0  0  1  0  0  0  0  0  0  0  0  0
   36.4083    9.7524   10.2720 C   0  0  0  0  0  0  0  0  0  0  0  0
   38.3980   12.0464   10.3156 N   0  0  0  0  0  0  0  0  0  0  0  0
   37.6907    8.8523    8.4211 O   0  0  0  0  0  0  0  0  0  0  0  0
   40.7114    9.9084    6.5533 O   0  0  0  0  0  0  0  0  0  0  0  0
   39.9877   12.3289    8.0183 O   0  0  0  0  0  0  0  0  0  0  0  0
   36.0393    8.4427   10.6133 O   0  0  0  0  0  0  0  0  0  0  0  0
   40.2955   -0.2903    8.6749 C   0  0  1  0  0  0  0  0  0  0  0  0
   41.8166   -0.5590    8.6585 C   0  0  1  0  0  0  0  0  0  0  0  0
   42.1330   -1.9469    8.0503 C   0  0  2  0  0  0  0  0  0  0  0  0
   41.4256   -3.0444    8.8541 C   0  0  1  0  0  0  0  0  0  0  0  0
   39.8937   -2.8078    8.8482 C   0  0  0  0  0  0  0  0  0  0  0  0
   39.6024   -1.4373    9.4684 C   0  0  2  0  0  0  0  0  0  0  0  0
   41.7233   -4.3673    8.2608 N   0  0  0  0  0  0  0  0  0  0  0  0
   38.1528   -1.2600    9.4610 N   0  0  0  0  0  0  0  0  0  0  0  0
   42.4656    0.4539    7.8593 O   0  0  0  0  0  0  0  0  0  0  0  0
   43.5614   -2.1550    8.0826 O   0  0  0  0  0  0  0  0  0  0  0  0
  1  2  1  0  0  0  0
  1 12  1  6  0  0  0
  1 13  1  0  0  0  0
  2  3  1  0  0  0  0
  2 10  1  6  0  0  0
  4  3  1  6  0  0  0
  4  5  1  0  0  0  0
  4 14  1  0  0  0  0
  5  6  1  0  0  0  0
  5 13  1  1  0  0  0
  6  7  1  0  0  0  0
  6 15  1  6  0  0  0
  7  8  1  0  0  0  0
  7 11  1  1  0  0  0
  8 14  1  0  0  0  0
  8 16  1  6  0  0  0
  9 11  1  0  0  0  0
 17 16  1  1  0  0  0
 17 18  1  0  0  0  0
 17 24  1  0  0  0  0
 18 19  1  0  0  0  0
 18 25  1  1  0  0  0
 19 20  1  0  0  0  0
 19 26  1  6  0  0  0
 20 21  1  0  0  0  0
 20 23  1  1  0  0  0
 21 22  1  6  0  0  0
 21 24  1  0  0  0  0
 22 27  1  0  0  0  0
 28 12  1  1  0  0  0
 28 29  1  0  0  0  0
 28 33  1  0  0  0  0
 29 30  1  0  0  0  0
 29 36  1  6  0  0  0
 30 31  1  0  0  0  0
 30 37  1  1  0  0  0
 31 32  1  0  0  0  0
 31 34  1  6  0  0  0
 32 33  1  0  0  0  0
 33 35  1  6  0  0  0
M  END
>  <CHROM.1>
-68.01915857,98.92257438,-154.02859172,164.25905610,178.62813467,-177.79196187
39.54887113,4.59397726,9.08412337,1.36859782,-0.53901213,3.07956924

>  <Name>
1yrj_lig

>  <RI>
0

>  <Rbt.Current_Directory>
/home/itssahil/PROJECTS/Mol_Feturizer/New_Systems/rnas/1yrj

>  <Rbt.Executable>
rbdock ($Id: //depot/dev/client3/rdock/2013.1/src/exe/rbdock.cxx#4 $)

>  <Rbt.Library>
libRbt.so (2013.1, Build901 2013/11/27)

>  <Rbt.Parameter_File>
/export/apps/rDock/src/rDock_2013.1_src/data/scripts/dock_solv.prm

>  <Rbt.Receptor>
prm/pocket_docking_4.prm

>  <SCORE>
-21.9389

>  <SCORE.INTER>
-18.4468

>  <SCORE.INTER.CONST>
1

>  <SCORE.INTER.POLAR>
-1.24977

>  <SCORE.INTER.ROT>
6

>  <SCORE.INTER.SOLV>
16.1083

>  <SCORE.INTER.VDW>
-21.1014

>  <SCORE.INTER.norm>
-0.498561

>  <SCORE.INTRA>
-3.49657

>  <SCORE.INTRA.DIHEDRAL>
-10.3343

>  <SCORE.INTRA.DIHEDRAL.0>
15.6389

>  <SCORE.INTRA.POLAR>
0

>  <SCORE.INTRA.POLAR.0>
0

>  <SCORE.INTRA.REPUL>
0.121085

>  <SCORE.INTRA.REPUL.0>
0

>  <SCORE.INTRA.SOLV>
2.20304

>  <SCORE.INTRA.SOLV.lig_0>
-90.9181

>  <SCORE.INTRA.VDW>
-0.0363707

>  <SCORE.INTRA.VDW.0>
-3.14158

>  <SCORE.INTRA.norm>
-0.0945018

>  <SCORE.RESTR>
0.004386

>  <SCORE.RESTR.CAVITY>
0.004386

>  <SCORE.RESTR.norm>
0.00011854

>  <SCORE.SYSTEM>
0

>  <SCORE.SYSTEM.CONST>
0

>  <SCORE.SYSTEM.DIHEDRAL>
0

>  <SCORE.SYSTEM.SOLV>
0

>  <SCORE.SYSTEM.norm>
0

>  <SCORE.heavy>
37

>  <SCORE.norm>
-0.592945

>  <RMSD>
10.159

$$$$
1yrj_lig
 OpenBabel11021811423D
libRbt.so/2013.1/901 2013/11/27
 37 40  0  0  0  0  0  0  0  0999 V2000
   38.3903   -1.0795    9.5248 C   0  0  1  0  0  0  0  0  0  0  0  0
   37.3319   -0.7912    8.4422 C   0  0  1  0  0  0  0  0  0  0  0  0
   37.8053    0.2853    7.4525 C   0  0  0  0  0  0  0  0  0  0  0  0
   38.2117    1.5708    8.2192 C   0  0  1  0  0  0  0  0  0  0  0  0
   39.3057    1.2447    9.2536 C   0  0  1  0  0  0  0  0  0  0  0  0
   39.7118    2.5772   10.0135 C   0  0  1  0  0  0  0  0  0  0  0  0
   40.2281    3.6133    9.0020 C   0  0  1  0  0  0  0  0  0  0  0  0
   39.1124    3.8681    7.9596 C   0  0  2  0  0  0  0  0  0  0  0  0
   39.5801    5.7434   10.2467 C   0  0  0  0  0  0  0  0  0  0  0  0
   36.9399   -2.0114    7.7179 N   0  0  0  0  0  0  0  0  0  0  0  0
   40.6605    4.8546    9.7159 N   0  0  0  0  0  0  0  0  0  0  0  0
   39.5145   -1.8406    9.0451 O   0  0  0  0  0  0  0  0  0  0  0  0
   38.7931    0.1930   10.1550 O   0  0  0  0  0  0  0  0  0  0  0  0
   38.7131    2.6275    7.3111 O   0  0  0  0  0  0  0  0  0  0  0  0
   38.5702    3.1294   10.6353 O   0  0  0  0  0  0  0  0  0  0  0  0
   39.5323    4.7768    6.9410 O   0  0  0  0  0  0  0  0  0  0  0  0
   38.4330    5.3274    6.1780 C   0  0  2  0  0  0  0  0  0  0  0  0
   38.8871    6.2410    5.0279 C   0  0  1  0  0  0  0  0  0  0  0  0
   39.5026    7.5587    5.5694 C   0  0  2  0  0  0  0  0  0  0  0  0
   38.5005    8.2714    6.4484 C   0  0  1  0  0  0  0  0  0  0  0  0
   38.0862    7.3386    7.6109 C   0  0  1  0  0  0  0  0  0  0  0  0
   37.0349    7.9631    8.5256 C   0  0  0  0  0  0  0  0  0  0  0  0
   39.1159    9.5171    6.9514 N   0  0  0  0  0  0  0  0  0  0  0  0
   37.5242    6.0900    7.0653 O   0  0  0  0  0  0  0  0  0  0  0  0
   39.8083    5.5093    4.2062 O   0  0  0  0  0  0  0  0  0  0  0  0
   39.8455    8.4174    4.4730 O   0  0  0  0  0  0  0  0  0  0  0  0
   37.5748    9.0967    9.1512 O   0  0  0  0  0  0  0  0  0  0  0  0
   40.7707   -2.1053    9.8613 C   0  0  1  0  0  0  0  0  0  0  0  0
   40.3940   -3.1250   10.9588 C   0  0  1  0  0  0  0  0  0  0  0  0
   41.6281   -3.5143   11.8082 C   0  0  2  0  0  0  0  0  0  0  0  0
   42.7178   -4.1076   10.9073 C   0  0  1  0  0  0  0  0  0  0  0  0
   43.1323   -3.0804    9.8229 C   0  0  0  0  0  0  0  0  0  0  0  0
   41.9008   -2.7218    8.9847 C   0  0  2  0  0  0  0  0  0  0  0  0
   43.8986   -4.4672   11.7239 N   0  0  0  0  0  0  0  0  0  0  0  0
   42.3348   -1.7690    7.9665 N   0  0  0  0  0  0  0  0  0  0  0  0
   39.4021   -2.5368   11.8283 O   0  0  0  0  0  0  0  0  0  0  0  0
   41.2248   -4.4846   12.7985 O   0  0  0  0  0  0  0  0  0  0  0  0
  1  2  1  0  0  0  0
  1 12  1  6  0  0  0
  1 13  1  0  0  0  0
  2  3  1  0  0  0  0
  2 10  1  6  0  0  0
  4  3  1  6  0  0  0
  4  5  1  0  0  0  0
  4 14  1  0  0  0  0
  5  6  1  0  0  0  0
  5 13  1  1  0  0  0
  6  7  1  0  0  0  0
  6 15  1  6  0  0  0
  7  8  1  0  0  0  0
  7 11  1  1  0  0  0
  8 14  1  0  0  0  0
  8 16  1  6  0  0  0
  9 11  1  0  0  0  0
 17 16  1  1  0  0  0
 17 18  1  0  0  0  0
 17 24  1  0  0  0  0
 18 19  1  0  0  0  0
 18 25  1  1  0  0  0
 19 20  1  0  0  0  0
 19 26  1  6  0  0  0
 20 21  1  0  0  0  0
 20 23  1  1  0  0  0
 21 22  1  1  0  0  0
 21 24  1  0  0  0  0
 22 27  1  0  0  0  0
 28 12  1  6  0  0  0
 28 29  1  0  0  0  0
 28 33  1  0  0  0  0
 29 30  1  0  0  0  0
 29 36  1  1  0  0  0
 30 31  1  0  0  0  0
 30 37  1  1  0  0  0
 31 32  1  0  0  0  0
 31 34  1  1  0  0  0
 32 33  1  0  0  0  0
 33 35  1  6  0  0  0
M  END
>  <CHROM.1>
171.95144380,-73.99520319,-163.65674675,-176.59345308,-63.75915585,72.19235126
39.55182616,2.16028823,8.63508011,-0.50149640,1.32740912,-1.40559666

>  <Name>
1yrj_lig

>  <RI>
0

>  <Rbt.Current_Directory>
/home/itssahil/PROJECTS/Mol_Feturizer/New_Systems/rnas/1yrj

>  <Rbt.Executable>
rbdock ($Id: //depot/dev/client3/rdock/2013.1/src/exe/rbdock.cxx#4 $)

>  <Rbt.Library>
libRbt.so (2013.1, Build901 2013/11/27)

>  <Rbt.Parameter_File>
/export/apps/rDock/src/rDock_2013.1_src/data/scripts/dock_solv.prm

>  <Rbt.Receptor>
prm/pocket_docking_5.prm

>  <SCORE>
-27.5238

>  <SCORE.INTER>
-22.3872

>  <SCORE.INTER.CONST>
1

>  <SCORE.INTER.POLAR>
-1.28421

>  <SCORE.INTER.ROT>
6

>  <SCORE.INTER.SOLV>
14.0439

>  <SCORE.INTER.VDW>
-22.9254

>  <SCORE.INTER.norm>
-0.605059

>  <SCORE.INTRA>
-5.13665

>  <SCORE.INTRA.DIHEDRAL>
-13.0127

>  <SCORE.INTRA.DIHEDRAL.0>
15.6389

>  <SCORE.INTRA.POLAR>
0

>  <SCORE.INTRA.POLAR.0>
0

>  <SCORE.INTRA.REPUL>
0

>  <SCORE.INTRA.REPUL.0>
0

>  <SCORE.INTRA.SOLV>
-1.31998

>  <SCORE.INTRA.SOLV.lig_0>
-90.9181

>  <SCORE.INTRA.VDW>
2.0297

>  <SCORE.INTRA.VDW.0>
-3.14158

>  <SCORE.INTRA.norm>
-0.138828

>  <SCORE.RESTR>
0

>  <SCORE.RESTR.CAVITY>
0

>  <SCORE.RESTR.norm>
0

>  <SCORE.SYSTEM>
0

>  <SCORE.SYSTEM.CONST>
0

>  <SCORE.SYSTEM.DIHEDRAL>
0

>  <SCORE.SYSTEM.SOLV>
0

>  <SCORE.SYSTEM.norm>
0

>  <SCORE.heavy>
37

>  <SCORE.norm>
-0.743888

>  <RMSD>
10.159

$$$$
1yrj_lig
 OpenBabel11021811423D
libRbt.so/2013.1/901 2013/11/27
 37 40  0  0  0  0  0  0  0  0999 V2000
   38.8333   -0.2697    9.5662 C   0  0  1  0  0  0  0  0  0  0  0  0
   37.8402    0.0195    8.4236 C   0  0  1  0  0  0  0  0  0  0  0  0
   38.3279    1.1616    7.5179 C   0  0  0  0  0  0  0  0  0  0  0  0
   38.6157    2.4274    8.3667 C   0  0  1  0  0  0  0  0  0  0  0  0
   39.6494    2.1045    9.4622 C   0  0  1  0  0  0  0  0  0  0  0  0
   39.9351    3.4175   10.3062 C   0  0  1  0  0  0  0  0  0  0  0  0
   40.4691    4.5223    9.3801 C   0  0  1  0  0  0  0  0  0  0  0  0
   39.4177    4.7735    8.2720 C   0  0  2  0  0  0  0  0  0  0  0  0
   42.0998    5.7656   10.8971 C   0  0  0  0  0  0  0  0  0  0  0  0
   37.5605   -1.1825    7.6210 N   0  0  0  0  0  0  0  0  0  0  0  0
   40.7887    5.7476   10.1762 N   0  0  0  0  0  0  0  0  0  0  0  0
   40.0245   -0.9549    9.1364 O   0  0  0  0  0  0  0  0  0  0  0  0
   39.1277    0.9894   10.2781 O   0  0  0  0  0  0  0  0  0  0  0  0
   39.1265    3.5473    7.5435 O   0  0  0  0  0  0  0  0  0  0  0  0
   38.7270    3.8868   10.8673 O   0  0  0  0  0  0  0  0  0  0  0  0
   39.8623    5.7471    7.3265 O   0  0  0  0  0  0  0  0  0  0  0  0
   38.7953    6.5866    6.8263 C   0  0  2  0  0  0  0  0  0  0  0  0
   38.0593    5.9820    5.6195 C   0  0  1  0  0  0  0  0  0  0  0  0
   38.9700    5.9572    4.3632 C   0  0  2  0  0  0  0  0  0  0  0  0
   39.4476    7.3558    4.0464 C   0  0  1  0  0  0  0  0  0  0  0  0
   40.2086    7.9247    5.2673 C   0  0  1  0  0  0  0  0  0  0  0  0
   40.6870    9.3588    5.0515 C   0  0  0  0  0  0  0  0  0  0  0  0
   40.3143    7.2991    2.8510 N   0  0  0  0  0  0  0  0  0  0  0  0
   39.3248    7.9172    6.4468 O   0  0  0  0  0  0  0  0  0  0  0  0
   37.5981    4.6722    5.9813 O   0  0  0  0  0  0  0  0  0  0  0  0
   38.2301    5.4582    3.2405 O   0  0  0  0  0  0  0  0  0  0  0  0
   41.6882    9.3739    4.0691 O   0  0  0  0  0  0  0  0  0  0  0  0
   41.0401   -1.5696   10.0877 C   0  0  1  0  0  0  0  0  0  0  0  0
   40.3909   -2.8347   10.6910 C   0  0  1  0  0  0  0  0  0  0  0  0
   41.3750   -3.5758   11.6284 C   0  0  2  0  0  0  0  0  0  0  0  0
   42.6408   -3.9659   10.8560 C   0  0  1  0  0  0  0  0  0  0  0  0
   43.3235   -2.7011   10.2756 C   0  0  0  0  0  0  0  0  0  0  0  0
   42.3388   -1.9929    9.3393 C   0  0  2  0  0  0  0  0  0  0  0  0
   43.5815   -4.6639   11.7606 N   0  0  0  0  0  0  0  0  0  0  0  0
   43.0231   -0.8205    8.8007 N   0  0  0  0  0  0  0  0  0  0  0  0
   39.2276   -2.4490   11.4550 O   0  0  0  0  0  0  0  0  0  0  0  0
   40.7268   -4.7590   12.1428 O   0  0  0  0  0  0  0  0  0  0  0  0
  1  2  1  0  0  0  0
  1 12  1  6  0  0  0
  1 13  1  0  0  0  0
  2  3  1  0  0  0  0
  2 10  1  6  0  0  0
  4  3  1  6  0  0  0
  4  5  1  0  0  0  0
  4 14  1  0  0  0  0
  5  6  1  0  0  0  0
  5 13  1  1  0  0  0
  6  7  1  0  0  0  0
  6 15  1  6  0  0  0
  7  8  1  0  0  0  0
  7 11  1  1  0  0  0
  8 14  1  0  0  0  0
  8 16  1  6  0  0  0
  9 11  1  0  0  0  0
 17 16  1  6  0  0  0
 17 18  1  0  0  0  0
 17 24  1  0  0  0  0
 18 19  1  0  0  0  0
 18 25  1  1  0  0  0
 19 20  1  0  0  0  0
 19 26  1  6  0  0  0
 20 21  1  0  0  0  0
 20 23  1  6  0  0  0
 21 22  1  6  0  0  0
 21 24  1  0  0  0  0
 22 27  1  0  0  0  0
 28 12  1  6  0  0  0
 28 29  1  0  0  0  0
 28 33  1  0  0  0  0
 29 30  1  0  0  0  0
 29 36  1  1  0  0  0
 30 31  1  0  0  0  0
 30 37  1  6  0  0  0
 31 32  1  0  0  0  0
 31 34  1  1  0  0  0
 32 33  1  0  0  0  0
 33 35  1  1  0  0  0
M  END
>  <CHROM.1>
-168.82386711,80.89680370,-144.64085422,-86.33469627,-67.92731080,72.46600123
40.02115654,2.47964756,8.26072768,1.37506248,0.84381768,2.79364668

>  <Name>
1yrj_lig

>  <RI>
0

>  <Rbt.Current_Directory>
/home/itssahil/PROJECTS/Mol_Feturizer/New_Systems/rnas/1yrj

>  <Rbt.Executable>
rbdock ($Id: //depot/dev/client3/rdock/2013.1/src/exe/rbdock.cxx#4 $)

>  <Rbt.Library>
libRbt.so (2013.1, Build901 2013/11/27)

>  <Rbt.Parameter_File>
/export/apps/rDock/src/rDock_2013.1_src/data/scripts/dock_solv.prm

>  <Rbt.Receptor>
prm/pocket_docking_6.prm

>  <SCORE>
-22.0522

>  <SCORE.INTER>
-19.4311

>  <SCORE.INTER.CONST>
1

>  <SCORE.INTER.POLAR>
-0.960168

>  <SCORE.INTER.ROT>
6

>  <SCORE.INTER.SOLV>
15.9008

>  <SCORE.INTER.VDW>
-22.6538

>  <SCORE.INTER.norm>
-0.525166

>  <SCORE.INTRA>
-2.62107

>  <SCORE.INTRA.DIHEDRAL>
-6.17672

>  <SCORE.INTRA.DIHEDRAL.0>
15.6389

>  <SCORE.INTRA.POLAR>
0

>  <SCORE.INTRA.POLAR.0>
0

>  <SCORE.INTRA.REPUL>
0

>  <SCORE.INTRA.REPUL.0>
0

>  <SCORE.INTRA.SOLV>
-1.15908

>  <SCORE.INTRA.SOLV.lig_0>
-90.9181

>  <SCORE.INTRA.VDW>
1.04683

>  <SCORE.INTRA.VDW.0>
-3.14158

>  <SCORE.INTRA.norm>
-0.0708397

>  <SCORE.RESTR>
0

>  <SCORE.RESTR.CAVITY>
0

>  <SCORE.RESTR.norm>
0

>  <SCORE.SYSTEM>
0

>  <SCORE.SYSTEM.CONST>
0

>  <SCORE.SYSTEM.DIHEDRAL>
0

>  <SCORE.SYSTEM.SOLV>
0

>  <SCORE.SYSTEM.norm>
0

>  <SCORE.heavy>
37

>  <SCORE.norm>
-0.596005

>  <RMSD>
10.164

$$$$
1yrj_lig
 OpenBabel11021811423D
libRbt.so/2013.1/901 2013/11/27
 37 40  0  0  0  0  0  0  0  0999 V2000
   39.7023    0.1822    9.3732 C   0  0  1  0  0  0  0  0  0  0  0  0
   38.4027    0.2737    8.5496 C   0  0  1  0  0  0  0  0  0  0  0  0
   38.3592    1.5474    7.6904 C   0  0  0  0  0  0  0  0  0  0  0  0
   38.5660    2.7986    8.5833 C   0  0  1  0  0  0  0  0  0  0  0  0
   39.8988    2.6870    9.3476 C   0  0  1  0  0  0  0  0  0  0  0  0
   40.0916    3.9836   10.2419 C   0  0  1  0  0  0  0  0  0  0  0  0
   40.0945    5.2338    9.3473 C   0  0  1  0  0  0  0  0  0  0  0  0
   38.7582    5.2723    8.5669 C   0  0  2  0  0  0  0  0  0  0  0  0
   41.6729    6.5993   10.8138 C   0  0  0  0  0  0  0  0  0  0  0  0
   38.2013   -0.9161    7.7066 N   0  0  0  0  0  0  0  0  0  0  0  0
   40.3263    6.4566   10.1770 N   0  0  0  0  0  0  0  0  0  0  0  0
   40.8601   -0.1601    8.5887 O   0  0  0  0  0  0  0  0  0  0  0  0
   39.8805    1.4357   10.1319 O   0  0  0  0  0  0  0  0  0  0  0  0
   38.5711    4.0522    7.7952 O   0  0  0  0  0  0  0  0  0  0  0  0
   39.0019    4.1061   11.1319 O   0  0  0  0  0  0  0  0  0  0  0  0
   38.7021    6.3743    7.6603 O   0  0  0  0  0  0  0  0  0  0  0  0
   37.3825    6.9578    7.5512 C   0  0  2  0  0  0  0  0  0  0  0  0
   37.2274    7.8907    6.3391 C   0  0  1  0  0  0  0  0  0  0  0  0
   38.0615    9.1868    6.5198 C   0  0  2  0  0  0  0  0  0  0  0  0
   37.6452    9.8936    7.7894 C   0  0  1  0  0  0  0  0  0  0  0  0
   37.8406    8.9406    8.9923 C   0  0  1  0  0  0  0  0  0  0  0  0
   37.3972    9.5592   10.3161 C   0  0  0  0  0  0  0  0  0  0  0  0
   38.4584   11.1186    7.9359 N   0  0  0  0  0  0  0  0  0  0  0  0
   37.0524    7.7130    8.7822 O   0  0  0  0  0  0  0  0  0  0  0  0
   37.6015    7.1647    5.1592 O   0  0  0  0  0  0  0  0  0  0  0  0
   37.8352   10.0651    5.4088 O   0  0  0  0  0  0  0  0  0  0  0  0
   36.0381    9.8983   10.2408 O   0  0  0  0  0  0  0  0  0  0  0  0
   42.2760   -0.2109    9.1428 C   0  0  1  0  0  0  0  0  0  0  0  0
   42.4023   -1.5221    9.9496 C   0  0  1  0  0  0  0  0  0  0  0  0
   43.8366   -1.7025   10.5032 C   0  0  2  0  0  0  0  0  0  0  0  0
   44.8463   -1.7095    9.3493 C   0  0  1  0  0  0  0  0  0  0  0  0
   44.7562   -0.3829    8.5526 C   0  0  0  0  0  0  0  0  0  0  0  0
   43.3347   -0.2328    8.0007 C   0  0  2  0  0  0  0  0  0  0  0  0
   46.2159   -1.8711    9.8863 N   0  0  0  0  0  0  0  0  0  0  0  0
   43.2956    1.0158    7.2440 N   0  0  0  0  0  0  0  0  0  0  0  0
   41.4803   -1.4827   11.0606 O   0  0  0  0  0  0  0  0  0  0  0  0
   43.9038   -2.9513   11.2248 O   0  0  0  0  0  0  0  0  0  0  0  0
  1  2  1  0  0  0  0
  1 12  1  6  0  0  0
  1 13  1  0  0  0  0
  2  3  1  0  0  0  0
  2 10  1  6  0  0  0
  4  3  1  6  0  0  0
  4  5  1  0  0  0  0
  4 14  1  0  0  0  0
  5  6  1  0  0  0  0
  5 13  1  1  0  0  0
  6  7  1  0  0  0  0
  6 15  1  1  0  0  0
  7  8  1  0  0  0  0
  7 11  1  1  0  0  0
  8 14  1  0  0  0  0
  8 16  1  6  0  0  0
  9 11  1  0  0  0  0
 17 16  1  1  0  0  0
 17 18  1  0  0  0  0
 17 24  1  0  0  0  0
 18 19  1  0  0  0  0
 18 25  1  6  0  0  0
 19 20  1  0  0  0  0
 19 26  1  6  0  0  0
 20 21  1  0  0  0  0
 20 23  1  1  0  0  0
 21 22  1  1  0  0  0
 21 24  1  0  0  0  0
 22 27  1  0  0  0  0
 28 12  1  6  0  0  0
 28 29  1  0  0  0  0
 28 33  1  0  0  0  0
 29 30  1  0  0  0  0
 29 36  1  1  0  0  0
 30 31  1  0  0  0  0
 30 37  1  6  0  0  0
 31 32  1  0  0  0  0
 31 34  1  1  0  0  0
 32 33  1  0  0  0  0
 33 35  1  1  0  0  0
M  END
>  <CHROM.1>
175.24430268,67.26917586,-143.81778983,-165.38634984,59.42875097,76.77929009
39.96752642,3.74575025,8.80959798,1.00688103,0.53630553,-2.98956214

>  <Name>
1yrj_lig

>  <RI>
0

>  <Rbt.Current_Directory>
/home/itssahil/PROJECTS/Mol_Feturizer/New_Systems/rnas/1yrj

>  <Rbt.Executable>
rbdock ($Id: //depot/dev/client3/rdock/2013.1/src/exe/rbdock.cxx#4 $)

>  <Rbt.Library>
libRbt.so (2013.1, Build901 2013/11/27)

>  <Rbt.Parameter_File>
/export/apps/rDock/src/rDock_2013.1_src/data/scripts/dock_solv.prm

>  <Rbt.Receptor>
prm/pocket_docking_6.prm

>  <SCORE>
-27.0442

>  <SCORE.INTER>
-22.5066

>  <SCORE.INTER.CONST>
1

>  <SCORE.INTER.POLAR>
-1.41922

>  <SCORE.INTER.ROT>
6

>  <SCORE.INTER.SOLV>
15.62

>  <SCORE.INTER.VDW>
-23.0804

>  <SCORE.INTER.norm>
-0.608288

>  <SCORE.INTRA>
-4.54115

>  <SCORE.INTRA.DIHEDRAL>
-8.34901

>  <SCORE.INTRA.DIHEDRAL.0>
15.6389

>  <SCORE.INTRA.POLAR>
0

>  <SCORE.INTRA.POLAR.0>
0

>  <SCORE.INTRA.REPUL>
0

>  <SCORE.INTRA.REPUL.0>
0

>  <SCORE.INTRA.SOLV>
-1.52185

>  <SCORE.INTRA.SOLV.lig_0>
-90.9181

>  <SCORE.INTRA.VDW>
0.394281

>  <SCORE.INTRA.VDW.0>
-3.14158

>  <SCORE.INTRA.norm>
-0.122734

>  <SCORE.RESTR>
0.00364129

>  <SCORE.RESTR.CAVITY>
0.00364129

>  <SCORE.RESTR.norm>
9.84131e-05

>  <SCORE.SYSTEM>
0

>  <SCORE.SYSTEM.CONST>
0

>  <SCORE.SYSTEM.DIHEDRAL>
0

>  <SCORE.SYSTEM.SOLV>
0

>  <SCORE.SYSTEM.norm>
0

>  <SCORE.heavy>
37

>  <SCORE.norm>
-0.730923

>  <RMSD>
10.166

$$$$
1yrj_lig
 OpenBabel11021811423D
libRbt.so/2013.1/901 2013/11/27
 37 40  0  0  0  0  0  0  0  0999 V2000
   38.3531    6.6857    9.4328 C   0  0  1  0  0  0  0  0  0  0  0  0
   38.0359    5.4838    8.5216 C   0  0  1  0  0  0  0  0  0  0  0  0
   38.9130    5.4764    7.2595 C   0  0  0  0  0  0  0  0  0  0  0  0
   38.7723    6.8248    6.5061 C   0  0  1  0  0  0  0  0  0  0  0  0
   39.1474    7.9920    7.4388 C   0  0  1  0  0  0  0  0  0  0  0  0
   39.0077    9.3564    6.6408 C   0  0  1  0  0  0  0  0  0  0  0  0
   39.9348    9.3363    5.4146 C   0  0  1  0  0  0  0  0  0  0  0  0
   39.5494    8.1202    4.5378 C   0  0  2  0  0  0  0  0  0  0  0  0
   41.1008   11.1429    4.0424 C   0  0  0  0  0  0  0  0  0  0  0  0
   38.1623    4.2034    9.2368 N   0  0  0  0  0  0  0  0  0  0  0  0
   39.8468   10.6390    4.6847 N   0  0  0  0  0  0  0  0  0  0  0  0
   39.5957    6.5557   10.1485 O   0  0  0  0  0  0  0  0  0  0  0  0
   38.2839    7.9258    8.6352 O   0  0  0  0  0  0  0  0  0  0  0  0
   39.6298    6.8828    5.3003 O   0  0  0  0  0  0  0  0  0  0  0  0
   37.6845    9.4886    6.1652 O   0  0  0  0  0  0  0  0  0  0  0  0
   40.4060    7.9890    3.4026 O   0  0  0  0  0  0  0  0  0  0  0  0
   39.6902    7.7136    2.1756 C   0  0  2  0  0  0  0  0  0  0  0  0
   40.5446    6.9917    1.1209 C   0  0  1  0  0  0  0  0  0  0  0  0
   41.6514    7.9253    0.5625 C   0  0  2  0  0  0  0  0  0  0  0  0
   41.0266    9.1707   -0.0235 C   0  0  1  0  0  0  0  0  0  0  0  0
   40.1989    9.8892    1.0683 C   0  0  1  0  0  0  0  0  0  0  0  0
   39.4899   11.1378    0.5484 C   0  0  0  0  0  0  0  0  0  0  0  0
   42.1033   10.0399   -0.5416 N   0  0  0  0  0  0  0  0  0  0  0  0
   39.1706    8.9720    1.5915 O   0  0  0  0  0  0  0  0  0  0  0  0
   41.0862    5.8028    1.7145 O   0  0  0  0  0  0  0  0  0  0  0  0
   42.3797    7.2465   -0.4698 O   0  0  0  0  0  0  0  0  0  0  0  0
   38.7628   11.7300    1.5917 O   0  0  0  0  0  0  0  0  0  0  0  0
   40.0503    7.5122   11.2406 C   0  0  1  0  0  0  0  0  0  0  0  0
   39.1733    7.2357   12.4818 C   0  0  1  0  0  0  0  0  0  0  0  0
   39.6038    8.1177   13.6788 C   0  0  2  0  0  0  0  0  0  0  0  0
   41.0754    7.8550   14.0202 C   0  0  1  0  0  0  0  0  0  0  0  0
   41.9717    8.1640   12.7939 C   0  0  0  0  0  0  0  0  0  0  0  0
   41.5394    7.2697   11.6272 C   0  0  2  0  0  0  0  0  0  0  0  0
   41.4834    8.7092   15.1579 N   0  0  0  0  0  0  0  0  0  0  0  0
   42.4162    7.5770   10.5004 N   0  0  0  0  0  0  0  0  0  0  0  0
   37.7965    7.5322   12.1617 O   0  0  0  0  0  0  0  0  0  0  0  0
   38.7701    7.8012   14.8144 O   0  0  0  0  0  0  0  0  0  0  0  0
  1  2  1  0  0  0  0
  1 12  1  6  0  0  0
  1 13  1  0  0  0  0
  2  3  1  0  0  0  0
  2 10  1  1  0  0  0
  4  3  1  1  0  0  0
  4  5  1  0  0  0  0
  4 14  1  0  0  0  0
  5  6  1  0  0  0  0
  5 13  1  1  0  0  0
  6  7  1  0  0  0  0
  6 15  1  6  0  0  0
  7  8  1  0  0  0  0
  7 11  1  6  0  0  0
  8 14  1  0  0  0  0
  8 16  1  6  0  0  0
  9 11  1  0  0  0  0
 17 16  1  1  0  0  0
 17 18  1  0  0  0  0
 17 24  1  0  0  0  0
 18 19  1  0  0  0  0
 18 25  1  1  0  0  0
 19 20  1  0  0  0  0
 19 26  1  6  0  0  0
 20 21  1  0  0  0  0
 20 23  1  1  0  0  0
 21 22  1  6  0  0  0
 21 24  1  0  0  0  0
 22 27  1  0  0  0  0
 28 12  1  6  0  0  0
 28 29  1  0  0  0  0
 28 33  1  0  0  0  0
 29 30  1  0  0  0  0
 29 36  1  6  0  0  0
 30 31  1  0  0  0  0
 30 37  1  1  0  0  0
 31 32  1  0  0  0  0
 31 34  1  1  0  0  0
 32 33  1  0  0  0  0
 33 35  1  6  0  0  0
M  END
>  <CHROM.1>
-171.81379921,145.25755679,-135.28367719,-155.12991564,179.94156211,72.47247307
39.88676438,8.07732506,6.58461390,1.89536617,1.37880124,1.38314467

>  <Name>
1yrj_lig

>  <RI>
0

>  <Rbt.Current_Directory>
/home/itssahil/PROJECTS/Mol_Feturizer/New_Systems/rnas/1yrj

>  <Rbt.Executable>
rbdock ($Id: //depot/dev/client3/rdock/2013.1/src/exe/rbdock.cxx#4 $)

>  <Rbt.Library>
libRbt.so (2013.1, Build901 2013/11/27)

>  <Rbt.Parameter_File>
/export/apps/rDock/src/rDock_2013.1_src/data/scripts/dock_solv.prm

>  <Rbt.Receptor>
prm/pocket_docking_8.prm

>  <SCORE>
-18.5533

>  <SCORE.INTER>
-14.6654

>  <SCORE.INTER.CONST>
1

>  <SCORE.INTER.POLAR>
-2.0177

>  <SCORE.INTER.ROT>
6

>  <SCORE.INTER.SOLV>
17.2508

>  <SCORE.INTER.VDW>
-16.4015

>  <SCORE.INTER.norm>
-0.396362

>  <SCORE.INTRA>
-3.88788

>  <SCORE.INTRA.DIHEDRAL>
-5.00662

>  <SCORE.INTRA.DIHEDRAL.0>
15.6389

>  <SCORE.INTRA.POLAR>
0

>  <SCORE.INTRA.POLAR.0>
0

>  <SCORE.INTRA.REPUL>
0

>  <SCORE.INTRA.REPUL.0>
0

>  <SCORE.INTRA.SOLV>
-1.56123

>  <SCORE.INTRA.SOLV.lig_0>
-90.9181

>  <SCORE.INTRA.VDW>
-0.603952

>  <SCORE.INTRA.VDW.0>
-3.14158

>  <SCORE.INTRA.norm>
-0.105078

>  <SCORE.RESTR>
0

>  <SCORE.RESTR.CAVITY>
0

>  <SCORE.RESTR.norm>
0

>  <SCORE.SYSTEM>
0

>  <SCORE.SYSTEM.CONST>
0

>  <SCORE.SYSTEM.DIHEDRAL>
0

>  <SCORE.SYSTEM.SOLV>
0

>  <SCORE.SYSTEM.norm>
0

>  <SCORE.heavy>
37

>  <SCORE.norm>
-0.50144

>  <RMSD>
10.169

$$$$
1yrj_lig
 OpenBabel11021811423D
libRbt.so/2013.1/901 2013/11/27
 37 40  0  0  0  0  0  0  0  0999 V2000
   39.6683    0.0360    9.3367 C   0  0  1  0  0  0  0  0  0  0  0  0
   38.3442    0.1050    8.5509 C   0  0  1  0  0  0  0  0  0  0  0  0
   38.2876    1.3371    7.6338 C   0  0  0  0  0  0  0  0  0  0  0  0
   38.5367    2.6263    8.4592 C   0  0  1  0  0  0  0  0  0  0  0  0
   39.8919    2.5341    9.1858 C   0  0  1  0  0  0  0  0  0  0  0  0
   40.1276    3.8688   10.0110 C   0  0  1  0  0  0  0  0  0  0  0  0
   40.1159    5.0753    9.0582 C   0  0  1  0  0  0  0  0  0  0  0  0
   38.7559    5.0938    8.3191 C   0  0  2  0  0  0  0  0  0  0  0  0
   40.8769    7.5099    9.0373 C   0  0  0  0  0  0  0  0  0  0  0  0
   38.1027   -1.1207    7.7721 N   0  0  0  0  0  0  0  0  0  0  0  0
   40.3877    6.3329    9.8212 N   0  0  0  0  0  0  0  0  0  0  0  0
   40.7966   -0.3577    8.5335 O   0  0  0  0  0  0  0  0  0  0  0  0
   39.8846    1.3215   10.0290 O   0  0  0  0  0  0  0  0  0  0  0  0
   38.5307    3.8412    7.6126 O   0  0  0  0  0  0  0  0  0  0  0  0
   39.0683    4.0471   10.9279 O   0  0  0  0  0  0  0  0  0  0  0  0
   38.6833    6.1525    7.3634 O   0  0  0  0  0  0  0  0  0  0  0  0
   37.3328    6.6122    7.1215 C   0  0  2  0  0  0  0  0  0  0  0  0
   37.2431    7.6925    6.0313 C   0  0  1  0  0  0  0  0  0  0  0  0
   37.8806    9.0243    6.5091 C   0  0  2  0  0  0  0  0  0  0  0  0
   37.2035    9.4930    7.7767 C   0  0  1  0  0  0  0  0  0  0  0  0
   37.3365    8.3983    8.8617 C   0  0  1  0  0  0  0  0  0  0  0  0
   36.6356    8.7695   10.1667 C   0  0  0  0  0  0  0  0  0  0  0  0
   37.8340   10.7577    8.2085 N   0  0  0  0  0  0  0  0  0  0  0  0
   36.7402    7.1427    8.3714 O   0  0  0  0  0  0  0  0  0  0  0  0
   37.8680    7.1877    4.8423 O   0  0  0  0  0  0  0  0  0  0  0  0
   37.7130   10.0290    5.4995 O   0  0  0  0  0  0  0  0  0  0  0  0
   36.9674    7.8332   11.1572 O   0  0  0  0  0  0  0  0  0  0  0  0
   42.1801   -0.6459    9.0968 C   0  0  1  0  0  0  0  0  0  0  0  0
   42.0632   -1.9210    9.9608 C   0  0  1  0  0  0  0  0  0  0  0  0
   43.4407   -2.3399   10.5293 C   0  0  2  0  0  0  0  0  0  0  0  0
   44.4281   -2.5848    9.3822 C   0  0  1  0  0  0  0  0  0  0  0  0
   44.5835   -1.3009    8.5277 C   0  0  0  0  0  0  0  0  0  0  0  0
   43.2129   -0.9140    7.9623 C   0  0  2  0  0  0  0  0  0  0  0  0
   45.7456   -2.9740    9.9329 N   0  0  0  0  0  0  0  0  0  0  0  0
   43.4040    0.2856    7.1516 N   0  0  0  0  0  0  0  0  0  0  0  0
   41.1678   -1.6624   11.0641 O   0  0  0  0  0  0  0  0  0  0  0  0
   43.2771   -3.5465   11.3052 O   0  0  0  0  0  0  0  0  0  0  0  0
  1  2  1  0  0  0  0
  1 12  1  6  0  0  0
  1 13  1  0  0  0  0
  2  3  1  0  0  0  0
  2 10  1  6  0  0  0
  4  3  1  6  0  0  0
  4  5  1  0  0  0  0
  4 14  1  0  0  0  0
  5  6  1  0  0  0  0
  5 13  1  1  0  0  0
  6  7  1  0  0  0  0
  6 15  1  1  0  0  0
  7  8  1  0  0  0  0
  7 11  1  1  0  0  0
  8 14  1  0  0  0  0
  8 16  1  6  0  0  0
  9 11  1  0  0  0  0
 17 16  1  1  0  0  0
 17 18  1  0  0  0  0
 17 24  1  0  0  0  0
 18 19  1  0  0  0  0
 18 25  1  6  0  0  0
 19 20  1  0  0  0  0
 19 26  1  6  0  0  0
 20 21  1  0  0  0  0
 20 23  1  1  0  0  0
 21 22  1  1  0  0  0
 21 24  1  0  0  0  0
 22 27  1  0  0  0  0
 28 12  1  6  0  0  0
 28 29  1  0  0  0  0
 28 33  1  0  0  0  0
 29 30  1  0  0  0  0
 29 36  1  1  0  0  0
 30 31  1  0  0  0  0
 30 37  1  6  0  0  0
 31 32  1  0  0  0  0
 31 34  1  1  0  0  0
 32 33  1  0  0  0  0
 33 35  1  1  0  0  0
M  END
>  <CHROM.1>
-173.12602874,159.46833539,-152.53068909,-176.50755130,-171.12648536,66.98802826
39.81877721,3.38103271,8.68670386,0.26717021,-1.09420019,1.69735187

>  <Name>
1yrj_lig

>  <RI>
0

>  <Rbt.Current_Directory>
/home/itssahil/PROJECTS/Mol_Feturizer/New_Systems/rnas/1yrj

>  <Rbt.Executable>
rbdock ($Id: //depot/dev/client3/rdock/2013.1/src/exe/rbdock.cxx#4 $)

>  <Rbt.Library>
libRbt.so (2013.1, Build901 2013/11/27)

>  <Rbt.Parameter_File>
/export/apps/rDock/src/rDock_2013.1_src/data/scripts/dock_solv.prm

>  <Rbt.Receptor>
prm/pocket_docking_8.prm

>  <SCORE>
-27.587

>  <SCORE.INTER>
-20.7221

>  <SCORE.INTER.CONST>
1

>  <SCORE.INTER.POLAR>
-1.40526

>  <SCORE.INTER.ROT>
6

>  <SCORE.INTER.SOLV>
14.0084

>  <SCORE.INTER.VDW>
-21.4

>  <SCORE.INTER.norm>
-0.560056

>  <SCORE.INTRA>
-6.86498

>  <SCORE.INTRA.DIHEDRAL>
-11.2925

>  <SCORE.INTRA.DIHEDRAL.0>
15.6389

>  <SCORE.INTRA.POLAR>
0

>  <SCORE.INTRA.POLAR.0>
0

>  <SCORE.INTRA.REPUL>
0.000497095

>  <SCORE.INTRA.REPUL.0>
0

>  <SCORE.INTRA.SOLV>
-2.07533

>  <SCORE.INTRA.SOLV.lig_0>
-90.9181

>  <SCORE.INTRA.VDW>
-0.183567

>  <SCORE.INTRA.VDW.0>
-3.14158

>  <SCORE.INTRA.norm>
-0.18554

>  <SCORE.RESTR>
0

>  <SCORE.RESTR.CAVITY>
0

>  <SCORE.RESTR.norm>
0

>  <SCORE.SYSTEM>
0

>  <SCORE.SYSTEM.CONST>
0

>  <SCORE.SYSTEM.DIHEDRAL>
0

>  <SCORE.SYSTEM.SOLV>
0

>  <SCORE.SYSTEM.norm>
0

>  <SCORE.heavy>
37

>  <SCORE.norm>
-0.745596

>  <RMSD>
10.169

$$$$
1yrj_lig
 OpenBabel11021811423D
libRbt.so/2013.1/901 2013/11/27
 37 40  0  0  0  0  0  0  0  0999 V2000
   39.2975    0.0267    9.2529 C   0  0  1  0  0  0  0  0  0  0  0  0
   38.0942    0.2961    8.3283 C   0  0  1  0  0  0  0  0  0  0  0  0
   38.3075    1.5485    7.4632 C   0  0  0  0  0  0  0  0  0  0  0  0
   38.6274    2.7694    8.3647 C   0  0  1  0  0  0  0  0  0  0  0  0
   39.8651    2.4743    9.2331 C   0  0  1  0  0  0  0  0  0  0  0  0
   40.1779    3.7421   10.1347 C   0  0  1  0  0  0  0  0  0  0  0  0
   40.4362    4.9639    9.2382 C   0  0  1  0  0  0  0  0  0  0  0  0
   39.1854    5.1870    8.3538 C   0  0  2  0  0  0  0  0  0  0  0  0
   42.0444    6.0739   10.8777 C   0  0  0  0  0  0  0  0  0  0  0  0
   37.7847   -0.8640    7.4767 N   0  0  0  0  0  0  0  0  0  0  0  0
   40.7815    6.1520   10.0788 N   0  0  0  0  0  0  0  0  0  0  0  0
   40.4493   -0.4952    8.5644 O   0  0  0  0  0  0  0  0  0  0  0  0
   39.6000    1.2519   10.0185 O   0  0  0  0  0  0  0  0  0  0  0  0
   38.8801    3.9960    7.5746 O   0  0  0  0  0  0  0  0  0  0  0  0
   39.0524    4.0382   10.9348 O   0  0  0  0  0  0  0  0  0  0  0  0
   39.3646    6.2709    7.4413 O   0  0  0  0  0  0  0  0  0  0  0  0
   39.2687    7.5699    8.0713 C   0  0  2  0  0  0  0  0  0  0  0  0
   37.8215    8.0622    8.2349 C   0  0  1  0  0  0  0  0  0  0  0  0
   37.1868    8.4018    6.8601 C   0  0  2  0  0  0  0  0  0  0  0  0
   38.0233    9.4415    6.1501 C   0  0  1  0  0  0  0  0  0  0  0  0
   39.4638    8.9054    5.9745 C   0  0  1  0  0  0  0  0  0  0  0  0
   40.3943    9.9152    5.3062 C   0  0  0  0  0  0  0  0  0  0  0  0
   37.3976    9.7400    4.8452 N   0  0  0  0  0  0  0  0  0  0  0  0
   40.0313    8.5743    7.2938 O   0  0  0  0  0  0  0  0  0  0  0  0
   37.0796    7.0577    8.9417 O   0  0  0  0  0  0  0  0  0  0  0  0
   35.8668    8.9277    7.0546 O   0  0  0  0  0  0  0  0  0  0  0  0
   40.4722   11.0719    6.0961 O   0  0  0  0  0  0  0  0  0  0  0  0
   41.6167   -1.1787    9.2605 C   0  0  1  0  0  0  0  0  0  0  0  0
   42.2269   -0.1519   10.2400 C   0  0  1  0  0  0  0  0  0  0  0  0
   43.3882   -0.7750   11.0520 C   0  0  2  0  0  0  0  0  0  0  0  0
   42.8856   -1.9950   11.8331 C   0  0  1  0  0  0  0  0  0  0  0  0
   42.3035   -3.0505   10.8585 C   0  0  0  0  0  0  0  0  0  0  0  0
   41.1466   -2.4183   10.0777 C   0  0  2  0  0  0  0  0  0  0  0  0
   44.0029   -2.5921   12.5981 N   0  0  0  0  0  0  0  0  0  0  0  0
   40.6153   -3.4461    9.1865 N   0  0  0  0  0  0  0  0  0  0  0  0
   42.7392    0.9699    9.4883 O   0  0  0  0  0  0  0  0  0  0  0  0
   43.9030    0.2175   11.9656 O   0  0  0  0  0  0  0  0  0  0  0  0
  1  2  1  0  0  0  0
  1 12  1  6  0  0  0
  1 13  1  0  0  0  0
  2  3  1  0  0  0  0
  2 10  1  6  0  0  0
  4  3  1  6  0  0  0
  4  5  1  0  0  0  0
  4 14  1  0  0  0  0
  5  6  1  0  0  0  0
  5 13  1  1  0  0  0
  6  7  1  0  0  0  0
  6 15  1  1  0  0  0
  7  8  1  0  0  0  0
  7 11  1  1  0  0  0
  8 14  1  0  0  0  0
  8 16  1  6  0  0  0
  9 11  1  0  0  0  0
 17 16  1  6  0  0  0
 17 18  1  0  0  0  0
 17 24  1  0  0  0  0
 18 19  1  0  0  0  0
 18 25  1  6  0  0  0
 19 20  1  0  0  0  0
 19 26  1  1  0  0  0
 20 21  1  0  0  0  0
 20 23  1  6  0  0  0
 21 22  1  1  0  0  0
 21 24  1  0  0  0  0
 22 27  1  0  0  0  0
 28 12  1  1  0  0  0
 28 29  1  0  0  0  0
 28 33  1  0  0  0  0
 29 30  1  0  0  0  0
 29 36  1  6  0  0  0
 30 31  1  0  0  0  0
 30 37  1  1  0  0  0
 31 32  1  0  0  0  0
 31 34  1  6  0  0  0
 32 33  1  0  0  0  0
 33 35  1  6  0  0  0
M  END
>  <CHROM.1>
-163.35207814,64.06868377,-75.52166675,-83.22640918,60.57898658,-60.33111714
39.99091445,3.59517191,8.77316245,1.23333254,0.55323190,2.98766664

>  <Name>
1yrj_lig

>  <RI>
0

>  <Rbt.Current_Directory>
/home/itssahil/PROJECTS/Mol_Feturizer/New_Systems/rnas/1yrj

>  <Rbt.Executable>
rbdock ($Id: //depot/dev/client3/rdock/2013.1/src/exe/rbdock.cxx#4 $)

>  <Rbt.Library>
libRbt.so (2013.1, Build901 2013/11/27)

>  <Rbt.Parameter_File>
/export/apps/rDock/src/rDock_2013.1_src/data/scripts/dock_solv.prm

>  <Rbt.Receptor>
prm/pocket_docking_3.prm

>  <SCORE>
-24.5862

>  <SCORE.INTER>
-19.8206

>  <SCORE.INTER.CONST>
1

>  <SCORE.INTER.POLAR>
-0.932518

>  <SCORE.INTER.ROT>
6

>  <SCORE.INTER.SOLV>
16.5473

>  <SCORE.INTER.VDW>
-23.2211

>  <SCORE.INTER.norm>
-0.535693

>  <SCORE.INTRA>
-4.76628

>  <SCORE.INTRA.DIHEDRAL>
-10.7912

>  <SCORE.INTRA.DIHEDRAL.0>
15.6389

>  <SCORE.INTRA.POLAR>
0

>  <SCORE.INTRA.POLAR.0>
0

>  <SCORE.INTRA.REPUL>
0

>  <SCORE.INTRA.REPUL.0>
0

>  <SCORE.INTRA.SOLV>
-0.0284791

>  <SCORE.INTRA.SOLV.lig_0>
-90.9181

>  <SCORE.INTRA.VDW>
0.643586

>  <SCORE.INTRA.VDW.0>
-3.14158

>  <SCORE.INTRA.norm>
-0.128818

>  <SCORE.RESTR>
0.000716464

>  <SCORE.RESTR.CAVITY>
0.000716464

>  <SCORE.RESTR.norm>
1.93639e-05

>  <SCORE.SYSTEM>
0

>  <SCORE.SYSTEM.CONST>
0

>  <SCORE.SYSTEM.DIHEDRAL>
0

>  <SCORE.SYSTEM.SOLV>
0

>  <SCORE.SYSTEM.norm>
0

>  <SCORE.heavy>
37

>  <SCORE.norm>
-0.664492

>  <RMSD>
10.172

$$$$
1yrj_lig
 OpenBabel11021811423D
libRbt.so/2013.1/901 2013/11/27
 37 40  0  0  0  0  0  0  0  0999 V2000
   39.6776   -0.0588    9.2926 C   0  0  1  0  0  0  0  0  0  0  0  0
   38.3699    0.0502    8.4843 C   0  0  1  0  0  0  0  0  0  0  0  0
   38.3428    1.3132    7.6089 C   0  0  0  0  0  0  0  0  0  0  0  0
   38.5879    2.5712    8.4825 C   0  0  1  0  0  0  0  0  0  0  0  0
   39.9277    2.4406    9.2314 C   0  0  1  0  0  0  0  0  0  0  0  0
   40.1598    3.7442   10.1060 C   0  0  1  0  0  0  0  0  0  0  0  0
   40.1781    4.9824    9.1950 C   0  0  1  0  0  0  0  0  0  0  0  0
   38.8330    5.0397    8.4309 C   0  0  2  0  0  0  0  0  0  0  0  0
   41.7223    6.2419   10.7874 C   0  0  0  0  0  0  0  0  0  0  0  0
   38.1321   -1.1458    7.6597 N   0  0  0  0  0  0  0  0  0  0  0  0
   40.4468    6.2105   10.0055 N   0  0  0  0  0  0  0  0  0  0  0  0
   40.8177   -0.4363    8.4984 O   0  0  0  0  0  0  0  0  0  0  0  0
   39.8925    1.2003   10.0325 O   0  0  0  0  0  0  0  0  0  0  0  0
   38.6099    3.8141    7.6778 O   0  0  0  0  0  0  0  0  0  0  0  0
   39.0845    3.9019   11.0079 O   0  0  0  0  0  0  0  0  0  0  0  0
   38.7891    6.1308    7.5106 O   0  0  0  0  0  0  0  0  0  0  0  0
   37.4448    6.5827    7.2240 C   0  0  2  0  0  0  0  0  0  0  0  0
   37.3855    7.6655    6.1342 C   0  0  1  0  0  0  0  0  0  0  0  0
   37.9978    8.9999    6.6369 C   0  0  2  0  0  0  0  0  0  0  0  0
   37.2750    9.4608    7.8818 C   0  0  1  0  0  0  0  0  0  0  0  0
   37.3778    8.3639    8.9680 C   0  0  1  0  0  0  0  0  0  0  0  0
   36.6306    8.7271   10.2492 C   0  0  0  0  0  0  0  0  0  0  0  0
   37.8823   10.7283    8.3382 N   0  0  0  0  0  0  0  0  0  0  0  0
   36.8065    7.1060    8.4543 O   0  0  0  0  0  0  0  0  0  0  0  0
   38.0537    7.1679    4.9659 O   0  0  0  0  0  0  0  0  0  0  0  0
   37.8583   10.0064    5.6247 O   0  0  0  0  0  0  0  0  0  0  0  0
   37.2181    9.8629   10.8261 O   0  0  0  0  0  0  0  0  0  0  0  0
   42.2220   -0.6092    9.0574 C   0  0  1  0  0  0  0  0  0  0  0  0
   42.1985   -1.8560    9.9691 C   0  0  1  0  0  0  0  0  0  0  0  0
   43.6057   -2.1594   10.5383 C   0  0  2  0  0  0  0  0  0  0  0  0
   44.5984   -2.3800    9.3908 C   0  0  1  0  0  0  0  0  0  0  0  0
   44.6597   -1.1215    8.4880 C   0  0  0  0  0  0  0  0  0  0  0  0
   43.2616   -0.8494    7.9230 C   0  0  2  0  0  0  0  0  0  0  0  0
   45.9435   -2.6585    9.9418 N   0  0  0  0  0  0  0  0  0  0  0  0
   43.3646    0.3291    7.0666 N   0  0  0  0  0  0  0  0  0  0  0  0
   41.2964   -1.6171   11.0713 O   0  0  0  0  0  0  0  0  0  0  0  0
   43.5304   -3.3443   11.3599 O   0  0  0  0  0  0  0  0  0  0  0  0
  1  2  1  0  0  0  0
  1 12  1  6  0  0  0
  1 13  1  0  0  0  0
  2  3  1  0  0  0  0
  2 10  1  6  0  0  0
  4  3  1  6  0  0  0
  4  5  1  0  0  0  0
  4 14  1  0  0  0  0
  5  6  1  0  0  0  0
  5 13  1  1  0  0  0
  6  7  1  0  0  0  0
  6 15  1  1  0  0  0
  7  8  1  0  0  0  0
  7 11  1  1  0  0  0
  8 14  1  0  0  0  0
  8 16  1  6  0  0  0
  9 11  1  0  0  0  0
 17 16  1  1  0  0  0
 17 18  1  0  0  0  0
 17 24  1  0  0  0  0
 18 19  1  0  0  0  0
 18 25  1  6  0  0  0
 19 20  1  0  0  0  0
 19 26  1  6  0  0  0
 20 21  1  0  0  0  0
 20 23  1  1  0  0  0
 21 22  1  1  0  0  0
 21 24  1  0  0  0  0
 22 27  1  0  0  0  0
 28 12  1  6  0  0  0
 28 29  1  0  0  0  0
 28 33  1  0  0  0  0
 29 30  1  0  0  0  0
 29 36  1  1  0  0  0
 30 31  1  0  0  0  0
 30 37  1  1  0  0  0
 31 32  1  0  0  0  0
 31 34  1  1  0  0  0
 32 33  1  0  0  0  0
 33 35  1  6  0  0  0
M  END
>  <CHROM.1>
179.89924182,58.47926487,-154.49217810,-174.49332227,-63.59530248,68.52542268
39.92596252,3.40351478,8.77026047,0.85421339,0.82215841,-2.72669399

>  <Name>
1yrj_lig

>  <RI>
0

>  <Rbt.Current_Directory>
/home/itssahil/PROJECTS/Mol_Feturizer/New_Systems/rnas/1yrj

>  <Rbt.Executable>
rbdock ($Id: //depot/dev/client3/rdock/2013.1/src/exe/rbdock.cxx#4 $)

>  <Rbt.Library>
libRbt.so (2013.1, Build901 2013/11/27)

>  <Rbt.Parameter_File>
/export/apps/rDock/src/rDock_2013.1_src/data/scripts/dock_solv.prm

>  <Rbt.Receptor>
prm/pocket_docking_5.prm

>  <SCORE>
-28.6037

>  <SCORE.INTER>
-22.9068

>  <SCORE.INTER.CONST>
1

>  <SCORE.INTER.POLAR>
-1.41152

>  <SCORE.INTER.ROT>
6

>  <SCORE.INTER.SOLV>
13.6297

>  <SCORE.INTER.VDW>
-22.7094

>  <SCORE.INTER.norm>
-0.619103

>  <SCORE.INTRA>
-5.69695

>  <SCORE.INTRA.DIHEDRAL>
-12.2276

>  <SCORE.INTRA.DIHEDRAL.0>
15.6389

>  <SCORE.INTRA.POLAR>
0

>  <SCORE.INTRA.POLAR.0>
0

>  <SCORE.INTRA.REPUL>
0

>  <SCORE.INTRA.REPUL.0>
0

>  <SCORE.INTRA.SOLV>
-1.53564

>  <SCORE.INTRA.SOLV.lig_0>
-90.9181

>  <SCORE.INTRA.VDW>
1.18466

>  <SCORE.INTRA.VDW.0>
-3.14158

>  <SCORE.INTRA.norm>
-0.153972

>  <SCORE.RESTR>
0

>  <SCORE.RESTR.CAVITY>
0

>  <SCORE.RESTR.norm>
0

>  <SCORE.SYSTEM>
0

>  <SCORE.SYSTEM.CONST>
0

>  <SCORE.SYSTEM.DIHEDRAL>
0

>  <SCORE.SYSTEM.SOLV>
0

>  <SCORE.SYSTEM.norm>
0

>  <SCORE.heavy>
37

>  <SCORE.norm>
-0.773074

>  <RMSD>
10.174

$$$$
1yrj_lig
 OpenBabel11021811423D
libRbt.so/2013.1/901 2013/11/27
 37 40  0  0  0  0  0  0  0  0999 V2000
   39.7697    0.6515    9.5172 C   0  0  1  0  0  0  0  0  0  0  0  0
   38.4532    0.5804    8.7190 C   0  0  1  0  0  0  0  0  0  0  0  0
   38.3255    1.7439    7.7228 C   0  0  0  0  0  0  0  0  0  0  0  0
   38.4787    3.0978    8.4638 C   0  0  1  0  0  0  0  0  0  0  0  0
   39.8285    3.1439    9.2048 C   0  0  1  0  0  0  0  0  0  0  0  0
   39.9653    4.5422    9.9424 C   0  0  1  0  0  0  0  0  0  0  0  0
   39.8846    5.6809    8.9127 C   0  0  1  0  0  0  0  0  0  0  0  0
   38.5350    5.5601    8.1640 C   0  0  2  0  0  0  0  0  0  0  0  0
   41.4675    7.4347    9.8744 C   0  0  0  0  0  0  0  0  0  0  0  0
   38.3028   -0.7066    8.0204 N   0  0  0  0  0  0  0  0  0  0  0  0
   40.0633    7.0006    9.5936 N   0  0  0  0  0  0  0  0  0  0  0  0
   40.9310    0.2832    8.7498 O   0  0  0  0  0  0  0  0  0  0  0  0
   39.8920    1.9909   10.1255 O   0  0  0  0  0  0  0  0  0  0  0  0
   38.4018    4.2520    7.5394 O   0  0  0  0  0  0  0  0  0  0  0  0
   38.8859    4.7080   10.8379 O   0  0  0  0  0  0  0  0  0  0  0  0
   38.4033    6.5473    7.1405 O   0  0  0  0  0  0  0  0  0  0  0  0
   37.2741    7.4298    7.3398 C   0  0  2  0  0  0  0  0  0  0  0  0
   37.0311    8.3842    6.1592 C   0  0  1  0  0  0  0  0  0  0  0  0
   38.1615    9.4420    6.0526 C   0  0  2  0  0  0  0  0  0  0  0  0
   38.2658   10.2158    7.3468 C   0  0  1  0  0  0  0  0  0  0  0  0
   38.5395    9.2325    8.5094 C   0  0  1  0  0  0  0  0  0  0  0  0
   38.6119    9.9265    9.8676 C   0  0  0  0  0  0  0  0  0  0  0  0
   39.3512   11.2098    7.2162 N   0  0  0  0  0  0  0  0  0  0  0  0
   37.4604    8.2304    8.5724 O   0  0  0  0  0  0  0  0  0  0  0  0
   36.9061    7.6010    4.9633 O   0  0  0  0  0  0  0  0  0  0  0  0
   37.8654   10.3593    4.9906 O   0  0  0  0  0  0  0  0  0  0  0  0
   37.4043   10.5962   10.1144 O   0  0  0  0  0  0  0  0  0  0  0  0
   42.3431    0.2415    9.3142 C   0  0  1  0  0  0  0  0  0  0  0  0
   42.5359   -1.1503    9.9558 C   0  0  1  0  0  0  0  0  0  0  0  0
   43.9736   -1.3194   10.5040 C   0  0  2  0  0  0  0  0  0  0  0  0
   44.9912   -1.1292    9.3729 C   0  0  1  0  0  0  0  0  0  0  0  0
   44.8336    0.2787    8.7438 C   0  0  0  0  0  0  0  0  0  0  0  0
   43.4103    0.4183    8.1937 C   0  0  2  0  0  0  0  0  0  0  0  0
   46.3635   -1.2811    9.9061 N   0  0  0  0  0  0  0  0  0  0  0  0
   43.3076    1.7466    7.5955 N   0  0  0  0  0  0  0  0  0  0  0  0
   41.6044   -1.2984   11.0496 O   0  0  0  0  0  0  0  0  0  0  0  0
   44.1047   -2.6421   11.0679 O   0  0  0  0  0  0  0  0  0  0  0  0
  1  2  1  0  0  0  0
  1 12  1  6  0  0  0
  1 13  1  0  0  0  0
  2  3  1  0  0  0  0
  2 10  1  6  0  0  0
  4  3  1  6  0  0  0
  4  5  1  0  0  0  0
  4 14  1  0  0  0  0
  5  6  1  0  0  0  0
  5 13  1  1  0  0  0
  6  7  1  0  0  0  0
  6 15  1  1  0  0  0
  7  8  1  0  0  0  0
  7 11  1  1  0  0  0
  8 14  1  0  0  0  0
  8 16  1  6  0  0  0
  9 11  1  0  0  0  0
 17 16  1  6  0  0  0
 17 18  1  0  0  0  0
 17 24  1  0  0  0  0
 18 19  1  0  0  0  0
 18 25  1  6  0  0  0
 19 20  1  0  0  0  0
 19 26  1  6  0  0  0
 20 21  1  0  0  0  0
 20 23  1  6  0  0  0
 21 22  1  1  0  0  0
 21 24  1  0  0  0  0
 22 27  1  0  0  0  0
 28 12  1  6  0  0  0
 28 29  1  0  0  0  0
 28 33  1  0  0  0  0
 29 30  1  0  0  0  0
 29 36  1  1  0  0  0
 30 31  1  0  0  0  0
 30 37  1  6  0  0  0
 31 32  1  0  0  0  0
 31 34  1  1  0  0  0
 32 33  1  0  0  0  0
 33 35  1  1  0  0  0
M  END
>  <CHROM.1>
-178.59596436,82.07948880,-119.43073028,-173.18160623,58.62169448,86.05376389
40.07417019,4.17114134,8.63669847,1.08111455,0.37660542,3.12182084

>  <Name>
1yrj_lig

>  <RI>
0

>  <Rbt.Current_Directory>
/home/itssahil/PROJECTS/Mol_Feturizer/New_Systems/rnas/1yrj

>  <Rbt.Executable>
rbdock ($Id: //depot/dev/client3/rdock/2013.1/src/exe/rbdock.cxx#4 $)

>  <Rbt.Library>
libRbt.so (2013.1, Build901 2013/11/27)

>  <Rbt.Parameter_File>
/export/apps/rDock/src/rDock_2013.1_src/data/scripts/dock_solv.prm

>  <Rbt.Receptor>
prm/pocket_docking_3.prm

>  <SCORE>
-25.1145

>  <SCORE.INTER>
-21.9771

>  <SCORE.INTER.CONST>
1

>  <SCORE.INTER.POLAR>
-1.66308

>  <SCORE.INTER.ROT>
6

>  <SCORE.INTER.SOLV>
16.9209

>  <SCORE.INTER.VDW>
-22.3481

>  <SCORE.INTER.norm>
-0.593976

>  <SCORE.INTRA>
-3.13738

>  <SCORE.INTRA.DIHEDRAL>
-4.90283

>  <SCORE.INTRA.DIHEDRAL.0>
15.6389

>  <SCORE.INTRA.POLAR>
0

>  <SCORE.INTRA.POLAR.0>
0

>  <SCORE.INTRA.REPUL>
0

>  <SCORE.INTRA.REPUL.0>
0

>  <SCORE.INTRA.SOLV>
-0.36093

>  <SCORE.INTRA.SOLV.lig_0>
-90.9181

>  <SCORE.INTRA.VDW>
-0.505504

>  <SCORE.INTRA.VDW.0>
-3.14158

>  <SCORE.INTRA.norm>
-0.0847941

>  <SCORE.RESTR>
0

>  <SCORE.RESTR.CAVITY>
0

>  <SCORE.RESTR.norm>
0

>  <SCORE.SYSTEM>
0

>  <SCORE.SYSTEM.CONST>
0

>  <SCORE.SYSTEM.DIHEDRAL>
0

>  <SCORE.SYSTEM.SOLV>
0

>  <SCORE.SYSTEM.norm>
0

>  <SCORE.heavy>
37

>  <SCORE.norm>
-0.67877

>  <RMSD>
10.178

$$$$
1yrj_lig
 OpenBabel11021811423D
libRbt.so/2013.1/901 2013/11/27
 37 40  0  0  0  0  0  0  0  0999 V2000
   39.8716    0.6489    9.4854 C   0  0  1  0  0  0  0  0  0  0  0  0
   38.5236    0.4418    8.7674 C   0  0  1  0  0  0  0  0  0  0  0  0
   38.2675    1.5262    7.7088 C   0  0  0  0  0  0  0  0  0  0  0  0
   38.3677    2.9332    8.3537 C   0  0  1  0  0  0  0  0  0  0  0  0
   39.7475    3.1139    9.0143 C   0  0  1  0  0  0  0  0  0  0  0  0
   39.8282    4.5638    9.6540 C   0  0  1  0  0  0  0  0  0  0  0  0
   39.6189    5.6243    8.5609 C   0  0  1  0  0  0  0  0  0  0  0  0
   38.2438    5.3689    7.8974 C   0  0  2  0  0  0  0  0  0  0  0  0
   41.0984    7.4046    9.6325 C   0  0  0  0  0  0  0  0  0  0  0  0
   38.4240   -0.8957    8.1604 N   0  0  0  0  0  0  0  0  0  0  0  0
   39.7436    6.9950    9.1467 N   0  0  0  0  0  0  0  0  0  0  0  0
   41.0140    0.3049    8.6793 O   0  0  0  0  0  0  0  0  0  0  0  0
   39.9351    2.0306   10.0006 O   0  0  0  0  0  0  0  0  0  0  0  0
   38.1665    4.0165    7.3645 O   0  0  0  0  0  0  0  0  0  0  0  0
   38.7875    4.7198   10.5959 O   0  0  0  0  0  0  0  0  0  0  0  0
   37.9941    6.2758    6.8228 O   0  0  0  0  0  0  0  0  0  0  0  0
   37.5078    7.5650    7.2646 C   0  0  2  0  0  0  0  0  0  0  0  0
   36.6804    8.3018    6.1986 C   0  0  1  0  0  0  0  0  0  0  0  0
   37.5736    8.7615    5.0157 C   0  0  2  0  0  0  0  0  0  0  0  0
   38.6883    9.6457    5.5261 C   0  0  1  0  0  0  0  0  0  0  0  0
   39.5191    8.8671    6.5735 C   0  0  1  0  0  0  0  0  0  0  0  0
   40.6426    9.7047    7.1799 C   0  0  0  0  0  0  0  0  0  0  0  0
   39.5224   10.0626    4.3799 N   0  0  0  0  0  0  0  0  0  0  0  0
   38.6407    8.4280    7.6726 O   0  0  0  0  0  0  0  0  0  0  0  0
   35.6187    7.4358    5.7722 O   0  0  0  0  0  0  0  0  0  0  0  0
   36.7861    9.5088    4.0785 O   0  0  0  0  0  0  0  0  0  0  0  0
   41.6361    9.9224    6.2138 O   0  0  0  0  0  0  0  0  0  0  0  0
   42.4379    0.2362    9.2106 C   0  0  1  0  0  0  0  0  0  0  0  0
   42.6083   -1.1463    9.8782 C   0  0  1  0  0  0  0  0  0  0  0  0
   44.0539   -1.3434   10.3956 C   0  0  2  0  0  0  0  0  0  0  0  0
   45.0482   -1.2061    9.2366 C   0  0  1  0  0  0  0  0  0  0  0  0
   44.9138    0.1917    8.5800 C   0  0  0  0  0  0  0  0  0  0  0  0
   43.4817    0.3589    8.0612 C   0  0  2  0  0  0  0  0  0  0  0  0
   46.4285   -1.3846    9.7400 N   0  0  0  0  0  0  0  0  0  0  0  0
   43.4007    1.6762    7.4361 N   0  0  0  0  0  0  0  0  0  0  0  0
   41.7003   -1.2446   10.9970 O   0  0  0  0  0  0  0  0  0  0  0  0
   44.1626   -2.6567   10.9856 O   0  0  0  0  0  0  0  0  0  0  0  0
  1  2  1  0  0  0  0
  1 12  1  6  0  0  0
  1 13  1  0  0  0  0
  2  3  1  0  0  0  0
  2 10  1  6  0  0  0
  4  3  1  6  0  0  0
  4  5  1  0  0  0  0
  4 14  1  0  0  0  0
  5  6  1  0  0  0  0
  5 13  1  1  0  0  0
  6  7  1  0  0  0  0
  6 15  1  1  0  0  0
  7  8  1  0  0  0  0
  7 11  1  1  0  0  0
  8 14  1  0  0  0  0
  8 16  1  6  0  0  0
  9 11  1  0  0  0  0
 17 16  1  6  0  0  0
 17 18  1  0  0  0  0
 17 24  1  0  0  0  0
 18 19  1  0  0  0  0
 18 25  1  6  0  0  0
 19 20  1  0  0  0  0
 19 26  1  6  0  0  0
 20 21  1  0  0  0  0
 20 23  1  6  0  0  0
 21 22  1  1  0  0  0
 21 24  1  0  0  0  0
 22 27  1  0  0  0  0
 28 12  1  6  0  0  0
 28 29  1  0  0  0  0
 28 33  1  0  0  0  0
 29 30  1  0  0  0  0
 29 36  1  1  0  0  0
 30 31  1  0  0  0  0
 30 37  1  6  0  0  0
 31 32  1  0  0  0  0
 31 34  1  1  0  0  0
 32 33  1  0  0  0  0
 33 35  1  1  0  0  0
M  END
>  <CHROM.1>
-171.27671327,67.49824112,-81.45920086,-154.86544539,-70.29803530,82.38969852
40.20970063,4.00139804,8.11510919,1.13445423,0.08391473,2.83365303

>  <Name>
1yrj_lig

>  <RI>
0

>  <Rbt.Current_Directory>
/home/itssahil/PROJECTS/Mol_Feturizer/New_Systems/rnas/1yrj

>  <Rbt.Executable>
rbdock ($Id: //depot/dev/client3/rdock/2013.1/src/exe/rbdock.cxx#4 $)

>  <Rbt.Library>
libRbt.so (2013.1, Build901 2013/11/27)

>  <Rbt.Parameter_File>
/export/apps/rDock/src/rDock_2013.1_src/data/scripts/dock_solv.prm

>  <Rbt.Receptor>
prm/pocket_docking_5.prm

>  <SCORE>
-30.3234

>  <SCORE.INTER>
-28.4516

>  <SCORE.INTER.CONST>
1

>  <SCORE.INTER.POLAR>
-3.35799

>  <SCORE.INTER.ROT>
6

>  <SCORE.INTER.SOLV>
16.7701

>  <SCORE.INTER.VDW>
-20.9645

>  <SCORE.INTER.norm>
-0.768963

>  <SCORE.INTRA>
-1.87174

>  <SCORE.INTRA.DIHEDRAL>
-7.83331

>  <SCORE.INTRA.DIHEDRAL.0>
15.6389

>  <SCORE.INTRA.POLAR>
0

>  <SCORE.INTRA.POLAR.0>
0

>  <SCORE.INTRA.REPUL>
0.0134171

>  <SCORE.INTRA.REPUL.0>
0

>  <SCORE.INTRA.SOLV>
0.240393

>  <SCORE.INTRA.SOLV.lig_0>
-90.9181

>  <SCORE.INTRA.VDW>
1.85764

>  <SCORE.INTRA.VDW.0>
-3.14158

>  <SCORE.INTRA.norm>
-0.0505874

>  <SCORE.RESTR>
0

>  <SCORE.RESTR.CAVITY>
0

>  <SCORE.RESTR.norm>
0

>  <SCORE.SYSTEM>
0

>  <SCORE.SYSTEM.CONST>
0

>  <SCORE.SYSTEM.DIHEDRAL>
0

>  <SCORE.SYSTEM.SOLV>
0

>  <SCORE.SYSTEM.norm>
0

>  <SCORE.heavy>
37

>  <SCORE.norm>
-0.81955

>  <RMSD>
10.179

$$$$
1yrj_lig
 OpenBabel11021811423D
libRbt.so/2013.1/901 2013/11/27
 37 40  0  0  0  0  0  0  0  0999 V2000
   39.2744    0.2164    9.3377 C   0  0  1  0  0  0  0  0  0  0  0  0
   38.0527    0.4426    8.4258 C   0  0  1  0  0  0  0  0  0  0  0  0
   38.1946    1.7230    7.5875 C   0  0  0  0  0  0  0  0  0  0  0  0
   38.4563    2.9390    8.5141 C   0  0  1  0  0  0  0  0  0  0  0  0
   39.7134    2.6901    9.3689 C   0  0  1  0  0  0  0  0  0  0  0  0
   39.9655    3.9526   10.2967 C   0  0  1  0  0  0  0  0  0  0  0  0
   40.1538    5.2056    9.4260 C   0  0  1  0  0  0  0  0  0  0  0  0
   38.8873    5.3822    8.5536 C   0  0  2  0  0  0  0  0  0  0  0  0
   41.7940    6.4529   10.9294 C   0  0  0  0  0  0  0  0  0  0  0  0
   37.7986   -0.7133    7.5504 N   0  0  0  0  0  0  0  0  0  0  0  0
   40.4422    6.3914   10.2909 N   0  0  0  0  0  0  0  0  0  0  0  0
   40.4474   -0.2294    8.6316 O   0  0  0  0  0  0  0  0  0  0  0  0
   39.5176    1.4387   10.1285 O   0  0  0  0  0  0  0  0  0  0  0  0
   38.6394    4.1940    7.7499 O   0  0  0  0  0  0  0  0  0  0  0  0
   38.8313    4.1719   11.1092 O   0  0  0  0  0  0  0  0  0  0  0  0
   39.0036    6.4935    7.6643 O   0  0  0  0  0  0  0  0  0  0  0  0
   37.7253    7.0108    7.2262 C   0  0  2  0  0  0  0  0  0  0  0  0
   37.8466    8.1072    6.1553 C   0  0  1  0  0  0  0  0  0  0  0  0
   38.4533    9.4059    6.7499 C   0  0  2  0  0  0  0  0  0  0  0  0
   37.6072    9.8863    7.9067 C   0  0  1  0  0  0  0  0  0  0  0  0
   37.5289    8.7738    8.9789 C   0  0  1  0  0  0  0  0  0  0  0  0
   36.6498    9.1572   10.1672 C   0  0  0  0  0  0  0  0  0  0  0  0
   38.2115   11.1188    8.4535 N   0  0  0  0  0  0  0  0  0  0  0  0
   36.9677    7.5497    8.3796 O   0  0  0  0  0  0  0  0  0  0  0  0
   38.6277    7.5920    5.0674 O   0  0  0  0  0  0  0  0  0  0  0  0
   38.4824   10.4290    5.7451 O   0  0  0  0  0  0  0  0  0  0  0  0
   36.2414    7.9957   10.8395 O   0  0  0  0  0  0  0  0  0  0  0  0
   40.5587   -1.5786    7.9374 C   0  0  1  0  0  0  0  0  0  0  0  0
   41.9447   -1.6274    7.2572 C   0  0  1  0  0  0  0  0  0  0  0  0
   42.1850   -2.9958    6.5746 C   0  0  2  0  0  0  0  0  0  0  0  0
   42.0798   -4.1227    7.6090 C   0  0  1  0  0  0  0  0  0  0  0  0
   40.6796   -4.1087    8.2738 C   0  0  0  0  0  0  0  0  0  0  0  0
   40.4696   -2.7530    8.9564 C   0  0  2  0  0  0  0  0  0  0  0  0
   42.2995   -5.4285    6.9478 N   0  0  0  0  0  0  0  0  0  0  0  0
   39.1513   -2.7859    9.5840 N   0  0  0  0  0  0  0  0  0  0  0  0
   42.0136   -0.5920    6.2527 O   0  0  0  0  0  0  0  0  0  0  0  0
   43.5001   -2.9946    5.9786 O   0  0  0  0  0  0  0  0  0  0  0  0
  1  2  1  0  0  0  0
  1 12  1  6  0  0  0
  1 13  1  0  0  0  0
  2  3  1  0  0  0  0
  2 10  1  6  0  0  0
  4  3  1  6  0  0  0
  4  5  1  0  0  0  0
  4 14  1  0  0  0  0
  5  6  1  0  0  0  0
  5 13  1  1  0  0  0
  6  7  1  0  0  0  0
  6 15  1  1  0  0  0
  7  8  1  0  0  0  0
  7 11  1  1  0  0  0
  8 14  1  0  0  0  0
  8 16  1  6  0  0  0
  9 11  1  0  0  0  0
 17 16  1  1  0  0  0
 17 18  1  0  0  0  0
 17 24  1  0  0  0  0
 18 19  1  0  0  0  0
 18 25  1  6  0  0  0
 19 20  1  0  0  0  0
 19 26  1  6  0  0  0
 20 21  1  0  0  0  0
 20 23  1  1  0  0  0
 21 22  1  1  0  0  0
 21 24  1  0  0  0  0
 22 27  1  0  0  0  0
 28 12  1  1  0  0  0
 28 29  1  0  0  0  0
 28 33  1  0  0  0  0
 29 30  1  0  0  0  0
 29 36  1  6  0  0  0
 30 31  1  0  0  0  0
 30 37  1  1  0  0  0
 31 32  1  0  0  0  0
 31 34  1  6  0  0  0
 32 33  1  0  0  0  0
 33 35  1  6  0  0  0
M  END
>  <CHROM.1>
-66.30001453,72.43259596,-157.39443983,-173.85382862,159.33207995,177.53981815
39.41414144,3.26444858,8.28115612,0.84572320,-1.15733710,2.50308587

>  <Name>
1yrj_lig

>  <RI>
0

>  <Rbt.Current_Directory>
/home/itssahil/PROJECTS/Mol_Feturizer/New_Systems/rnas/1yrj

>  <Rbt.Executable>
rbdock ($Id: //depot/dev/client3/rdock/2013.1/src/exe/rbdock.cxx#4 $)

>  <Rbt.Library>
libRbt.so (2013.1, Build901 2013/11/27)

>  <Rbt.Parameter_File>
/export/apps/rDock/src/rDock_2013.1_src/data/scripts/dock_solv.prm

>  <Rbt.Receptor>
prm/pocket_docking_6.prm

>  <SCORE>
-25.8853

>  <SCORE.INTER>
-21.6131

>  <SCORE.INTER.CONST>
1

>  <SCORE.INTER.POLAR>
-1.2678

>  <SCORE.INTER.ROT>
6

>  <SCORE.INTER.SOLV>
12.6916

>  <SCORE.INTER.VDW>
-22.0133

>  <SCORE.INTER.norm>
-0.584138

>  <SCORE.INTRA>
-4.27215

>  <SCORE.INTRA.DIHEDRAL>
-11.373

>  <SCORE.INTRA.DIHEDRAL.0>
15.6389

>  <SCORE.INTRA.POLAR>
0

>  <SCORE.INTRA.POLAR.0>
0

>  <SCORE.INTRA.REPUL>
0

>  <SCORE.INTRA.REPUL.0>
0

>  <SCORE.INTRA.SOLV>
1.66613

>  <SCORE.INTRA.SOLV.lig_0>
-90.9181

>  <SCORE.INTRA.VDW>
0.581284

>  <SCORE.INTRA.VDW.0>
-3.14158

>  <SCORE.INTRA.norm>
-0.115463

>  <SCORE.RESTR>
0

>  <SCORE.RESTR.CAVITY>
0

>  <SCORE.RESTR.norm>
0

>  <SCORE.SYSTEM>
0

>  <SCORE.SYSTEM.CONST>
0

>  <SCORE.SYSTEM.DIHEDRAL>
0

>  <SCORE.SYSTEM.SOLV>
0

>  <SCORE.SYSTEM.norm>
0

>  <SCORE.heavy>
37

>  <SCORE.norm>
-0.699602

>  <RMSD>
10.180

$$$$
1yrj_lig
 OpenBabel11021811423D
libRbt.so/2013.1/901 2013/11/27
 37 40  0  0  0  0  0  0  0  0999 V2000
   39.2669    0.1904    9.3408 C   0  0  1  0  0  0  0  0  0  0  0  0
   38.0664    0.4076    8.3988 C   0  0  1  0  0  0  0  0  0  0  0  0
   38.2288    1.6787    7.5501 C   0  0  0  0  0  0  0  0  0  0  0  0
   38.4705    2.9045    8.4691 C   0  0  1  0  0  0  0  0  0  0  0  0
   39.7075    2.6640    9.3551 C   0  0  1  0  0  0  0  0  0  0  0  0
   39.9397    3.9363   10.2746 C   0  0  1  0  0  0  0  0  0  0  0  0
   40.1491    5.1796    9.3949 C   0  0  1  0  0  0  0  0  0  0  0  0
   38.9029    5.3476    8.4919 C   0  0  2  0  0  0  0  0  0  0  0  0
   41.7544    6.4401   10.9247 C   0  0  0  0  0  0  0  0  0  0  0  0
   37.8313   -0.7576    7.5304 N   0  0  0  0  0  0  0  0  0  0  0  0
   40.4188    6.3746   10.2531 N   0  0  0  0  0  0  0  0  0  0  0  0
   40.4552   -0.2639    8.6665 O   0  0  0  0  0  0  0  0  0  0  0  0
   39.4932    1.4211   10.1236 O   0  0  0  0  0  0  0  0  0  0  0  0
   38.6723    4.1510    7.6957 O   0  0  0  0  0  0  0  0  0  0  0  0
   38.7875    4.1653   11.0586 O   0  0  0  0  0  0  0  0  0  0  0  0
   39.0407    6.4492    7.5935 O   0  0  0  0  0  0  0  0  0  0  0  0
   37.7727    6.9764    7.1375 C   0  0  2  0  0  0  0  0  0  0  0  0
   37.9175    8.0706    6.0672 C   0  0  1  0  0  0  0  0  0  0  0  0
   38.5267    9.3649    6.6687 C   0  0  2  0  0  0  0  0  0  0  0  0
   37.6690    9.8535    7.8134 C   0  0  1  0  0  0  0  0  0  0  0  0
   37.5670    8.7429    8.8856 C   0  0  1  0  0  0  0  0  0  0  0  0
   36.6750    9.1348   10.0614 C   0  0  0  0  0  0  0  0  0  0  0  0
   38.2759   11.0817    8.3672 N   0  0  0  0  0  0  0  0  0  0  0  0
   37.0039    7.5228    8.2800 O   0  0  0  0  0  0  0  0  0  0  0  0
   38.7091    7.5478    4.9906 O   0  0  0  0  0  0  0  0  0  0  0  0
   38.5778   10.3866    5.6635 O   0  0  0  0  0  0  0  0  0  0  0  0
   36.3207    7.9846   10.7821 O   0  0  0  0  0  0  0  0  0  0  0  0
   40.5832   -1.6233    7.9956 C   0  0  1  0  0  0  0  0  0  0  0  0
   41.9552   -1.6536    7.2867 C   0  0  1  0  0  0  0  0  0  0  0  0
   42.2129   -3.0290    6.6249 C   0  0  2  0  0  0  0  0  0  0  0  0
   42.1561   -4.1378    7.6824 C   0  0  1  0  0  0  0  0  0  0  0  0
   40.7703   -4.1430    8.3770 C   0  0  0  0  0  0  0  0  0  0  0  0
   40.5433   -2.7796    9.0383 C   0  0  2  0  0  0  0  0  0  0  0  0
   42.3921   -5.4507    7.0413 N   0  0  0  0  0  0  0  0  0  0  0  0
   39.2397   -2.8306    9.6948 N   0  0  0  0  0  0  0  0  0  0  0  0
   41.9786   -0.6365    6.2615 O   0  0  0  0  0  0  0  0  0  0  0  0
   43.5147   -3.0092    6.0007 O   0  0  0  0  0  0  0  0  0  0  0  0
  1  2  1  0  0  0  0
  1 12  1  6  0  0  0
  1 13  1  0  0  0  0
  2  3  1  0  0  0  0
  2 10  1  6  0  0  0
  4  3  1  6  0  0  0
  4  5  1  0  0  0  0
  4 14  1  0  0  0  0
  5  6  1  0  0  0  0
  5 13  1  1  0  0  0
  6  7  1  0  0  0  0
  6 15  1  1  0  0  0
  7  8  1  0  0  0  0
  7 11  1  1  0  0  0
  8 14  1  0  0  0  0
  8 16  1  6  0  0  0
  9 11  1  0  0  0  0
 17 16  1  1  0  0  0
 17 18  1  0  0  0  0
 17 24  1  0  0  0  0
 18 19  1  0  0  0  0
 18 25  1  6  0  0  0
 19 20  1  0  0  0  0
 19 26  1  6  0  0  0
 20 21  1  0  0  0  0
 20 23  1  1  0  0  0
 21 22  1  1  0  0  0
 21 24  1  0  0  0  0
 22 27  1  0  0  0  0
 28 12  1  1  0  0  0
 28 29  1  0  0  0  0
 28 33  1  0  0  0  0
 29 30  1  0  0  0  0
 29 36  1  6  0  0  0
 30 31  1  0  0  0  0
 30 37  1  1  0  0  0
 31 32  1  0  0  0  0
 31 34  1  6  0  0  0
 32 33  1  0  0  0  0
 33 35  1  6  0  0  0
M  END
>  <CHROM.1>
-66.61195491,72.26785984,-156.45776250,-174.39939842,163.23830585,174.80115729
39.44492782,3.23400505,8.25977989,0.85415872,-1.15467631,2.49961146

>  <Name>
1yrj_lig

>  <RI>
0

>  <Rbt.Current_Directory>
/home/itssahil/PROJECTS/Mol_Feturizer/New_Systems/rnas/1yrj

>  <Rbt.Executable>
rbdock ($Id: //depot/dev/client3/rdock/2013.1/src/exe/rbdock.cxx#4 $)

>  <Rbt.Library>
libRbt.so (2013.1, Build901 2013/11/27)

>  <Rbt.Parameter_File>
/export/apps/rDock/src/rDock_2013.1_src/data/scripts/dock_solv.prm

>  <Rbt.Receptor>
prm/pocket_docking_4.prm

>  <SCORE>
-25.8382

>  <SCORE.INTER>
-21.2088

>  <SCORE.INTER.CONST>
1

>  <SCORE.INTER.POLAR>
-1.25212

>  <SCORE.INTER.ROT>
6

>  <SCORE.INTER.SOLV>
12.3671

>  <SCORE.INTER.VDW>
-21.6878

>  <SCORE.INTER.norm>
-0.57321

>  <SCORE.INTRA>
-4.63295

>  <SCORE.INTRA.DIHEDRAL>
-11.5675

>  <SCORE.INTRA.DIHEDRAL.0>
15.6389

>  <SCORE.INTRA.POLAR>
0

>  <SCORE.INTRA.POLAR.0>
0

>  <SCORE.INTRA.REPUL>
0

>  <SCORE.INTRA.REPUL.0>
0

>  <SCORE.INTRA.SOLV>
1.45844

>  <SCORE.INTRA.SOLV.lig_0>
-90.9181

>  <SCORE.INTRA.VDW>
0.421568

>  <SCORE.INTRA.VDW.0>
-3.14158

>  <SCORE.INTRA.norm>
-0.125215

>  <SCORE.RESTR>
0.00354955

>  <SCORE.RESTR.CAVITY>
0.00354955

>  <SCORE.RESTR.norm>
9.59337e-05

>  <SCORE.SYSTEM>
0

>  <SCORE.SYSTEM.CONST>
0

>  <SCORE.SYSTEM.DIHEDRAL>
0

>  <SCORE.SYSTEM.SOLV>
0

>  <SCORE.SYSTEM.norm>
0

>  <SCORE.heavy>
37

>  <SCORE.norm>
-0.698329

>  <RMSD>
10.182

$$$$
1yrj_lig
 OpenBabel11021811423D
libRbt.so/2013.1/901 2013/11/27
 37 40  0  0  0  0  0  0  0  0999 V2000
   40.2897    6.4506   10.1669 C   0  0  1  0  0  0  0  0  0  0  0  0
   39.8422    5.3101    9.2318 C   0  0  1  0  0  0  0  0  0  0  0  0
   40.0276    5.6790    7.7513 C   0  0  0  0  0  0  0  0  0  0  0  0
   39.2889    7.0062    7.4374 C   0  0  1  0  0  0  0  0  0  0  0  0
   39.8034    8.1274    8.3600 C   0  0  1  0  0  0  0  0  0  0  0  0
   39.0419    9.4748    8.0097 C   0  0  1  0  0  0  0  0  0  0  0  0
   39.2896    9.8418    6.5375 C   0  0  1  0  0  0  0  0  0  0  0  0
   38.8015    8.6651    5.6579 C   0  0  2  0  0  0  0  0  0  0  0  0
   39.2720   12.3865    6.7119 C   0  0  0  0  0  0  0  0  0  0  0  0
   40.5373    4.0478    9.5327 N   0  0  0  0  0  0  0  0  0  0  0  0
   38.6166   11.1375    6.2125 N   0  0  0  0  0  0  0  0  0  0  0  0
   41.7194    6.5972   10.2557 O   0  0  0  0  0  0  0  0  0  0  0  0
   39.6148    7.6988    9.7607 O   0  0  0  0  0  0  0  0  0  0  0  0
   39.4697    7.4262    6.0290 O   0  0  0  0  0  0  0  0  0  0  0  0
   37.6516    9.2827    8.1669 O   0  0  0  0  0  0  0  0  0  0  0  0
   39.0521    8.8969    4.2711 O   0  0  0  0  0  0  0  0  0  0  0  0
   38.0493    9.7279    3.6406 C   0  0  2  0  0  0  0  0  0  0  0  0
   36.7922    8.9505    3.2176 C   0  0  1  0  0  0  0  0  0  0  0  0
   37.0990    7.9882    2.0394 C   0  0  2  0  0  0  0  0  0  0  0  0
   37.6583    8.7674    0.8711 C   0  0  1  0  0  0  0  0  0  0  0  0
   38.9369    9.5138    1.3201 C   0  0  1  0  0  0  0  0  0  0  0  0
   39.5442   10.3689    0.2102 C   0  0  0  0  0  0  0  0  0  0  0  0
   37.9442    7.8255   -0.2309 N   0  0  0  0  0  0  0  0  0  0  0  0
   38.6174   10.4036    2.4508 O   0  0  0  0  0  0  0  0  0  0  0  0
   36.2820    8.2571    4.3657 O   0  0  0  0  0  0  0  0  0  0  0  0
   35.8917    7.3363    1.6218 O   0  0  0  0  0  0  0  0  0  0  0  0
   40.0440    9.5349   -0.8009 O   0  0  0  0  0  0  0  0  0  0  0  0
   42.4147    7.8620   10.7365 C   0  0  1  0  0  0  0  0  0  0  0  0
   42.3476    8.8854    9.5814 C   0  0  1  0  0  0  0  0  0  0  0  0
   42.9731   10.2392    9.9963 C   0  0  2  0  0  0  0  0  0  0  0  0
   42.2430   10.7994   11.2228 C   0  0  1  0  0  0  0  0  0  0  0  0
   42.3340    9.7979   12.4023 C   0  0  0  0  0  0  0  0  0  0  0  0
   41.6954    8.4719   11.9759 C   0  0  2  0  0  0  0  0  0  0  0  0
   42.8530   12.0878   11.6207 N   0  0  0  0  0  0  0  0  0  0  0  0
   41.7845    7.5640   13.1163 N   0  0  0  0  0  0  0  0  0  0  0  0
   43.0788    8.3668    8.4491 O   0  0  0  0  0  0  0  0  0  0  0  0
   42.8612   11.1621    8.8917 O   0  0  0  0  0  0  0  0  0  0  0  0
  1  2  1  0  0  0  0
  1 12  1  6  0  0  0
  1 13  1  0  0  0  0
  2  3  1  0  0  0  0
  2 10  1  1  0  0  0
  4  3  1  6  0  0  0
  4  5  1  0  0  0  0
  4 14  1  0  0  0  0
  5  6  1  0  0  0  0
  5 13  1  1  0  0  0
  6  7  1  0  0  0  0
  6 15  1  6  0  0  0
  7  8  1  0  0  0  0
  7 11  1  6  0  0  0
  8 14  1  0  0  0  0
  8 16  1  6  0  0  0
  9 11  1  0  0  0  0
 17 16  1  6  0  0  0
 17 18  1  0  0  0  0
 17 24  1  0  0  0  0
 18 19  1  0  0  0  0
 18 25  1  1  0  0  0
 19 20  1  0  0  0  0
 19 26  1  6  0  0  0
 20 21  1  0  0  0  0
 20 23  1  6  0  0  0
 21 22  1  6  0  0  0
 21 24  1  0  0  0  0
 22 27  1  0  0  0  0
 28 12  1  6  0  0  0
 28 29  1  0  0  0  0
 28 33  1  0  0  0  0
 29 30  1  0  0  0  0
 29 36  1  6  0  0  0
 30 31  1  0  0  0  0
 30 37  1  6  0  0  0
 31 32  1  0  0  0  0
 31 34  1  1  0  0  0
 32 33  1  0  0  0  0
 33 35  1  1  0  0  0
M  END
>  <CHROM.1>
160.34531033,75.82789321,-82.06473374,-82.17811039,-67.65030209,-76.42119187
39.81681027,8.70888579,6.72685487,0.74284256,1.03044657,2.36692359

>  <Name>
1yrj_lig

>  <RI>
0

>  <Rbt.Current_Directory>
/home/itssahil/PROJECTS/Mol_Feturizer/New_Systems/rnas/1yrj

>  <Rbt.Executable>
rbdock ($Id: //depot/dev/client3/rdock/2013.1/src/exe/rbdock.cxx#4 $)

>  <Rbt.Library>
libRbt.so (2013.1, Build901 2013/11/27)

>  <Rbt.Parameter_File>
/export/apps/rDock/src/rDock_2013.1_src/data/scripts/dock_solv.prm

>  <Rbt.Receptor>
prm/pocket_docking_7.prm

>  <SCORE>
-16.9574

>  <SCORE.INTER>
-13.2152

>  <SCORE.INTER.CONST>
1

>  <SCORE.INTER.POLAR>
-1.84705

>  <SCORE.INTER.ROT>
6

>  <SCORE.INTER.SOLV>
11.571

>  <SCORE.INTER.VDW>
-14.1103

>  <SCORE.INTER.norm>
-0.357167

>  <SCORE.INTRA>
-3.7422

>  <SCORE.INTRA.DIHEDRAL>
-7.87186

>  <SCORE.INTRA.DIHEDRAL.0>
15.6389

>  <SCORE.INTRA.POLAR>
0

>  <SCORE.INTRA.POLAR.0>
0

>  <SCORE.INTRA.REPUL>
0

>  <SCORE.INTRA.REPUL.0>
0

>  <SCORE.INTRA.SOLV>
0.38938

>  <SCORE.INTRA.SOLV.lig_0>
-90.9181

>  <SCORE.INTRA.VDW>
-0.000957396

>  <SCORE.INTRA.VDW.0>
-3.14158

>  <SCORE.INTRA.norm>
-0.10114

>  <SCORE.RESTR>
0

>  <SCORE.RESTR.CAVITY>
0

>  <SCORE.RESTR.norm>
0

>  <SCORE.SYSTEM>
0

>  <SCORE.SYSTEM.CONST>
0

>  <SCORE.SYSTEM.DIHEDRAL>
0

>  <SCORE.SYSTEM.SOLV>
0

>  <SCORE.SYSTEM.norm>
0

>  <SCORE.heavy>
37

>  <SCORE.norm>
-0.458307

>  <RMSD>
10.182

$$$$
1yrj_lig
 OpenBabel11021811423D
libRbt.so/2013.1/901 2013/11/27
 37 40  0  0  0  0  0  0  0  0999 V2000
   38.9864    0.8940    9.2597 C   0  0  1  0  0  0  0  0  0  0  0  0
   38.0334    1.4137    8.1656 C   0  0  1  0  0  0  0  0  0  0  0  0
   38.5295    2.7346    7.5561 C   0  0  0  0  0  0  0  0  0  0  0  0
   38.7523    3.7859    8.6746 C   0  0  1  0  0  0  0  0  0  0  0  0
   39.7485    3.2441    9.7171 C   0  0  1  0  0  0  0  0  0  0  0  0
   39.9682    4.3424   10.8412 C   0  0  1  0  0  0  0  0  0  0  0  0
   40.5122    5.6321   10.2057 C   0  0  1  0  0  0  0  0  0  0  0  0
   39.5006    6.1064    9.1343 C   0  0  2  0  0  0  0  0  0  0  0  0
   41.9191    7.5882   11.0430 C   0  0  0  0  0  0  0  0  0  0  0  0
   37.8154    0.4147    7.1066 N   0  0  0  0  0  0  0  0  0  0  0  0
   40.7699    6.6559   11.2653 N   0  0  0  0  0  0  0  0  0  0  0  0
   40.2101    0.3381    8.7432 O   0  0  0  0  0  0  0  0  0  0  0  0
   39.2214    1.9689   10.2436 O   0  0  0  0  0  0  0  0  0  0  0  0
   39.2687    5.0673    8.1416 O   0  0  0  0  0  0  0  0  0  0  0  0
   38.7276    4.6584   11.4374 O   0  0  0  0  0  0  0  0  0  0  0  0
   39.9593    7.2712    8.4469 O   0  0  0  0  0  0  0  0  0  0  0  0
   38.9332    7.9032    7.6461 C   0  0  2  0  0  0  0  0  0  0  0  0
   39.4211    9.1657    6.9169 C   0  0  1  0  0  0  0  0  0  0  0  0
   39.7033   10.3169    7.9185 C   0  0  2  0  0  0  0  0  0  0  0  0
   38.4585   10.6166    8.7220 C   0  0  1  0  0  0  0  0  0  0  0  0
   38.0104    9.3364    9.4662 C   0  0  1  0  0  0  0  0  0  0  0  0
   36.7264    9.5364   10.2682 C   0  0  0  0  0  0  0  0  0  0  0  0
   38.7595   11.7111    9.6678 N   0  0  0  0  0  0  0  0  0  0  0  0
   37.7691    8.2578    8.4911 O   0  0  0  0  0  0  0  0  0  0  0  0
   40.5805    8.8219    6.1445 O   0  0  0  0  0  0  0  0  0  0  0  0
   40.0831   11.4990    7.2006 O   0  0  0  0  0  0  0  0  0  0  0  0
   36.3091    8.3052   10.7955 O   0  0  0  0  0  0  0  0  0  0  0  0
   41.2354   -0.3951    9.5951 C   0  0  1  0  0  0  0  0  0  0  0  0
   40.6756   -1.8094    9.8643 C   0  0  1  0  0  0  0  0  0  0  0  0
   41.6811   -2.6645   10.6729 C   0  0  2  0  0  0  0  0  0  0  0  0
   43.0076   -2.7728    9.9114 C   0  0  1  0  0  0  0  0  0  0  0  0
   43.5998   -1.3614    9.6665 C   0  0  0  0  0  0  0  0  0  0  0  0
   42.5964   -0.5385    8.8517 C   0  0  2  0  0  0  0  0  0  0  0  0
   43.9676   -3.5821   10.6949 N   0  0  0  0  0  0  0  0  0  0  0  0
   43.1966    0.7739    8.6273 N   0  0  0  0  0  0  0  0  0  0  0  0
   39.4519   -1.6955   10.6229 O   0  0  0  0  0  0  0  0  0  0  0  0
   41.1190   -3.9792   10.8735 O   0  0  0  0  0  0  0  0  0  0  0  0
  1  2  1  0  0  0  0
  1 12  1  6  0  0  0
  1 13  1  0  0  0  0
  2  3  1  0  0  0  0
  2 10  1  6  0  0  0
  4  3  1  6  0  0  0
  4  5  1  0  0  0  0
  4 14  1  0  0  0  0
  5  6  1  0  0  0  0
  5 13  1  1  0  0  0
  6  7  1  0  0  0  0
  6 15  1  6  0  0  0
  7  8  1  0  0  0  0
  7 11  1  1  0  0  0
  8 14  1  0  0  0  0
  8 16  1  6  0  0  0
  9 11  1  0  0  0  0
 17 16  1  1  0  0  0
 17 18  1  0  0  0  0
 17 24  1  0  0  0  0
 18 19  1  0  0  0  0
 18 25  1  1  0  0  0
 19 20  1  0  0  0  0
 19 26  1  6  0  0  0
 20 21  1  0  0  0  0
 20 23  1  1  0  0  0
 21 22  1  6  0  0  0
 21 24  1  0  0  0  0
 22 27  1  0  0  0  0
 28 12  1  6  0  0  0
 28 29  1  0  0  0  0
 28 33  1  0  0  0  0
 29 30  1  0  0  0  0
 29 36  1  1  0  0  0
 30 31  1  0  0  0  0
 30 37  1  6  0  0  0
 31 32  1  0  0  0  0
 31 34  1  1  0  0  0
 32 33  1  0  0  0  0
 33 35  1  1  0  0  0
M  END
>  <CHROM.1>
-172.08959115,146.78691356,-167.75860657,179.39821611,173.81115157,76.77606072
39.90287199,4.07989623,9.26371501,1.34424926,-0.07685433,3.02329273

>  <Name>
1yrj_lig

>  <RI>
0

>  <Rbt.Current_Directory>
/home/itssahil/PROJECTS/Mol_Feturizer/New_Systems/rnas/1yrj

>  <Rbt.Executable>
rbdock ($Id: //depot/dev/client3/rdock/2013.1/src/exe/rbdock.cxx#4 $)

>  <Rbt.Library>
libRbt.so (2013.1, Build901 2013/11/27)

>  <Rbt.Parameter_File>
/export/apps/rDock/src/rDock_2013.1_src/data/scripts/dock_solv.prm

>  <Rbt.Receptor>
prm/pocket_docking_5.prm

>  <SCORE>
-26.2251

>  <SCORE.INTER>
-18.8178

>  <SCORE.INTER.CONST>
1

>  <SCORE.INTER.POLAR>
-1.23462

>  <SCORE.INTER.ROT>
6

>  <SCORE.INTER.SOLV>
16.6548

>  <SCORE.INTER.VDW>
-21.5814

>  <SCORE.INTER.norm>
-0.50859

>  <SCORE.INTRA>
-7.40725

>  <SCORE.INTRA.DIHEDRAL>
-12.3781

>  <SCORE.INTRA.DIHEDRAL.0>
15.6389

>  <SCORE.INTRA.POLAR>
0

>  <SCORE.INTRA.POLAR.0>
0

>  <SCORE.INTRA.REPUL>
0

>  <SCORE.INTRA.REPUL.0>
0

>  <SCORE.INTRA.SOLV>
-2.67976

>  <SCORE.INTRA.SOLV.lig_0>
-90.9181

>  <SCORE.INTRA.VDW>
0.121662

>  <SCORE.INTRA.VDW.0>
-3.14158

>  <SCORE.INTRA.norm>
-0.200196

>  <SCORE.RESTR>
0

>  <SCORE.RESTR.CAVITY>
0

>  <SCORE.RESTR.norm>
0

>  <SCORE.SYSTEM>
0

>  <SCORE.SYSTEM.CONST>
0

>  <SCORE.SYSTEM.DIHEDRAL>
0

>  <SCORE.SYSTEM.SOLV>
0

>  <SCORE.SYSTEM.norm>
0

>  <SCORE.heavy>
37

>  <SCORE.norm>
-0.708786

>  <RMSD>
10.189

$$$$
1yrj_lig
 OpenBabel11021811423D
libRbt.so/2013.1/901 2013/11/27
 37 40  0  0  0  0  0  0  0  0999 V2000
   39.1871    0.7164    9.1427 C   0  0  1  0  0  0  0  0  0  0  0  0
   38.0331    1.0872    8.1908 C   0  0  1  0  0  0  0  0  0  0  0  0
   38.3026    2.4087    7.4537 C   0  0  0  0  0  0  0  0  0  0  0  0
   38.5931    3.5383    8.4761 C   0  0  1  0  0  0  0  0  0  0  0  0
   39.7839    3.1464    9.3713 C   0  0  1  0  0  0  0  0  0  0  0  0
   40.0678    4.3228   10.3977 C   0  0  1  0  0  0  0  0  0  0  0  0
   40.3834    5.6160    9.6286 C   0  0  1  0  0  0  0  0  0  0  0  0
   39.1794    5.9378    8.7103 C   0  0  2  0  0  0  0  0  0  0  0  0
   41.7311    7.7156   10.1594 C   0  0  0  0  0  0  0  0  0  0  0  0
   37.7514    0.0134    7.2241 N   0  0  0  0  0  0  0  0  0  0  0  0
   40.7018    6.7179   10.5887 N   0  0  0  0  0  0  0  0  0  0  0  0
   40.3646    0.2400    8.4646 O   0  0  0  0  0  0  0  0  0  0  0  0
   39.4668    1.8628   10.0294 O   0  0  0  0  0  0  0  0  0  0  0  0
   38.8980    4.8266    7.8130 O   0  0  0  0  0  0  0  0  0  0  0  0
   38.9085    4.5639   11.1675 O   0  0  0  0  0  0  0  0  0  0  0  0
   39.4151    7.0962    7.9091 O   0  0  0  0  0  0  0  0  0  0  0  0
   38.4942    8.1779    8.1838 C   0  0  2  0  0  0  0  0  0  0  0  0
   37.0443    7.8600    7.7830 C   0  0  1  0  0  0  0  0  0  0  0  0
   36.8933    7.7865    6.2402 C   0  0  2  0  0  0  0  0  0  0  0  0
   37.3423    9.0883    5.6168 C   0  0  1  0  0  0  0  0  0  0  0  0
   38.8118    9.3648    6.0138 C   0  0  1  0  0  0  0  0  0  0  0  0
   39.3344   10.6903    5.4645 C   0  0  0  0  0  0  0  0  0  0  0  0
   37.1915    8.9860    4.1504 N   0  0  0  0  0  0  0  0  0  0  0  0
   38.9259    9.4094    7.4826 O   0  0  0  0  0  0  0  0  0  0  0  0
   36.6556    6.6370    8.4251 O   0  0  0  0  0  0  0  0  0  0  0  0
   35.5180    7.5638    5.9001 O   0  0  0  0  0  0  0  0  0  0  0  0
   40.6676   10.8674    5.8632 O   0  0  0  0  0  0  0  0  0  0  0  0
   41.5281   -0.4461    9.1646 C   0  0  1  0  0  0  0  0  0  0  0  0
   42.0169   -1.5770    8.2329 C   0  0  1  0  0  0  0  0  0  0  0  0
   43.2503   -2.2985    8.8281 C   0  0  2  0  0  0  0  0  0  0  0  0
   44.3855   -1.2933    9.0560 C   0  0  1  0  0  0  0  0  0  0  0  0
   43.9204   -0.1715   10.0194 C   0  0  0  0  0  0  0  0  0  0  0  0
   42.7104    0.5390    9.4039 C   0  0  2  0  0  0  0  0  0  0  0  0
   45.5573   -1.9874    9.6352 N   0  0  0  0  0  0  0  0  0  0  0  0
   42.3146    1.5967   10.3299 N   0  0  0  0  0  0  0  0  0  0  0  0
   40.9549   -2.5413    8.0646 O   0  0  0  0  0  0  0  0  0  0  0  0
   43.6784   -3.3254    7.9078 O   0  0  0  0  0  0  0  0  0  0  0  0
  1  2  1  0  0  0  0
  1 12  1  6  0  0  0
  1 13  1  0  0  0  0
  2  3  1  0  0  0  0
  2 10  1  6  0  0  0
  4  3  1  6  0  0  0
  4  5  1  0  0  0  0
  4 14  1  0  0  0  0
  5  6  1  0  0  0  0
  5 13  1  1  0  0  0
  6  7  1  0  0  0  0
  6 15  1  6  0  0  0
  7  8  1  0  0  0  0
  7 11  1  1  0  0  0
  8 14  1  0  0  0  0
  8 16  1  6  0  0  0
  9 11  1  0  0  0  0
 17 16  1  6  0  0  0
 17 18  1  0  0  0  0
 17 24  1  0  0  0  0
 18 19  1  0  0  0  0
 18 25  1  1  0  0  0
 19 20  1  0  0  0  0
 19 26  1  1  0  0  0
 20 21  1  0  0  0  0
 20 23  1  6  0  0  0
 21 22  1  6  0  0  0
 21 24  1  0  0  0  0
 22 27  1  0  0  0  0
 28 12  1  6  0  0  0
 28 29  1  0  0  0  0
 28 33  1  0  0  0  0
 29 30  1  0  0  0  0
 29 36  1  1  0  0  0
 30 31  1  0  0  0  0
 30 37  1  6  0  0  0
 31 32  1  0  0  0  0
 31 34  1  1  0  0  0
 32 33  1  0  0  0  0
 33 35  1  1  0  0  0
M  END
>  <CHROM.1>
-167.28404771,145.52752275,-117.26674832,-66.71310935,-179.89204900,141.50500064
39.92850949,3.94443448,8.27619720,1.13771604,0.43850472,3.11918225

>  <Name>
1yrj_lig

>  <RI>
0

>  <Rbt.Current_Directory>
/home/itssahil/PROJECTS/Mol_Feturizer/New_Systems/rnas/1yrj

>  <Rbt.Executable>
rbdock ($Id: //depot/dev/client3/rdock/2013.1/src/exe/rbdock.cxx#4 $)

>  <Rbt.Library>
libRbt.so (2013.1, Build901 2013/11/27)

>  <Rbt.Parameter_File>
/export/apps/rDock/src/rDock_2013.1_src/data/scripts/dock_solv.prm

>  <Rbt.Receptor>
prm/pocket_docking_3.prm

>  <SCORE>
-22.9579

>  <SCORE.INTER>
-22.672

>  <SCORE.INTER.CONST>
1

>  <SCORE.INTER.POLAR>
-2.44537

>  <SCORE.INTER.ROT>
6

>  <SCORE.INTER.SOLV>
21.4188

>  <SCORE.INTER.VDW>
-21.703

>  <SCORE.INTER.norm>
-0.612756

>  <SCORE.INTRA>
-0.285891

>  <SCORE.INTRA.DIHEDRAL>
-1.54366

>  <SCORE.INTRA.DIHEDRAL.0>
15.6389

>  <SCORE.INTRA.POLAR>
0

>  <SCORE.INTRA.POLAR.0>
0

>  <SCORE.INTRA.REPUL>
0

>  <SCORE.INTRA.REPUL.0>
0

>  <SCORE.INTRA.SOLV>
0.667688

>  <SCORE.INTRA.SOLV.lig_0>
-90.9181

>  <SCORE.INTRA.VDW>
0.152097

>  <SCORE.INTRA.VDW.0>
-3.14158

>  <SCORE.INTRA.norm>
-0.00772678

>  <SCORE.RESTR>
0

>  <SCORE.RESTR.CAVITY>
0

>  <SCORE.RESTR.norm>
0

>  <SCORE.SYSTEM>
0

>  <SCORE.SYSTEM.CONST>
0

>  <SCORE.SYSTEM.DIHEDRAL>
0

>  <SCORE.SYSTEM.SOLV>
0

>  <SCORE.SYSTEM.norm>
0

>  <SCORE.heavy>
37

>  <SCORE.norm>
-0.620483

>  <RMSD>
10.190

$$$$
1yrj_lig
 OpenBabel11021811423D
libRbt.so/2013.1/901 2013/11/27
 37 40  0  0  0  0  0  0  0  0999 V2000
   39.7920    0.6340    9.4534 C   0  0  1  0  0  0  0  0  0  0  0  0
   38.4732    0.5682    8.6585 C   0  0  1  0  0  0  0  0  0  0  0  0
   38.3375    1.7443    7.6783 C   0  0  0  0  0  0  0  0  0  0  0  0
   38.4877    3.0888    8.4369 C   0  0  1  0  0  0  0  0  0  0  0  0
   39.8397    3.1306    9.1741 C   0  0  1  0  0  0  0  0  0  0  0  0
   39.9732    4.5195    9.9300 C   0  0  1  0  0  0  0  0  0  0  0  0
   39.8845    5.6714    8.9158 C   0  0  1  0  0  0  0  0  0  0  0  0
   38.5330    5.5552    8.1699 C   0  0  2  0  0  0  0  0  0  0  0  0
   41.4633    7.4161    9.9008 C   0  0  0  0  0  0  0  0  0  0  0  0
   38.3257   -0.7100    7.9432 N   0  0  0  0  0  0  0  0  0  0  0  0
   40.0601    6.9827    9.6137 N   0  0  0  0  0  0  0  0  0  0  0  0
   40.9522    0.2807    8.6775 O   0  0  0  0  0  0  0  0  0  0  0  0
   39.9108    1.9656   10.0791 O   0  0  0  0  0  0  0  0  0  0  0  0
   38.4032    4.2550    7.5283 O   0  0  0  0  0  0  0  0  0  0  0  0
   38.8960    4.6689   10.8310 O   0  0  0  0  0  0  0  0  0  0  0  0
   38.3941    6.5554    7.1601 O   0  0  0  0  0  0  0  0  0  0  0  0
   37.2692    7.4381    7.3813 C   0  0  2  0  0  0  0  0  0  0  0  0
   37.0159    8.4063    6.2142 C   0  0  1  0  0  0  0  0  0  0  0  0
   38.1477    9.4626    6.1074 C   0  0  2  0  0  0  0  0  0  0  0  0
   38.2675   10.2216    7.4091 C   0  0  1  0  0  0  0  0  0  0  0  0
   38.5512    9.2246    8.5575 C   0  0  1  0  0  0  0  0  0  0  0  0
   38.6397    9.9032    9.9226 C   0  0  0  0  0  0  0  0  0  0  0  0
   39.3539   11.2146    7.2781 N   0  0  0  0  0  0  0  0  0  0  0  0
   37.4705    8.2244    8.6207 O   0  0  0  0  0  0  0  0  0  0  0  0
   36.8764    7.6369    5.0110 O   0  0  0  0  0  0  0  0  0  0  0  0
   37.8424   10.3926    5.0590 O   0  0  0  0  0  0  0  0  0  0  0  0
   37.4264   10.5495   10.2020 O   0  0  0  0  0  0  0  0  0  0  0  0
   42.3595    0.1898    9.2482 C   0  0  1  0  0  0  0  0  0  0  0  0
   42.4928   -1.1986    9.9118 C   0  0  1  0  0  0  0  0  0  0  0  0
   43.9204   -1.4181   10.4684 C   0  0  2  0  0  0  0  0  0  0  0  0
   44.9488   -1.2873    9.3387 C   0  0  1  0  0  0  0  0  0  0  0  0
   44.8514    0.1159    8.6873 C   0  0  0  0  0  0  0  0  0  0  0  0
   43.4369    0.3053    8.1294 C   0  0  2  0  0  0  0  0  0  0  0  0
   46.3118   -1.4871    9.8797 N   0  0  0  0  0  0  0  0  0  0  0  0
   43.3909    1.6273    7.5105 N   0  0  0  0  0  0  0  0  0  0  0  0
   41.5522   -1.2914   11.0039 O   0  0  0  0  0  0  0  0  0  0  0  0
   43.9951   -2.7362   11.0530 O   0  0  0  0  0  0  0  0  0  0  0  0
  1  2  1  0  0  0  0
  1 12  1  6  0  0  0
  1 13  1  0  0  0  0
  2  3  1  0  0  0  0
  2 10  1  6  0  0  0
  4  3  1  6  0  0  0
  4  5  1  0  0  0  0
  4 14  1  0  0  0  0
  5  6  1  0  0  0  0
  5 13  1  1  0  0  0
  6  7  1  0  0  0  0
  6 15  1  1  0  0  0
  7  8  1  0  0  0  0
  7 11  1  1  0  0  0
  8 14  1  0  0  0  0
  8 16  1  6  0  0  0
  9 11  1  0  0  0  0
 17 16  1  6  0  0  0
 17 18  1  0  0  0  0
 17 24  1  0  0  0  0
 18 19  1  0  0  0  0
 18 25  1  6  0  0  0
 19 20  1  0  0  0  0
 19 26  1  6  0  0  0
 20 21  1  0  0  0  0
 20 23  1  6  0  0  0
 21 22  1  1  0  0  0
 21 24  1  0  0  0  0
 22 27  1  0  0  0  0
 28 12  1  6  0  0  0
 28 29  1  0  0  0  0
 28 33  1  0  0  0  0
 29 30  1  0  0  0  0
 29 36  1  1  0  0  0
 30 31  1  0  0  0  0
 30 37  1  6  0  0  0
 31 32  1  0  0  0  0
 31 34  1  1  0  0  0
 32 33  1  0  0  0  0
 33 35  1  1  0  0  0
M  END
>  <CHROM.1>
-176.36024050,81.84135068,-118.89801622,-173.09131951,59.83835731,82.33022964
40.07158102,4.13998797,8.63147899,1.07960976,0.39803321,-3.13831445

>  <Name>
1yrj_lig

>  <RI>
0

>  <Rbt.Current_Directory>
/home/itssahil/PROJECTS/Mol_Feturizer/New_Systems/rnas/1yrj

>  <Rbt.Executable>
rbdock ($Id: //depot/dev/client3/rdock/2013.1/src/exe/rbdock.cxx#4 $)

>  <Rbt.Library>
libRbt.so (2013.1, Build901 2013/11/27)

>  <Rbt.Parameter_File>
/export/apps/rDock/src/rDock_2013.1_src/data/scripts/dock_solv.prm

>  <Rbt.Receptor>
prm/pocket_docking_3.prm

>  <SCORE>
-25.1257

>  <SCORE.INTER>
-21.6781

>  <SCORE.INTER.CONST>
1

>  <SCORE.INTER.POLAR>
-1.63324

>  <SCORE.INTER.ROT>
6

>  <SCORE.INTER.SOLV>
16.3257

>  <SCORE.INTER.VDW>
-22.0498

>  <SCORE.INTER.norm>
-0.585894

>  <SCORE.INTRA>
-3.44759

>  <SCORE.INTRA.DIHEDRAL>
-5.52712

>  <SCORE.INTRA.DIHEDRAL.0>
15.6389

>  <SCORE.INTRA.POLAR>
0

>  <SCORE.INTRA.POLAR.0>
0

>  <SCORE.INTRA.REPUL>
0

>  <SCORE.INTRA.REPUL.0>
0

>  <SCORE.INTRA.SOLV>
-0.469919

>  <SCORE.INTRA.SOLV.lig_0>
-90.9181

>  <SCORE.INTRA.VDW>
-0.449072

>  <SCORE.INTRA.VDW.0>
-3.14158

>  <SCORE.INTRA.norm>
-0.0931781

>  <SCORE.RESTR>
0

>  <SCORE.RESTR.CAVITY>
0

>  <SCORE.RESTR.norm>
0

>  <SCORE.SYSTEM>
0

>  <SCORE.SYSTEM.CONST>
0

>  <SCORE.SYSTEM.DIHEDRAL>
0

>  <SCORE.SYSTEM.SOLV>
0

>  <SCORE.SYSTEM.norm>
0

>  <SCORE.heavy>
37

>  <SCORE.norm>
-0.679072

>  <RMSD>
10.195

$$$$
1yrj_lig
 OpenBabel11021811423D
libRbt.so/2013.1/901 2013/11/27
 37 40  0  0  0  0  0  0  0  0999 V2000
   39.6637    0.0634    9.3794 C   0  0  1  0  0  0  0  0  0  0  0  0
   38.3400    0.1262    8.5924 C   0  0  1  0  0  0  0  0  0  0  0  0
   38.2869    1.3471    7.6602 C   0  0  0  0  0  0  0  0  0  0  0  0
   38.5392    2.6458    8.4698 C   0  0  1  0  0  0  0  0  0  0  0  0
   39.8939    2.5589    9.1980 C   0  0  1  0  0  0  0  0  0  0  0  0
   40.1329    3.9030   10.0067 C   0  0  1  0  0  0  0  0  0  0  0  0
   40.1248    5.0978    9.0392 C   0  0  1  0  0  0  0  0  0  0  0  0
   38.7650    5.1108    8.2995 C   0  0  2  0  0  0  0  0  0  0  0  0
   40.9046    7.5259    8.9907 C   0  0  0  0  0  0  0  0  0  0  0  0
   38.0955   -1.1083    7.8287 N   0  0  0  0  0  0  0  0  0  0  0  0
   40.3997    6.3639    9.7868 N   0  0  0  0  0  0  0  0  0  0  0  0
   40.7912   -0.3431    8.5816 O   0  0  0  0  0  0  0  0  0  0  0  0
   39.8831    1.3568   10.0560 O   0  0  0  0  0  0  0  0  0  0  0  0
   38.5367    3.8501    7.6083 O   0  0  0  0  0  0  0  0  0  0  0  0
   39.0738    4.0953   10.9210 O   0  0  0  0  0  0  0  0  0  0  0  0
   38.6955    6.1578    7.3308 O   0  0  0  0  0  0  0  0  0  0  0  0
   37.3493    6.6367    7.1028 C   0  0  2  0  0  0  0  0  0  0  0  0
   37.2682    7.7415    6.0367 C   0  0  1  0  0  0  0  0  0  0  0  0
   37.9208    9.0558    6.5417 C   0  0  2  0  0  0  0  0  0  0  0  0
   37.2519    9.5037    7.8211 C   0  0  1  0  0  0  0  0  0  0  0  0
   37.3762    8.3842    8.8816 C   0  0  1  0  0  0  0  0  0  0  0  0
   36.6826    8.7340   10.1963 C   0  0  0  0  0  0  0  0  0  0  0  0
   37.8967   10.7520    8.2787 N   0  0  0  0  0  0  0  0  0  0  0  0
   36.7655    7.1459    8.3656 O   0  0  0  0  0  0  0  0  0  0  0  0
   37.8847    7.2563    4.8352 O   0  0  0  0  0  0  0  0  0  0  0  0
   37.7612   10.0841    5.5548 O   0  0  0  0  0  0  0  0  0  0  0  0
   37.3246    9.8341   10.7842 O   0  0  0  0  0  0  0  0  0  0  0  0
   42.1925   -0.5512    9.1361 C   0  0  1  0  0  0  0  0  0  0  0  0
   42.1476   -1.8145   10.0238 C   0  0  1  0  0  0  0  0  0  0  0  0
   43.5495   -2.1534   10.5860 C   0  0  2  0  0  0  0  0  0  0  0  0
   44.5376   -2.3695    9.4337 C   0  0  1  0  0  0  0  0  0  0  0  0
   44.6205   -1.0952    8.5550 C   0  0  0  0  0  0  0  0  0  0  0  0
   43.2272   -0.7879    7.9964 C   0  0  2  0  0  0  0  0  0  0  0  0
   45.8779   -2.6820    9.9782 N   0  0  0  0  0  0  0  0  0  0  0  0
   43.3504    0.4047    7.1625 N   0  0  0  0  0  0  0  0  0  0  0  0
   41.2503   -1.5809   11.1312 O   0  0  0  0  0  0  0  0  0  0  0  0
   43.4538   -3.3522   11.3849 O   0  0  0  0  0  0  0  0  0  0  0  0
  1  2  1  0  0  0  0
  1 12  1  6  0  0  0
  1 13  1  0  0  0  0
  2  3  1  0  0  0  0
  2 10  1  6  0  0  0
  4  3  1  6  0  0  0
  4  5  1  0  0  0  0
  4 14  1  0  0  0  0
  5  6  1  0  0  0  0
  5 13  1  1  0  0  0
  6  7  1  0  0  0  0
  6 15  1  1  0  0  0
  7  8  1  0  0  0  0
  7 11  1  1  0  0  0
  8 14  1  0  0  0  0
  8 16  1  6  0  0  0
  9 11  1  0  0  0  0
 17 16  1  1  0  0  0
 17 18  1  0  0  0  0
 17 24  1  0  0  0  0
 18 19  1  0  0  0  0
 18 25  1  6  0  0  0
 19 20  1  0  0  0  0
 19 26  1  6  0  0  0
 20 21  1  0  0  0  0
 20 23  1  1  0  0  0
 21 22  1  1  0  0  0
 21 24  1  0  0  0  0
 22 27  1  0  0  0  0
 28 12  1  6  0  0  0
 28 29  1  0  0  0  0
 28 33  1  0  0  0  0
 29 30  1  0  0  0  0
 29 36  1  1  0  0  0
 30 31  1  0  0  0  0
 30 37  1  6  0  0  0
 31 32  1  0  0  0  0
 31 34  1  1  0  0  0
 32 33  1  0  0  0  0
 33 35  1  6  0  0  0
M  END
>  <CHROM.1>
-176.75991361,158.90420745,-151.34578489,-178.67070894,-64.62611204,69.73300443
39.86063889,3.49982030,8.69665074,0.95688965,0.70156377,-2.88558339

>  <Name>
1yrj_lig

>  <RI>
0

>  <Rbt.Current_Directory>
/home/itssahil/PROJECTS/Mol_Feturizer/New_Systems/rnas/1yrj

>  <Rbt.Executable>
rbdock ($Id: //depot/dev/client3/rdock/2013.1/src/exe/rbdock.cxx#4 $)

>  <Rbt.Library>
libRbt.so (2013.1, Build901 2013/11/27)

>  <Rbt.Parameter_File>
/export/apps/rDock/src/rDock_2013.1_src/data/scripts/dock_solv.prm

>  <Rbt.Receptor>
prm/pocket_docking_7.prm

>  <SCORE>
-27.9667

>  <SCORE.INTER>
-21.7106

>  <SCORE.INTER.CONST>
1

>  <SCORE.INTER.POLAR>
-1.51643

>  <SCORE.INTER.ROT>
6

>  <SCORE.INTER.SOLV>
13.5547

>  <SCORE.INTER.VDW>
-21.5372

>  <SCORE.INTER.norm>
-0.586773

>  <SCORE.INTRA>
-6.25609

>  <SCORE.INTRA.DIHEDRAL>
-11.2708

>  <SCORE.INTRA.DIHEDRAL.0>
15.6389

>  <SCORE.INTRA.POLAR>
0

>  <SCORE.INTRA.POLAR.0>
0

>  <SCORE.INTRA.REPUL>
0

>  <SCORE.INTRA.REPUL.0>
0

>  <SCORE.INTRA.SOLV>
-1.12957

>  <SCORE.INTRA.SOLV.lig_0>
-90.9181

>  <SCORE.INTRA.VDW>
-0.0558965

>  <SCORE.INTRA.VDW.0>
-3.14158

>  <SCORE.INTRA.norm>
-0.169084

>  <SCORE.RESTR>
0

>  <SCORE.RESTR.CAVITY>
0

>  <SCORE.RESTR.norm>
0

>  <SCORE.SYSTEM>
0

>  <SCORE.SYSTEM.CONST>
0

>  <SCORE.SYSTEM.DIHEDRAL>
0

>  <SCORE.SYSTEM.SOLV>
0

>  <SCORE.SYSTEM.norm>
0

>  <SCORE.heavy>
37

>  <SCORE.norm>
-0.755857

>  <RMSD>
10.195

$$$$
1yrj_lig
 OpenBabel11021811423D
libRbt.so/2013.1/901 2013/11/27
 37 40  0  0  0  0  0  0  0  0999 V2000
   38.8011   -0.5962    9.6315 C   0  0  1  0  0  0  0  0  0  0  0  0
   37.7602   -0.3683    8.5180 C   0  0  1  0  0  0  0  0  0  0  0  0
   38.1762    0.7686    7.5710 C   0  0  0  0  0  0  0  0  0  0  0  0
   38.4477    2.0631    8.3810 C   0  0  1  0  0  0  0  0  0  0  0  0
   39.5288    1.8017    9.4468 C   0  0  1  0  0  0  0  0  0  0  0  0
   39.7963    3.1431   10.2511 C   0  0  1  0  0  0  0  0  0  0  0  0
   40.2591    4.2438    9.2828 C   0  0  1  0  0  0  0  0  0  0  0  0
   39.1625    4.4327    8.2067 C   0  0  2  0  0  0  0  0  0  0  0  0
   41.8214    5.5151   10.8479 C   0  0  0  0  0  0  0  0  0  0  0  0
   37.4961   -1.5976    7.7524 N   0  0  0  0  0  0  0  0  0  0  0  0
   40.5620    5.4977   10.0401 N   0  0  0  0  0  0  0  0  0  0  0  0
   40.0005   -1.2496    9.1759 O   0  0  0  0  0  0  0  0  0  0  0  0
   39.0748    0.6886   10.3048 O   0  0  0  0  0  0  0  0  0  0  0  0
   38.8903    3.1804    7.5160 O   0  0  0  0  0  0  0  0  0  0  0  0
   38.5921    3.5833   10.8434 O   0  0  0  0  0  0  0  0  0  0  0  0
   39.5401    5.3987    7.2250 O   0  0  0  0  0  0  0  0  0  0  0  0
   38.4208    5.9011    6.4578 C   0  0  2  0  0  0  0  0  0  0  0  0
   38.8389    6.8374    5.3123 C   0  0  1  0  0  0  0  0  0  0  0  0
   39.3916    8.1801    5.8600 C   0  0  2  0  0  0  0  0  0  0  0  0
   38.3541    8.8445    6.7357 C   0  0  1  0  0  0  0  0  0  0  0  0
   37.9766    7.8908    7.8939 C   0  0  1  0  0  0  0  0  0  0  0  0
   36.8938    8.4648    8.8049 C   0  0  0  0  0  0  0  0  0  0  0  0
   38.9101   10.1153    7.2449 N   0  0  0  0  0  0  0  0  0  0  0  0
   37.4742    6.6196    7.3424 O   0  0  0  0  0  0  0  0  0  0  0  0
   39.7961    6.1502    4.4934 O   0  0  0  0  0  0  0  0  0  0  0  0
   39.7008    9.0562    4.7675 O   0  0  0  0  0  0  0  0  0  0  0  0
   36.6567    7.5770    9.8648 O   0  0  0  0  0  0  0  0  0  0  0  0
   41.1183   -1.7118   10.0986 C   0  0  1  0  0  0  0  0  0  0  0  0
   40.6021   -2.9591   10.8495 C   0  0  1  0  0  0  0  0  0  0  0  0
   41.6964   -3.5501   11.7711 C   0  0  2  0  0  0  0  0  0  0  0  0
   42.9325   -3.9228   10.9439 C   0  0  1  0  0  0  0  0  0  0  0  0
   43.4836   -2.6716   10.2134 C   0  0  0  0  0  0  0  0  0  0  0  0
   42.3910   -2.1132    9.2957 C   0  0  2  0  0  0  0  0  0  0  0  0
   43.9785   -4.4767   11.8325 N   0  0  0  0  0  0  0  0  0  0  0  0
   42.9530   -0.9502    8.6143 N   0  0  0  0  0  0  0  0  0  0  0  0
   39.4677   -2.5848   11.6612 O   0  0  0  0  0  0  0  0  0  0  0  0
   41.1695   -4.7237   12.4266 O   0  0  0  0  0  0  0  0  0  0  0  0
  1  2  1  0  0  0  0
  1 12  1  6  0  0  0
  1 13  1  0  0  0  0
  2  3  1  0  0  0  0
  2 10  1  6  0  0  0
  4  3  1  6  0  0  0
  4  5  1  0  0  0  0
  4 14  1  0  0  0  0
  5  6  1  0  0  0  0
  5 13  1  1  0  0  0
  6  7  1  0  0  0  0
  6 15  1  6  0  0  0
  7  8  1  0  0  0  0
  7 11  1  1  0  0  0
  8 14  1  0  0  0  0
  8 16  1  6  0  0  0
  9 11  1  0  0  0  0
 17 16  1  1  0  0  0
 17 18  1  0  0  0  0
 17 24  1  0  0  0  0
 18 19  1  0  0  0  0
 18 25  1  1  0  0  0
 19 20  1  0  0  0  0
 19 26  1  6  0  0  0
 20 21  1  0  0  0  0
 20 23  1  1  0  0  0
 21 22  1  6  0  0  0
 21 24  1  0  0  0  0
 22 27  1  0  0  0  0
 28 12  1  6  0  0  0
 28 29  1  0  0  0  0
 28 33  1  0  0  0  0
 29 30  1  0  0  0  0
 29 36  1  1  0  0  0
 30 31  1  0  0  0  0
 30 37  1  6  0  0  0
 31 32  1  0  0  0  0
 31 34  1  1  0  0  0
 32 33  1  0  0  0  0
 33 35  1  1  0  0  0
M  END
>  <CHROM.1>
-173.67909990,73.80267181,-162.19566666,-174.43914215,-176.96100282,73.12967776
39.71142843,2.53709514,8.85096561,1.32722442,-0.08226619,2.78822178

>  <Name>
1yrj_lig

>  <RI>
0

>  <Rbt.Current_Directory>
/home/itssahil/PROJECTS/Mol_Feturizer/New_Systems/rnas/1yrj

>  <Rbt.Executable>
rbdock ($Id: //depot/dev/client3/rdock/2013.1/src/exe/rbdock.cxx#4 $)

>  <Rbt.Library>
libRbt.so (2013.1, Build901 2013/11/27)

>  <Rbt.Parameter_File>
/export/apps/rDock/src/rDock_2013.1_src/data/scripts/dock_solv.prm

>  <Rbt.Receptor>
prm/pocket_docking_4.prm

>  <SCORE>
-29.5344

>  <SCORE.INTER>
-22.2781

>  <SCORE.INTER.CONST>
1

>  <SCORE.INTER.POLAR>
-1.45711

>  <SCORE.INTER.ROT>
6

>  <SCORE.INTER.SOLV>
13.905

>  <SCORE.INTER.VDW>
-22.23

>  <SCORE.INTER.norm>
-0.60211

>  <SCORE.INTRA>
-7.25628

>  <SCORE.INTRA.DIHEDRAL>
-12.7331

>  <SCORE.INTRA.DIHEDRAL.0>
15.6389

>  <SCORE.INTRA.POLAR>
0

>  <SCORE.INTRA.POLAR.0>
0

>  <SCORE.INTRA.REPUL>
0

>  <SCORE.INTRA.REPUL.0>
0

>  <SCORE.INTRA.SOLV>
-2.7336

>  <SCORE.INTRA.SOLV.lig_0>
-90.9181

>  <SCORE.INTRA.VDW>
0.47706

>  <SCORE.INTRA.VDW.0>
-3.14158

>  <SCORE.INTRA.norm>
-0.196116

>  <SCORE.RESTR>
0

>  <SCORE.RESTR.CAVITY>
0

>  <SCORE.RESTR.norm>
0

>  <SCORE.SYSTEM>
0

>  <SCORE.SYSTEM.CONST>
0

>  <SCORE.SYSTEM.DIHEDRAL>
0

>  <SCORE.SYSTEM.SOLV>
0

>  <SCORE.SYSTEM.norm>
0

>  <SCORE.heavy>
37

>  <SCORE.norm>
-0.798226

>  <RMSD>
10.203

$$$$
1yrj_lig
 OpenBabel11021811423D
libRbt.so/2013.1/901 2013/11/27
 37 40  0  0  0  0  0  0  0  0999 V2000
   39.0987    1.9984    9.7469 C   0  0  1  0  0  0  0  0  0  0  0  0
   38.2965    2.2429    8.4538 C   0  0  1  0  0  0  0  0  0  0  0  0
   38.7068    3.5549    7.7663 C   0  0  0  0  0  0  0  0  0  0  0  0
   38.5761    4.7392    8.7593 C   0  0  1  0  0  0  0  0  0  0  0  0
   39.4329    4.4745   10.0118 C   0  0  1  0  0  0  0  0  0  0  0  0
   39.2917    5.7051   11.0037 C   0  0  1  0  0  0  0  0  0  0  0  0
   39.7577    6.9914   10.3026 C   0  0  1  0  0  0  0  0  0  0  0  0
   38.9006    7.1843    9.0281 C   0  0  2  0  0  0  0  0  0  0  0  0
   40.6988    9.2282   11.0884 C   0  0  0  0  0  0  0  0  0  0  0  0
   38.4138    1.1169    7.5129 N   0  0  0  0  0  0  0  0  0  0  0  0
   39.6754    8.1482   11.2473 N   0  0  0  0  0  0  0  0  0  0  0  0
   40.4605    1.5932    9.5137 O   0  0  0  0  0  0  0  0  0  0  0  0
   39.0010    3.1938   10.6072 O   0  0  0  0  0  0  0  0  0  0  0  0
   38.9979    6.0236    8.1550 O   0  0  0  0  0  0  0  0  0  0  0  0
   37.9321    5.8805   11.3434 O   0  0  0  0  0  0  0  0  0  0  0  0
   39.3103    8.3289    8.2787 O   0  0  0  0  0  0  0  0  0  0  0  0
   38.2586    9.3085    8.1112 C   0  0  2  0  0  0  0  0  0  0  0  0
   37.0039    8.7439    7.4253 C   0  0  1  0  0  0  0  0  0  0  0  0
   37.2811    8.4149    5.9343 C   0  0  2  0  0  0  0  0  0  0  0  0
   37.7661    9.6531    5.2158 C   0  0  1  0  0  0  0  0  0  0  0  0
   39.0443   10.1793    5.9106 C   0  0  1  0  0  0  0  0  0  0  0  0
   39.5779   11.4619    5.2766 C   0  0  0  0  0  0  0  0  0  0  0  0
   38.0254    9.3077    3.8027 N   0  0  0  0  0  0  0  0  0  0  0  0
   38.7541   10.4639    7.3273 O   0  0  0  0  0  0  0  0  0  0  0  0
   36.5648    7.5936    8.1623 O   0  0  0  0  0  0  0  0  0  0  0  0
   36.0731    7.9626    5.3072 O   0  0  0  0  0  0  0  0  0  0  0  0
   40.7765   11.8299    5.9058 O   0  0  0  0  0  0  0  0  0  0  0  0
   40.8534    0.3163    8.7860 C   0  0  1  0  0  0  0  0  0  0  0  0
   42.3967    0.2800    8.7316 C   0  0  1  0  0  0  0  0  0  0  0  0
   42.9026   -1.0224    8.0651 C   0  0  2  0  0  0  0  0  0  0  0  0
   42.3865   -2.2413    8.8389 C   0  0  1  0  0  0  0  0  0  0  0  0
   40.8368   -2.2375    8.8699 C   0  0  0  0  0  0  0  0  0  0  0  0
   40.3586   -0.9490    9.5474 C   0  0  2  0  0  0  0  0  0  0  0  0
   42.8645   -3.4827    8.1901 N   0  0  0  0  0  0  0  0  0  0  0  0
   38.8990   -0.9914    9.5732 N   0  0  0  0  0  0  0  0  0  0  0  0
   42.8679    1.4064    7.9601 O   0  0  0  0  0  0  0  0  0  0  0  0
   44.3464   -1.0144    8.0633 O   0  0  0  0  0  0  0  0  0  0  0  0
  1  2  1  0  0  0  0
  1 12  1  6  0  0  0
  1 13  1  0  0  0  0
  2  3  1  0  0  0  0
  2 10  1  6  0  0  0
  4  3  1  6  0  0  0
  4  5  1  0  0  0  0
  4 14  1  0  0  0  0
  5  6  1  0  0  0  0
  5 13  1  1  0  0  0
  6  7  1  0  0  0  0
  6 15  1  6  0  0  0
  7  8  1  0  0  0  0
  7 11  1  1  0  0  0
  8 14  1  0  0  0  0
  8 16  1  6  0  0  0
  9 11  1  0  0  0  0
 17 16  1  6  0  0  0
 17 18  1  0  0  0  0
 17 24  1  0  0  0  0
 18 19  1  0  0  0  0
 18 25  1  1  0  0  0
 19 20  1  0  0  0  0
 19 26  1  6  0  0  0
 20 21  1  0  0  0  0
 20 23  1  6  0  0  0
 21 22  1  6  0  0  0
 21 24  1  0  0  0  0
 22 27  1  0  0  0  0
 28 12  1  1  0  0  0
 28 29  1  0  0  0  0
 28 33  1  0  0  0  0
 29 30  1  0  0  0  0
 29 36  1  6  0  0  0
 30 31  1  0  0  0  0
 30 37  1  1  0  0  0
 31 32  1  0  0  0  0
 31 34  1  6  0  0  0
 32 33  1  0  0  0  0
 33 35  1  6  0  0  0
M  END
>  <CHROM.1>
-61.95279760,147.27280615,-120.67098037,-57.69848579,-176.44604100,178.95990763
39.58154592,4.79979586,8.31688933,0.63050347,-1.22812584,2.05588725

>  <Name>
1yrj_lig

>  <RI>
0

>  <Rbt.Current_Directory>
/home/itssahil/PROJECTS/Mol_Feturizer/New_Systems/rnas/1yrj

>  <Rbt.Executable>
rbdock ($Id: //depot/dev/client3/rdock/2013.1/src/exe/rbdock.cxx#4 $)

>  <Rbt.Library>
libRbt.so (2013.1, Build901 2013/11/27)

>  <Rbt.Parameter_File>
/export/apps/rDock/src/rDock_2013.1_src/data/scripts/dock_solv.prm

>  <Rbt.Receptor>
prm/pocket_docking_5.prm

>  <SCORE>
-21.5902

>  <SCORE.INTER>
-20.9517

>  <SCORE.INTER.CONST>
1

>  <SCORE.INTER.POLAR>
-1.7109

>  <SCORE.INTER.ROT>
6

>  <SCORE.INTER.SOLV>
16.0836

>  <SCORE.INTER.VDW>
-21.226

>  <SCORE.INTER.norm>
-0.566263

>  <SCORE.INTRA>
-0.638451

>  <SCORE.INTRA.DIHEDRAL>
-7.57692

>  <SCORE.INTRA.DIHEDRAL.0>
15.6389

>  <SCORE.INTRA.POLAR>
0

>  <SCORE.INTRA.POLAR.0>
0

>  <SCORE.INTRA.REPUL>
0

>  <SCORE.INTRA.REPUL.0>
0

>  <SCORE.INTRA.SOLV>
2.78606

>  <SCORE.INTRA.SOLV.lig_0>
-90.9181

>  <SCORE.INTRA.VDW>
1.75698

>  <SCORE.INTRA.VDW.0>
-3.14158

>  <SCORE.INTRA.norm>
-0.0172554

>  <SCORE.RESTR>
0

>  <SCORE.RESTR.CAVITY>
0

>  <SCORE.RESTR.norm>
0

>  <SCORE.SYSTEM>
0

>  <SCORE.SYSTEM.CONST>
0

>  <SCORE.SYSTEM.DIHEDRAL>
0

>  <SCORE.SYSTEM.SOLV>
0

>  <SCORE.SYSTEM.norm>
0

>  <SCORE.heavy>
37

>  <SCORE.norm>
-0.583518

>  <RMSD>
10.203

$$$$
1yrj_lig
 OpenBabel11021811423D
libRbt.so/2013.1/901 2013/11/27
 37 40  0  0  0  0  0  0  0  0999 V2000
   38.6356   -0.7434    9.6434 C   0  0  1  0  0  0  0  0  0  0  0  0
   37.5580   -0.4794    8.5735 C   0  0  1  0  0  0  0  0  0  0  0  0
   37.9922    0.6123    7.5824 C   0  0  0  0  0  0  0  0  0  0  0  0
   38.3734    1.9055    8.3492 C   0  0  1  0  0  0  0  0  0  0  0  0
   39.4868    1.6048    9.3703 C   0  0  1  0  0  0  0  0  0  0  0  0
   39.8664    2.9450   10.1305 C   0  0  1  0  0  0  0  0  0  0  0  0
   40.3443    3.9975    9.1169 C   0  0  1  0  0  0  0  0  0  0  0  0
   39.2108    4.2264    8.0878 C   0  0  2  0  0  0  0  0  0  0  0  0
   39.6541    6.1172   10.3567 C   0  0  0  0  0  0  0  0  0  0  0  0
   37.1900   -1.7071    7.8493 N   0  0  0  0  0  0  0  0  0  0  0  0
   40.7520    5.2473    9.8304 N   0  0  0  0  0  0  0  0  0  0  0  0
   39.7739   -1.4734    9.1487 O   0  0  0  0  0  0  0  0  0  0  0  0
   39.0119    0.5371   10.2736 O   0  0  0  0  0  0  0  0  0  0  0  0
   38.8369    2.9779    7.4394 O   0  0  0  0  0  0  0  0  0  0  0  0
   38.7178    3.4651   10.7667 O   0  0  0  0  0  0  0  0  0  0  0  0
   39.5955    5.1491    7.0679 O   0  0  0  0  0  0  0  0  0  0  0  0
   38.5107    5.5015    6.1776 C   0  0  2  0  0  0  0  0  0  0  0  0
   38.9754    6.2500    4.9177 C   0  0  1  0  0  0  0  0  0  0  0  0
   39.4858    7.6730    5.2682 C   0  0  2  0  0  0  0  0  0  0  0  0
   38.3990    8.4497    5.9754 C   0  0  1  0  0  0  0  0  0  0  0  0
   37.9743    7.6868    7.2525 C   0  0  1  0  0  0  0  0  0  0  0  0
   36.8413    8.3791    8.0069 C   0  0  0  0  0  0  0  0  0  0  0  0
   38.9154    9.7957    6.2996 N   0  0  0  0  0  0  0  0  0  0  0  0
   37.5135    6.3347    6.8892 O   0  0  0  0  0  0  0  0  0  0  0  0
   39.9796    5.4585    4.2664 O   0  0  0  0  0  0  0  0  0  0  0  0
   39.8399    8.3687    4.0650 O   0  0  0  0  0  0  0  0  0  0  0  0
   36.5827    7.6862    9.1989 O   0  0  0  0  0  0  0  0  0  0  0  0
   40.9189   -1.9566   10.0260 C   0  0  1  0  0  0  0  0  0  0  0  0
   40.3655   -3.0962   10.9097 C   0  0  1  0  0  0  0  0  0  0  0  0
   41.4771   -3.7056   11.7980 C   0  0  2  0  0  0  0  0  0  0  0  0
   42.6141   -4.2417   10.9200 C   0  0  1  0  0  0  0  0  0  0  0  0
   43.2041   -3.0996   10.0537 C   0  0  0  0  0  0  0  0  0  0  0  0
   42.0919   -2.5225    9.1718 C   0  0  2  0  0  0  0  0  0  0  0  0
   43.6781   -4.8126   11.7758 N   0  0  0  0  0  0  0  0  0  0  0  0
   42.6896   -1.4652    8.3608 N   0  0  0  0  0  0  0  0  0  0  0  0
   39.3286   -2.5682   11.7653 O   0  0  0  0  0  0  0  0  0  0  0  0
   40.9116   -4.7783   12.5818 O   0  0  0  0  0  0  0  0  0  0  0  0
  1  2  1  0  0  0  0
  1 12  1  6  0  0  0
  1 13  1  0  0  0  0
  2  3  1  0  0  0  0
  2 10  1  6  0  0  0
  4  3  1  6  0  0  0
  4  5  1  0  0  0  0
  4 14  1  0  0  0  0
  5  6  1  0  0  0  0
  5 13  1  1  0  0  0
  6  7  1  0  0  0  0
  6 15  1  6  0  0  0
  7  8  1  0  0  0  0
  7 11  1  1  0  0  0
  8 14  1  0  0  0  0
  8 16  1  6  0  0  0
  9 11  1  0  0  0  0
 17 16  1  1  0  0  0
 17 18  1  0  0  0  0
 17 24  1  0  0  0  0
 18 19  1  0  0  0  0
 18 25  1  1  0  0  0
 19 20  1  0  0  0  0
 19 26  1  6  0  0  0
 20 21  1  0  0  0  0
 20 23  1  1  0  0  0
 21 22  1  6  0  0  0
 21 24  1  0  0  0  0
 22 27  1  0  0  0  0
 28 12  1  6  0  0  0
 28 29  1  0  0  0  0
 28 33  1  0  0  0  0
 29 30  1  0  0  0  0
 29 36  1  1  0  0  0
 30 31  1  0  0  0  0
 30 37  1  6  0  0  0
 31 32  1  0  0  0  0
 31 34  1  1  0  0  0
 32 33  1  0  0  0  0
 33 35  1  1  0  0  0
M  END
>  <CHROM.1>
-174.88666847,-74.96653462,-173.38102708,-167.89143032,-175.56217845,70.08072672
39.57968083,2.30337951,8.62857728,1.20505473,-0.90744334,2.47342684

>  <Name>
1yrj_lig

>  <RI>
0

>  <Rbt.Current_Directory>
/home/itssahil/PROJECTS/Mol_Feturizer/New_Systems/rnas/1yrj

>  <Rbt.Executable>
rbdock ($Id: //depot/dev/client3/rdock/2013.1/src/exe/rbdock.cxx#4 $)

>  <Rbt.Library>
libRbt.so (2013.1, Build901 2013/11/27)

>  <Rbt.Parameter_File>
/export/apps/rDock/src/rDock_2013.1_src/data/scripts/dock_solv.prm

>  <Rbt.Receptor>
prm/pocket_docking_5.prm

>  <SCORE>
-29.4121

>  <SCORE.INTER>
-23.3042

>  <SCORE.INTER.CONST>
1

>  <SCORE.INTER.POLAR>
-1.40025

>  <SCORE.INTER.ROT>
6

>  <SCORE.INTER.SOLV>
15.3819

>  <SCORE.INTER.VDW>
-23.596

>  <SCORE.INTER.norm>
-0.629843

>  <SCORE.INTRA>
-6.10794

>  <SCORE.INTRA.DIHEDRAL>
-13.752

>  <SCORE.INTRA.DIHEDRAL.0>
15.6389

>  <SCORE.INTRA.POLAR>
0

>  <SCORE.INTRA.POLAR.0>
0

>  <SCORE.INTRA.REPUL>
0

>  <SCORE.INTRA.REPUL.0>
0

>  <SCORE.INTRA.SOLV>
-2.55467

>  <SCORE.INTRA.SOLV.lig_0>
-90.9181

>  <SCORE.INTRA.VDW>
2.04542

>  <SCORE.INTRA.VDW.0>
-3.14158

>  <SCORE.INTRA.norm>
-0.165079

>  <SCORE.RESTR>
0

>  <SCORE.RESTR.CAVITY>
0

>  <SCORE.RESTR.norm>
0

>  <SCORE.SYSTEM>
0

>  <SCORE.SYSTEM.CONST>
0

>  <SCORE.SYSTEM.DIHEDRAL>
0

>  <SCORE.SYSTEM.SOLV>
0

>  <SCORE.SYSTEM.norm>
0

>  <SCORE.heavy>
37

>  <SCORE.norm>
-0.794923

>  <RMSD>
10.203

$$$$
1yrj_lig
 OpenBabel11021811423D
libRbt.so/2013.1/901 2013/11/27
 37 40  0  0  0  0  0  0  0  0999 V2000
   38.9732   -0.2396    9.5648 C   0  0  1  0  0  0  0  0  0  0  0  0
   37.8391   -0.0443    8.5395 C   0  0  1  0  0  0  0  0  0  0  0  0
   38.1210    1.1335    7.5931 C   0  0  0  0  0  0  0  0  0  0  0  0
   38.3861    2.4230    8.4131 C   0  0  1  0  0  0  0  0  0  0  0  0
   39.5583    2.1975    9.3869 C   0  0  1  0  0  0  0  0  0  0  0  0
   39.8165    3.5338   10.2027 C   0  0  1  0  0  0  0  0  0  0  0  0
   40.1453    4.6785    9.2307 C   0  0  1  0  0  0  0  0  0  0  0  0
   38.9607    4.8309    8.2458 C   0  0  2  0  0  0  0  0  0  0  0  0
   40.9446    7.1008    9.2108 C   0  0  0  0  0  0  0  0  0  0  0  0
   37.5815   -1.2693    7.7649 N   0  0  0  0  0  0  0  0  0  0  0  0
   40.4398    5.9303    9.9946 N   0  0  0  0  0  0  0  0  0  0  0  0
   40.1664   -0.8173    9.0030 O   0  0  0  0  0  0  0  0  0  0  0  0
   39.2305    1.0432   10.2480 O   0  0  0  0  0  0  0  0  0  0  0  0
   38.7019    3.5810    7.5460 O   0  0  0  0  0  0  0  0  0  0  0  0
   38.6402    3.8955   10.8956 O   0  0  0  0  0  0  0  0  0  0  0  0
   39.2107    5.8369    7.2634 O   0  0  0  0  0  0  0  0  0  0  0  0
   38.0660    6.1101    6.4216 C   0  0  2  0  0  0  0  0  0  0  0  0
   38.2138    5.5576    4.9945 C   0  0  1  0  0  0  0  0  0  0  0  0
   39.2994    6.3342    4.2031 C   0  0  2  0  0  0  0  0  0  0  0  0
   38.9569    7.8060    4.1687 C   0  0  1  0  0  0  0  0  0  0  0  0
   38.8445    8.3384    5.6169 C   0  0  1  0  0  0  0  0  0  0  0  0
   38.4519    9.8128    5.6772 C   0  0  0  0  0  0  0  0  0  0  0  0
   40.0090    8.5180    3.4140 N   0  0  0  0  0  0  0  0  0  0  0  0
   37.8209    7.5693    6.3472 O   0  0  0  0  0  0  0  0  0  0  0  0
   38.5043    4.1550    5.0808 O   0  0  0  0  0  0  0  0  0  0  0  0
   39.3583    5.8440    2.8565 O   0  0  0  0  0  0  0  0  0  0  0  0
   37.2349    9.9996    5.0050 O   0  0  0  0  0  0  0  0  0  0  0  0
   41.3189   -1.3607    9.8341 C   0  0  1  0  0  0  0  0  0  0  0  0
   40.8163   -2.6494   10.5216 C   0  0  1  0  0  0  0  0  0  0  0  0
   41.9429   -3.3208   11.3439 C   0  0  2  0  0  0  0  0  0  0  0  0
   43.1296   -3.6538   10.4319 C   0  0  1  0  0  0  0  0  0  0  0  0
   43.6682   -2.3633    9.7632 C   0  0  0  0  0  0  0  0  0  0  0  0
   42.5429   -1.7247    8.9424 C   0  0  2  0  0  0  0  0  0  0  0  0
   44.2071   -4.2851   11.2263 N   0  0  0  0  0  0  0  0  0  0  0  0
   43.0931   -0.5256    8.3160 N   0  0  0  0  0  0  0  0  0  0  0  0
   39.7304   -2.3152   11.4133 O   0  0  0  0  0  0  0  0  0  0  0  0
   41.4264   -4.5291   11.9421 O   0  0  0  0  0  0  0  0  0  0  0  0
  1  2  1  0  0  0  0
  1 12  1  6  0  0  0
  1 13  1  0  0  0  0
  2  3  1  0  0  0  0
  2 10  1  6  0  0  0
  4  3  1  6  0  0  0
  4  5  1  0  0  0  0
  4 14  1  0  0  0  0
  5  6  1  0  0  0  0
  5 13  1  1  0  0  0
  6  7  1  0  0  0  0
  6 15  1  6  0  0  0
  7  8  1  0  0  0  0
  7 11  1  1  0  0  0
  8 14  1  0  0  0  0
  8 16  1  6  0  0  0
  9 11  1  0  0  0  0
 17 16  1  1  0  0  0
 17 18  1  0  0  0  0
 17 24  1  0  0  0  0
 18 19  1  0  0  0  0
 18 25  1  1  0  0  0
 19 20  1  0  0  0  0
 19 26  1  6  0  0  0
 20 21  1  0  0  0  0
 20 23  1  6  0  0  0
 21 22  1  6  0  0  0
 21 24  1  0  0  0  0
 22 27  1  0  0  0  0
 28 12  1  6  0  0  0
 28 29  1  0  0  0  0
 28 33  1  0  0  0  0
 29 30  1  0  0  0  0
 29 36  1  1  0  0  0
 30 31  1  0  0  0  0
 30 37  1  6  0  0  0
 31 32  1  0  0  0  0
 31 34  1  1  0  0  0
 32 33  1  0  0  0  0
 33 35  1  1  0  0  0
M  END
>  <CHROM.1>
-167.56310622,172.65553568,-173.41985077,-106.93655273,57.35986966,69.86727498
39.79241328,2.66539320,8.11663870,0.25988051,-1.31402326,1.38257534

>  <Name>
1yrj_lig

>  <RI>
0

>  <Rbt.Current_Directory>
/home/itssahil/PROJECTS/Mol_Feturizer/New_Systems/rnas/1yrj

>  <Rbt.Executable>
rbdock ($Id: //depot/dev/client3/rdock/2013.1/src/exe/rbdock.cxx#4 $)

>  <Rbt.Library>
libRbt.so (2013.1, Build901 2013/11/27)

>  <Rbt.Parameter_File>
/export/apps/rDock/src/rDock_2013.1_src/data/scripts/dock_solv.prm

>  <Rbt.Receptor>
prm/pocket_docking_5.prm

>  <SCORE>
-21.2203

>  <SCORE.INTER>
-17.7883

>  <SCORE.INTER.CONST>
1

>  <SCORE.INTER.POLAR>
-0.94133

>  <SCORE.INTER.ROT>
6

>  <SCORE.INTER.SOLV>
14.0309

>  <SCORE.INTER.VDW>
-20.9981

>  <SCORE.INTER.norm>
-0.480765

>  <SCORE.INTRA>
-3.43203

>  <SCORE.INTRA.DIHEDRAL>
-7.69433

>  <SCORE.INTRA.DIHEDRAL.0>
15.6389

>  <SCORE.INTRA.POLAR>
0

>  <SCORE.INTRA.POLAR.0>
0

>  <SCORE.INTRA.REPUL>
0

>  <SCORE.INTRA.REPUL.0>
0

>  <SCORE.INTRA.SOLV>
-1.62556

>  <SCORE.INTRA.SOLV.lig_0>
-90.9181

>  <SCORE.INTRA.VDW>
1.22791

>  <SCORE.INTRA.VDW.0>
-3.14158

>  <SCORE.INTRA.norm>
-0.0927576

>  <SCORE.RESTR>
0

>  <SCORE.RESTR.CAVITY>
0

>  <SCORE.RESTR.norm>
0

>  <SCORE.SYSTEM>
0

>  <SCORE.SYSTEM.CONST>
0

>  <SCORE.SYSTEM.DIHEDRAL>
0

>  <SCORE.SYSTEM.SOLV>
0

>  <SCORE.SYSTEM.norm>
0

>  <SCORE.heavy>
37

>  <SCORE.norm>
-0.573522

>  <RMSD>
10.205

$$$$
1yrj_lig
 OpenBabel11021811423D
libRbt.so/2013.1/901 2013/11/27
 37 40  0  0  0  0  0  0  0  0999 V2000
   38.5008   -0.8699    9.6919 C   0  0  1  0  0  0  0  0  0  0  0  0
   37.4298   -0.6026    8.6163 C   0  0  1  0  0  0  0  0  0  0  0  0
   37.8883    0.4603    7.6051 C   0  0  0  0  0  0  0  0  0  0  0  0
   38.2974    1.7592    8.3475 C   0  0  1  0  0  0  0  0  0  0  0  0
   39.4036    1.4535    9.3751 C   0  0  1  0  0  0  0  0  0  0  0  0
   39.8122    2.7992   10.1100 C   0  0  1  0  0  0  0  0  0  0  0  0
   40.3135    3.8216    9.0771 C   0  0  1  0  0  0  0  0  0  0  0  0
   39.1857    4.0558    8.0428 C   0  0  2  0  0  0  0  0  0  0  0  0
   39.6694    5.9867   10.2620 C   0  0  0  0  0  0  0  0  0  0  0  0
   37.0352   -1.8354    7.9152 N   0  0  0  0  0  0  0  0  0  0  0  0
   40.7483    5.0755    9.7671 N   0  0  0  0  0  0  0  0  0  0  0  0
   39.6230   -1.6338    9.2121 O   0  0  0  0  0  0  0  0  0  0  0  0
   38.9050    0.4139   10.2980 O   0  0  0  0  0  0  0  0  0  0  0  0
   38.7848    2.8037    7.4179 O   0  0  0  0  0  0  0  0  0  0  0  0
   38.6750    3.3564   10.7352 O   0  0  0  0  0  0  0  0  0  0  0  0
   39.5910    4.9503    7.0060 O   0  0  0  0  0  0  0  0  0  0  0  0
   38.4968    5.3809    6.1629 C   0  0  2  0  0  0  0  0  0  0  0  0
   38.9539    6.1855    4.9352 C   0  0  1  0  0  0  0  0  0  0  0  0
   39.5122    7.5724    5.3509 C   0  0  2  0  0  0  0  0  0  0  0  0
   38.4640    8.3377    6.1259 C   0  0  1  0  0  0  0  0  0  0  0  0
   38.0469    7.5166    7.3690 C   0  0  1  0  0  0  0  0  0  0  0  0
   36.9514    8.1962    8.1874 C   0  0  0  0  0  0  0  0  0  0  0  0
   39.0256    9.6491    6.5110 N   0  0  0  0  0  0  0  0  0  0  0  0
   37.5399    6.1998    6.9431 O   0  0  0  0  0  0  0  0  0  0  0  0
   39.9202    5.4046    4.2172 O   0  0  0  0  0  0  0  0  0  0  0  0
   39.8585    8.3241    4.1796 O   0  0  0  0  0  0  0  0  0  0  0  0
   36.7105    7.4532    9.3526 O   0  0  0  0  0  0  0  0  0  0  0  0
   40.7433   -2.1480   10.1037 C   0  0  1  0  0  0  0  0  0  0  0  0
   40.1550   -3.2908   10.9604 C   0  0  1  0  0  0  0  0  0  0  0  0
   41.2396   -3.9307   11.8606 C   0  0  2  0  0  0  0  0  0  0  0  0
   42.3843   -4.4728   10.9964 C   0  0  1  0  0  0  0  0  0  0  0  0
   43.0089   -3.3284   10.1580 C   0  0  0  0  0  0  0  0  0  0  0  0
   41.9231   -2.7208    9.2637 C   0  0  2  0  0  0  0  0  0  0  0  0
   43.4226   -5.0730   11.8638 N   0  0  0  0  0  0  0  0  0  0  0  0
   42.5530   -1.6621    8.4794 N   0  0  0  0  0  0  0  0  0  0  0  0
   39.1105   -2.7581   11.8038 O   0  0  0  0  0  0  0  0  0  0  0  0
   40.6421   -5.0049   12.6180 O   0  0  0  0  0  0  0  0  0  0  0  0
  1  2  1  0  0  0  0
  1 12  1  6  0  0  0
  1 13  1  0  0  0  0
  2  3  1  0  0  0  0
  2 10  1  6  0  0  0
  4  3  1  6  0  0  0
  4  5  1  0  0  0  0
  4 14  1  0  0  0  0
  5  6  1  0  0  0  0
  5 13  1  1  0  0  0
  6  7  1  0  0  0  0
  6 15  1  6  0  0  0
  7  8  1  0  0  0  0
  7 11  1  1  0  0  0
  8 14  1  0  0  0  0
  8 16  1  6  0  0  0
  9 11  1  0  0  0  0
 17 16  1  1  0  0  0
 17 18  1  0  0  0  0
 17 24  1  0  0  0  0
 18 19  1  0  0  0  0
 18 25  1  1  0  0  0
 19 20  1  0  0  0  0
 19 26  1  6  0  0  0
 20 21  1  0  0  0  0
 20 23  1  1  0  0  0
 21 22  1  6  0  0  0
 21 24  1  0  0  0  0
 22 27  1  0  0  0  0
 28 12  1  6  0  0  0
 28 29  1  0  0  0  0
 28 33  1  0  0  0  0
 29 30  1  0  0  0  0
 29 36  1  1  0  0  0
 30 31  1  0  0  0  0
 30 37  1  6  0  0  0
 31 32  1  0  0  0  0
 31 34  1  1  0  0  0
 32 33  1  0  0  0  0
 33 35  1  1  0  0  0
M  END
>  <CHROM.1>
-173.67314598,-75.64779731,-169.42986325,-172.09076449,-174.92258722,71.35765066
39.50559306,2.14441302,8.67249058,1.24486132,-0.90890257,2.50776171

>  <Name>
1yrj_lig

>  <RI>
0

>  <Rbt.Current_Directory>
/home/itssahil/PROJECTS/Mol_Feturizer/New_Systems/rnas/1yrj

>  <Rbt.Executable>
rbdock ($Id: //depot/dev/client3/rdock/2013.1/src/exe/rbdock.cxx#4 $)

>  <Rbt.Library>
libRbt.so (2013.1, Build901 2013/11/27)

>  <Rbt.Parameter_File>
/export/apps/rDock/src/rDock_2013.1_src/data/scripts/dock_solv.prm

>  <Rbt.Receptor>
prm/pocket_docking_5.prm

>  <SCORE>
-29.5015

>  <SCORE.INTER>
-23.3709

>  <SCORE.INTER.CONST>
1

>  <SCORE.INTER.POLAR>
-1.35732

>  <SCORE.INTER.ROT>
6

>  <SCORE.INTER.SOLV>
15.5702

>  <SCORE.INTER.VDW>
-23.8463

>  <SCORE.INTER.norm>
-0.631646

>  <SCORE.INTRA>
-6.13061

>  <SCORE.INTRA.DIHEDRAL>
-13.5922

>  <SCORE.INTRA.DIHEDRAL.0>
15.6389

>  <SCORE.INTRA.POLAR>
0

>  <SCORE.INTRA.POLAR.0>
0

>  <SCORE.INTRA.REPUL>
0

>  <SCORE.INTRA.REPUL.0>
0

>  <SCORE.INTRA.SOLV>
-2.42306

>  <SCORE.INTRA.SOLV.lig_0>
-90.9181

>  <SCORE.INTRA.VDW>
1.87702

>  <SCORE.INTRA.VDW.0>
-3.14158

>  <SCORE.INTRA.norm>
-0.165692

>  <SCORE.RESTR>
0

>  <SCORE.RESTR.CAVITY>
0

>  <SCORE.RESTR.norm>
0

>  <SCORE.SYSTEM>
0

>  <SCORE.SYSTEM.CONST>
0

>  <SCORE.SYSTEM.DIHEDRAL>
0

>  <SCORE.SYSTEM.SOLV>
0

>  <SCORE.SYSTEM.norm>
0

>  <SCORE.heavy>
37

>  <SCORE.norm>
-0.797338

>  <RMSD>
10.219

$$$$
1yrj_lig
 OpenBabel11021811423D
libRbt.so/2013.1/901 2013/11/27
 37 40  0  0  0  0  0  0  0  0999 V2000
   40.3450    1.6056    9.5938 C   0  0  1  0  0  0  0  0  0  0  0  0
   39.0122    1.8663    8.8650 C   0  0  1  0  0  0  0  0  0  0  0  0
   39.0176    3.2160    8.1297 C   0  0  0  0  0  0  0  0  0  0  0  0
   39.3681    4.3587    9.1181 C   0  0  1  0  0  0  0  0  0  0  0  0
   40.7292    4.0813    9.7841 C   0  0  1  0  0  0  0  0  0  0  0  0
   41.0693    5.2699   10.7789 C   0  0  1  0  0  0  0  0  0  0  0  0
   41.1171    6.5965   10.0034 C   0  0  1  0  0  0  0  0  0  0  0  0
   39.7461    6.8030    9.3149 C   0  0  2  0  0  0  0  0  0  0  0  0
   42.7947    7.5989   11.6427 C   0  0  0  0  0  0  0  0  0  0  0  0
   38.6744    0.7794    7.9315 N   0  0  0  0  0  0  0  0  0  0  0  0
   41.4869    7.7152   10.9248 N   0  0  0  0  0  0  0  0  0  0  0  0
   41.4280    1.2590    8.7106 O   0  0  0  0  0  0  0  0  0  0  0  0
   40.6597    2.7653   10.4509 O   0  0  0  0  0  0  0  0  0  0  0  0
   39.4244    5.6783    8.4486 O   0  0  0  0  0  0  0  0  0  0  0  0
   40.0434    5.3833   11.7428 O   0  0  0  0  0  0  0  0  0  0  0  0
   39.7233    7.9877    8.5177 O   0  0  0  0  0  0  0  0  0  0  0  0
   38.5001    8.7476    8.6585 C   0  0  2  0  0  0  0  0  0  0  0  0
   37.2819    8.0657    8.0146 C   0  0  1  0  0  0  0  0  0  0  0  0
   37.3972    8.0588    6.4671 C   0  0  2  0  0  0  0  0  0  0  0  0
   37.5443    9.4736    5.9558 C   0  0  1  0  0  0  0  0  0  0  0  0
   38.7935   10.1217    6.5983 C   0  0  1  0  0  0  0  0  0  0  0  0
   38.9920   11.5748    6.1729 C   0  0  0  0  0  0  0  0  0  0  0  0
   37.6562    9.4339    4.4830 N   0  0  0  0  0  0  0  0  0  0  0  0
   38.6629   10.0958    8.0662 O   0  0  0  0  0  0  0  0  0  0  0  0
   37.1664    6.7419    8.5561 O   0  0  0  0  0  0  0  0  0  0  0  0
   36.2128    7.4846    5.8975 O   0  0  0  0  0  0  0  0  0  0  0  0
   40.1592   12.0792    6.7654 O   0  0  0  0  0  0  0  0  0  0  0  0
   42.8150    0.8540    9.1865 C   0  0  1  0  0  0  0  0  0  0  0  0
   42.6966   -0.5690    9.7756 C   0  0  1  0  0  0  0  0  0  0  0  0
   44.0765   -1.1030   10.2303 C   0  0  2  0  0  0  0  0  0  0  0  0
   45.0493   -1.1164    9.0451 C   0  0  1  0  0  0  0  0  0  0  0  0
   45.2063    0.3130    8.4666 C   0  0  0  0  0  0  0  0  0  0  0  0
   43.8330    0.8151    8.0084 C   0  0  2  0  0  0  0  0  0  0  0  0
   46.3692   -1.6174    9.4892 N   0  0  0  0  0  0  0  0  0  0  0  0
   44.0256    2.1529    7.4553 N   0  0  0  0  0  0  0  0  0  0  0  0
   41.8155   -0.5338   10.9195 O   0  0  0  0  0  0  0  0  0  0  0  0
   43.9110   -2.4407   10.7476 O   0  0  0  0  0  0  0  0  0  0  0  0
  1  2  1  0  0  0  0
  1 12  1  6  0  0  0
  1 13  1  0  0  0  0
  2  3  1  0  0  0  0
  2 10  1  6  0  0  0
  4  3  1  6  0  0  0
  4  5  1  0  0  0  0
  4 14  1  0  0  0  0
  5  6  1  0  0  0  0
  5 13  1  1  0  0  0
  6  7  1  0  0  0  0
  6 15  1  1  0  0  0
  7  8  1  0  0  0  0
  7 11  1  1  0  0  0
  8 14  1  0  0  0  0
  8 16  1  6  0  0  0
  9 11  1  0  0  0  0
 17 16  1  6  0  0  0
 17 18  1  0  0  0  0
 17 24  1  0  0  0  0
 18 19  1  0  0  0  0
 18 25  1  1  0  0  0
 19 20  1  0  0  0  0
 19 26  1  6  0  0  0
 20 21  1  0  0  0  0
 20 23  1  6  0  0  0
 21 22  1  6  0  0  0
 21 24  1  0  0  0  0
 22 27  1  0  0  0  0
 28 12  1  6  0  0  0
 28 29  1  0  0  0  0
 28 33  1  0  0  0  0
 29 30  1  0  0  0  0
 29 36  1  1  0  0  0
 30 31  1  0  0  0  0
 30 37  1  6  0  0  0
 31 32  1  0  0  0  0
 31 34  1  1  0  0  0
 32 33  1  0  0  0  0
 33 35  1  1  0  0  0
M  END
>  <CHROM.1>
-175.25946584,58.53258309,-137.47714176,-70.76219098,-178.41208272,72.81466897
40.59394742,4.67369427,8.74184025,1.03356306,0.50226669,-3.10154592

>  <Name>
1yrj_lig

>  <RI>
0

>  <Rbt.Current_Directory>
/home/itssahil/PROJECTS/Mol_Feturizer/New_Systems/rnas/1yrj

>  <Rbt.Executable>
rbdock ($Id: //depot/dev/client3/rdock/2013.1/src/exe/rbdock.cxx#4 $)

>  <Rbt.Library>
libRbt.so (2013.1, Build901 2013/11/27)

>  <Rbt.Parameter_File>
/export/apps/rDock/src/rDock_2013.1_src/data/scripts/dock_solv.prm

>  <Rbt.Receptor>
prm/pocket_docking_7.prm

>  <SCORE>
-22.1477

>  <SCORE.INTER>
-18.8991

>  <SCORE.INTER.CONST>
1

>  <SCORE.INTER.POLAR>
-0.479528

>  <SCORE.INTER.ROT>
6

>  <SCORE.INTER.SOLV>
21.9822

>  <SCORE.INTER.VDW>
-25.9284

>  <SCORE.INTER.norm>
-0.510787

>  <SCORE.INTRA>
-3.24859

>  <SCORE.INTRA.DIHEDRAL>
-8.30232

>  <SCORE.INTRA.DIHEDRAL.0>
15.6389

>  <SCORE.INTRA.POLAR>
0

>  <SCORE.INTRA.POLAR.0>
0

>  <SCORE.INTRA.REPUL>
0

>  <SCORE.INTRA.REPUL.0>
0

>  <SCORE.INTRA.SOLV>
-2.07142

>  <SCORE.INTRA.SOLV.lig_0>
-90.9181

>  <SCORE.INTRA.VDW>
1.93828

>  <SCORE.INTRA.VDW.0>
-3.14158

>  <SCORE.INTRA.norm>
-0.0877997

>  <SCORE.RESTR>
0

>  <SCORE.RESTR.CAVITY>
0

>  <SCORE.RESTR.norm>
0

>  <SCORE.SYSTEM>
0

>  <SCORE.SYSTEM.CONST>
0

>  <SCORE.SYSTEM.DIHEDRAL>
0

>  <SCORE.SYSTEM.SOLV>
0

>  <SCORE.SYSTEM.norm>
0

>  <SCORE.heavy>
37

>  <SCORE.norm>
-0.598586

>  <RMSD>
10.221

$$$$
1yrj_lig
 OpenBabel11021811423D
libRbt.so/2013.1/901 2013/11/27
 37 40  0  0  0  0  0  0  0  0999 V2000
   39.0739   -0.6317    9.3565 C   0  0  1  0  0  0  0  0  0  0  0  0
   37.9087   -0.4033    8.3738 C   0  0  1  0  0  0  0  0  0  0  0  0
   38.1633    0.8033    7.4563 C   0  0  0  0  0  0  0  0  0  0  0  0
   38.4564    2.0662    8.3076 C   0  0  1  0  0  0  0  0  0  0  0  0
   39.6579    1.8091    9.2367 C   0  0  1  0  0  0  0  0  0  0  0  0
   39.9442    3.1190   10.0855 C   0  0  1  0  0  0  0  0  0  0  0  0
   40.2447    4.2933    9.1400 C   0  0  1  0  0  0  0  0  0  0  0  0
   39.0302    4.4777    8.1979 C   0  0  2  0  0  0  0  0  0  0  0  0
   41.7809    5.4668   10.8041 C   0  0  0  0  0  0  0  0  0  0  0  0
   37.6246   -1.6031    7.5696 N   0  0  0  0  0  0  0  0  0  0  0  0
   40.5653    5.5202    9.9331 N   0  0  0  0  0  0  0  0  0  0  0  0
   40.2479   -1.1927    8.7398 O   0  0  0  0  0  0  0  0  0  0  0  0
   39.3549    0.6288   10.0712 O   0  0  0  0  0  0  0  0  0  0  0  0
   38.7472    3.2506    7.4677 O   0  0  0  0  0  0  0  0  0  0  0  0
   38.7908    3.4599   10.8258 O   0  0  0  0  0  0  0  0  0  0  0  0
   39.2513    5.5137    7.2401 O   0  0  0  0  0  0  0  0  0  0  0  0
   38.0761    5.8276    6.4566 C   0  0  2  0  0  0  0  0  0  0  0  0
   38.1785    5.3667    4.9935 C   0  0  1  0  0  0  0  0  0  0  0  0
   39.2301    6.2019    4.2157 C   0  0  2  0  0  0  0  0  0  0  0  0
   38.8752    7.6695    4.2854 C   0  0  1  0  0  0  0  0  0  0  0  0
   38.8090    8.1093    5.7672 C   0  0  1  0  0  0  0  0  0  0  0  0
   38.4074    9.5732    5.9332 C   0  0  0  0  0  0  0  0  0  0  0  0
   39.8950    8.4375    3.5414 N   0  0  0  0  0  0  0  0  0  0  0  0
   37.8173    7.2861    6.4823 O   0  0  0  0  0  0  0  0  0  0  0  0
   38.4827    3.9644    4.9817 O   0  0  0  0  0  0  0  0  0  0  0  0
   39.2460    5.7972    2.8399 O   0  0  0  0  0  0  0  0  0  0  0  0
   37.1699    9.7912    5.3096 O   0  0  0  0  0  0  0  0  0  0  0  0
   41.2701   -2.0437    9.4782 C   0  0  1  0  0  0  0  0  0  0  0  0
   41.7518   -3.1326    8.4942 C   0  0  1  0  0  0  0  0  0  0  0  0
   42.8511   -4.0163    9.1319 C   0  0  2  0  0  0  0  0  0  0  0  0
   44.0398   -3.1470    9.5589 C   0  0  1  0  0  0  0  0  0  0  0  0
   43.5775   -2.0721   10.5757 C   0  0  0  0  0  0  0  0  0  0  0  0
   42.5026   -1.1996    9.9190 C   0  0  2  0  0  0  0  0  0  0  0  0
   45.0819   -3.9964   10.1777 N   0  0  0  0  0  0  0  0  0  0  0  0
   42.1073   -0.1917   10.8991 N   0  0  0  0  0  0  0  0  0  0  0  0
   40.6332   -3.9734    8.1370 O   0  0  0  0  0  0  0  0  0  0  0  0
   43.2804   -4.9973    8.1634 O   0  0  0  0  0  0  0  0  0  0  0  0
  1  2  1  0  0  0  0
  1 12  1  6  0  0  0
  1 13  1  0  0  0  0
  2  3  1  0  0  0  0
  2 10  1  6  0  0  0
  4  3  1  6  0  0  0
  4  5  1  0  0  0  0
  4 14  1  0  0  0  0
  5  6  1  0  0  0  0
  5 13  1  1  0  0  0
  6  7  1  0  0  0  0
  6 15  1  6  0  0  0
  7  8  1  0  0  0  0
  7 11  1  1  0  0  0
  8 14  1  0  0  0  0
  8 16  1  6  0  0  0
  9 11  1  0  0  0  0
 17 16  1  1  0  0  0
 17 18  1  0  0  0  0
 17 24  1  0  0  0  0
 18 19  1  0  0  0  0
 18 25  1  1  0  0  0
 19 20  1  0  0  0  0
 19 26  1  6  0  0  0
 20 21  1  0  0  0  0
 20 23  1  6  0  0  0
 21 22  1  6  0  0  0
 21 24  1  0  0  0  0
 22 27  1  0  0  0  0
 28 12  1  6  0  0  0
 28 29  1  0  0  0  0
 28 33  1  0  0  0  0
 29 30  1  0  0  0  0
 29 36  1  1  0  0  0
 30 31  1  0  0  0  0
 30 37  1  6  0  0  0
 31 32  1  0  0  0  0
 31 34  1  1  0  0  0
 32 33  1  0  0  0  0
 33 35  1  1  0  0  0
M  END
>  <CHROM.1>
-152.87673380,62.88399727,-172.57881607,-108.99899719,57.03807947,143.48342677
39.98050597,2.35079575,7.87507726,0.73849602,1.14051842,-2.71523905

>  <Name>
1yrj_lig

>  <RI>
0

>  <Rbt.Current_Directory>
/home/itssahil/PROJECTS/Mol_Feturizer/New_Systems/rnas/1yrj

>  <Rbt.Executable>
rbdock ($Id: //depot/dev/client3/rdock/2013.1/src/exe/rbdock.cxx#4 $)

>  <Rbt.Library>
libRbt.so (2013.1, Build901 2013/11/27)

>  <Rbt.Parameter_File>
/export/apps/rDock/src/rDock_2013.1_src/data/scripts/dock_solv.prm

>  <Rbt.Receptor>
prm/pocket_docking_8.prm

>  <SCORE>
-17.3893

>  <SCORE.INTER>
-17.9574

>  <SCORE.INTER.CONST>
1

>  <SCORE.INTER.POLAR>
-1.15339

>  <SCORE.INTER.ROT>
6

>  <SCORE.INTER.SOLV>
16.3592

>  <SCORE.INTER.VDW>
-21.18

>  <SCORE.INTER.norm>
-0.485335

>  <SCORE.INTRA>
0.568101

>  <SCORE.INTRA.DIHEDRAL>
-0.837654

>  <SCORE.INTRA.DIHEDRAL.0>
15.6389

>  <SCORE.INTRA.POLAR>
0

>  <SCORE.INTRA.POLAR.0>
0

>  <SCORE.INTRA.REPUL>
0

>  <SCORE.INTRA.REPUL.0>
0

>  <SCORE.INTRA.SOLV>
0.760829

>  <SCORE.INTRA.SOLV.lig_0>
-90.9181

>  <SCORE.INTRA.VDW>
0.606513

>  <SCORE.INTRA.VDW.0>
-3.14158

>  <SCORE.INTRA.norm>
0.0153541

>  <SCORE.RESTR>
0

>  <SCORE.RESTR.CAVITY>
0

>  <SCORE.RESTR.norm>
0

>  <SCORE.SYSTEM>
0

>  <SCORE.SYSTEM.CONST>
0

>  <SCORE.SYSTEM.DIHEDRAL>
0

>  <SCORE.SYSTEM.SOLV>
0

>  <SCORE.SYSTEM.norm>
0

>  <SCORE.heavy>
37

>  <SCORE.norm>
-0.469981

>  <RMSD>
10.221

$$$$
1yrj_lig
 OpenBabel11021811423D
libRbt.so/2013.1/901 2013/11/27
 37 40  0  0  0  0  0  0  0  0999 V2000
   39.5579    0.4578    9.6275 C   0  0  1  0  0  0  0  0  0  0  0  0
   38.2582    0.3788    8.8029 C   0  0  1  0  0  0  0  0  0  0  0  0
   38.2023    1.4669    7.7188 C   0  0  0  0  0  0  0  0  0  0  0  0
   38.3953    2.8662    8.3593 C   0  0  1  0  0  0  0  0  0  0  0  0
   39.7286    2.9147    9.1295 C   0  0  1  0  0  0  0  0  0  0  0  0
   39.9071    4.3586    9.7628 C   0  0  1  0  0  0  0  0  0  0  0  0
   39.8979    5.4175    8.6484 C   0  0  1  0  0  0  0  0  0  0  0  0
   38.5619    5.2942    7.8762 C   0  0  2  0  0  0  0  0  0  0  0  0
   41.4197    7.0159    9.9273 C   0  0  0  0  0  0  0  0  0  0  0  0
   38.0699   -0.9508    8.1997 N   0  0  0  0  0  0  0  0  0  0  0  0
   40.1163    6.7773    9.2322 N   0  0  0  0  0  0  0  0  0  0  0  0
   40.7200   -0.0145    8.9205 O   0  0  0  0  0  0  0  0  0  0  0  0
   39.7225    1.8337   10.1359 O   0  0  0  0  0  0  0  0  0  0  0  0
   38.3882    3.9486    7.3488 O   0  0  0  0  0  0  0  0  0  0  0  0
   38.8154    4.6356   10.6149 O   0  0  0  0  0  0  0  0  0  0  0  0
   38.4953    6.2047    6.7780 O   0  0  0  0  0  0  0  0  0  0  0  0
   37.2955    7.0136    6.7785 C   0  0  2  0  0  0  0  0  0  0  0  0
   37.2203    7.9924    5.5953 C   0  0  1  0  0  0  0  0  0  0  0  0
   38.2817    9.1164    5.7303 C   0  0  2  0  0  0  0  0  0  0  0  0
   38.0906    9.8500    7.0380 C   0  0  1  0  0  0  0  0  0  0  0  0
   38.2011    8.8446    8.2086 C   0  0  1  0  0  0  0  0  0  0  0  0
   37.9718    9.4946    9.5713 C   0  0  0  0  0  0  0  0  0  0  0  0
   39.1165   10.9087    7.1395 N   0  0  0  0  0  0  0  0  0  0  0  0
   37.1948    7.7807    8.0419 O   0  0  0  0  0  0  0  0  0  0  0  0
   37.3731    7.2449    4.3800 O   0  0  0  0  0  0  0  0  0  0  0  0
   38.1344   10.0512    4.6526 O   0  0  0  0  0  0  0  0  0  0  0  0
   39.0317   10.3684    9.8558 O   0  0  0  0  0  0  0  0  0  0  0  0
   42.0622   -0.2895    9.5817 C   0  0  1  0  0  0  0  0  0  0  0  0
   42.1153   -1.8017    9.8922 C   0  0  1  0  0  0  0  0  0  0  0  0
   43.4779   -2.1985   10.5101 C   0  0  2  0  0  0  0  0  0  0  0  0
   44.6154   -1.8305    9.5499 C   0  0  1  0  0  0  0  0  0  0  0  0
   44.5968   -0.3083    9.2583 C   0  0  0  0  0  0  0  0  0  0  0  0
   43.2471    0.0593    8.6330 C   0  0  2  0  0  0  0  0  0  0  0  0
   45.9155   -2.2024   10.1514 N   0  0  0  0  0  0  0  0  0  0  0  0
   43.2758    1.4932    8.3574 N   0  0  0  0  0  0  0  0  0  0  0  0
   41.0694   -2.1266   10.8338 O   0  0  0  0  0  0  0  0  0  0  0  0
   43.4813   -3.6212   10.7562 O   0  0  0  0  0  0  0  0  0  0  0  0
  1  2  1  0  0  0  0
  1 12  1  6  0  0  0
  1 13  1  0  0  0  0
  2  3  1  0  0  0  0
  2 10  1  6  0  0  0
  4  3  1  6  0  0  0
  4  5  1  0  0  0  0
  4 14  1  0  0  0  0
  5  6  1  0  0  0  0
  5 13  1  1  0  0  0
  6  7  1  0  0  0  0
  6 15  1  1  0  0  0
  7  8  1  0  0  0  0
  7 11  1  1  0  0  0
  8 14  1  0  0  0  0
  8 16  1  6  0  0  0
  9 11  1  0  0  0  0
 17 16  1  1  0  0  0
 17 18  1  0  0  0  0
 17 24  1  0  0  0  0
 18 19  1  0  0  0  0
 18 25  1  6  0  0  0
 19 20  1  0  0  0  0
 19 26  1  6  0  0  0
 20 21  1  0  0  0  0
 20 23  1  1  0  0  0
 21 22  1  1  0  0  0
 21 24  1  0  0  0  0
 22 27  1  0  0  0  0
 28 12  1  6  0  0  0
 28 29  1  0  0  0  0
 28 33  1  0  0  0  0
 29 30  1  0  0  0  0
 29 36  1  1  0  0  0
 30 31  1  0  0  0  0
 30 37  1  6  0  0  0
 31 32  1  0  0  0  0
 31 34  1  1  0  0  0
 32 33  1  0  0  0  0
 33 35  1  1  0  0  0
M  END
>  <CHROM.1>
-167.96806559,62.44648130,-127.89799691,-179.87298089,-67.94415968,96.20610883
39.97673340,3.77743350,8.52914247,1.11963973,0.46770675,3.10360623

>  <Name>
1yrj_lig

>  <RI>
224

>  <Rbt.Current_Directory>
/home/itssahil/PROJECTS/Mol_Feturizer/New_Systems/rnas/1yrj

>  <Rbt.Executable>
rbdock ($Id: //depot/dev/client3/rdock/2013.1/src/exe/rbdock.cxx#4 $)

>  <Rbt.Library>
libRbt.so (2013.1, Build901 2013/11/27)

>  <Rbt.Parameter_File>
/export/apps/rDock/src/rDock_2013.1_src/data/scripts/dock_solv.prm

>  <Rbt.Receptor>
prm/pocket_docking_2.prm

>  <SCORE>
-19.9386

>  <SCORE.INTER>
-20.4933

>  <SCORE.INTER.CONST>
1

>  <SCORE.INTER.POLAR>
-1.39002

>  <SCORE.INTER.ROT>
6

>  <SCORE.INTER.SOLV>
13.8606

>  <SCORE.INTER.VDW>
-21.249

>  <SCORE.INTER.norm>
-0.553873

>  <SCORE.INTRA>
-1.36161

>  <SCORE.INTRA.DIHEDRAL>
-3.0146

>  <SCORE.INTRA.DIHEDRAL.0>
15.6389

>  <SCORE.INTRA.POLAR>
0

>  <SCORE.INTRA.POLAR.0>
0

>  <SCORE.INTRA.REPUL>
0

>  <SCORE.INTRA.REPUL.0>
0

>  <SCORE.INTRA.SOLV>
0.568237

>  <SCORE.INTRA.SOLV.lig_0>
-90.9181

>  <SCORE.INTRA.VDW>
-0.138433

>  <SCORE.INTRA.VDW.0>
-3.14158

>  <SCORE.INTRA.norm>
-0.0368004

>  <SCORE.RESTR>
1.91636

>  <SCORE.RESTR.CAVITY>
1.91636

>  <SCORE.RESTR.norm>
0.0517936

>  <SCORE.SYSTEM>
0

>  <SCORE.SYSTEM.CONST>
0

>  <SCORE.SYSTEM.DIHEDRAL>
0

>  <SCORE.SYSTEM.SOLV>
0

>  <SCORE.SYSTEM.norm>
0

>  <SCORE.heavy>
37

>  <SCORE.norm>
-0.53888

>  <RMSD>
10.222

$$$$
1yrj_lig
 OpenBabel11021811423D
libRbt.so/2013.1/901 2013/11/27
 37 40  0  0  0  0  0  0  0  0999 V2000
   39.6736    1.4274    9.4846 C   0  0  1  0  0  0  0  0  0  0  0  0
   38.2672    1.7891    8.9681 C   0  0  1  0  0  0  0  0  0  0  0  0
   38.2742    3.0962    8.1595 C   0  0  0  0  0  0  0  0  0  0  0  0
   38.8908    4.2412    9.0048 C   0  0  1  0  0  0  0  0  0  0  0  0
   40.3128    3.8572    9.4559 C   0  0  1  0  0  0  0  0  0  0  0  0
   40.9245    5.0491   10.3064 C   0  0  1  0  0  0  0  0  0  0  0  0
   40.9642    6.3271    9.4528 C   0  0  1  0  0  0  0  0  0  0  0  0
   39.5220    6.6407    8.9856 C   0  0  2  0  0  0  0  0  0  0  0  0
   40.7133    8.1500   11.2192 C   0  0  0  0  0  0  0  0  0  0  0  0
   37.6776    0.7008    8.1713 N   0  0  0  0  0  0  0  0  0  0  0  0
   41.5861    7.4432   10.2305 N   0  0  0  0  0  0  0  0  0  0  0  0
   40.5555    0.9323    8.4597 O   0  0  0  0  0  0  0  0  0  0  0  0
   40.2346    2.5870   10.2053 O   0  0  0  0  0  0  0  0  0  0  0  0
   38.9559    5.5162    8.2547 O   0  0  0  0  0  0  0  0  0  0  0  0
   40.0905    5.3104   11.4158 O   0  0  0  0  0  0  0  0  0  0  0  0
   39.4756    7.7839    8.1309 O   0  0  0  0  0  0  0  0  0  0  0  0
   38.2933    8.5950    8.3255 C   0  0  2  0  0  0  0  0  0  0  0  0
   37.0556    8.0535    7.5918 C   0  0  1  0  0  0  0  0  0  0  0  0
   37.2089    8.1970    6.0542 C   0  0  2  0  0  0  0  0  0  0  0  0
   37.4471    9.6455    5.6939 C   0  0  1  0  0  0  0  0  0  0  0  0
   38.7140   10.1518    6.4235 C   0  0  1  0  0  0  0  0  0  0  0  0
   39.0034   11.6266    6.1535 C   0  0  0  0  0  0  0  0  0  0  0  0
   37.5935    9.7491    4.2272 N   0  0  0  0  0  0  0  0  0  0  0  0
   38.5455    9.9846    7.8781 O   0  0  0  0  0  0  0  0  0  0  0  0
   36.8532    6.6904    7.9920 O   0  0  0  0  0  0  0  0  0  0  0  0
   36.0091    7.7530    5.4060 O   0  0  0  0  0  0  0  0  0  0  0  0
   40.1057   12.0337    6.9198 O   0  0  0  0  0  0  0  0  0  0  0  0
   41.5341   -0.2145    8.6633 C   0  0  1  0  0  0  0  0  0  0  0  0
   42.7009    0.3290    9.5173 C   0  0  1  0  0  0  0  0  0  0  0  0
   43.7253   -0.7859    9.8393 C   0  0  2  0  0  0  0  0  0  0  0  0
   43.0334   -1.9334   10.5848 C   0  0  1  0  0  0  0  0  0  0  0  0
   41.8828   -2.5133    9.7232 C   0  0  0  0  0  0  0  0  0  0  0  0
   40.8735   -1.3982    9.4303 C   0  0  2  0  0  0  0  0  0  0  0  0
   44.0158   -3.0004   10.8797 N   0  0  0  0  0  0  0  0  0  0  0  0
   39.7997   -1.9867    8.6345 N   0  0  0  0  0  0  0  0  0  0  0  0
   43.3735    1.3761    8.7845 O   0  0  0  0  0  0  0  0  0  0  0  0
   44.7773   -0.2300   10.6571 O   0  0  0  0  0  0  0  0  0  0  0  0
  1  2  1  0  0  0  0
  1 12  1  6  0  0  0
  1 13  1  0  0  0  0
  2  3  1  0  0  0  0
  2 10  1  6  0  0  0
  4  3  1  6  0  0  0
  4  5  1  0  0  0  0
  4 14  1  0  0  0  0
  5  6  1  0  0  0  0
  5 13  1  1  0  0  0
  6  7  1  0  0  0  0
  6 15  1  1  0  0  0
  7  8  1  0  0  0  0
  7 11  1  1  0  0  0
  8 14  1  0  0  0  0
  8 16  1  6  0  0  0
  9 11  1  0  0  0  0
 17 16  1  6  0  0  0
 17 18  1  0  0  0  0
 17 24  1  0  0  0  0
 18 19  1  0  0  0  0
 18 25  1  6  0  0  0
 19 20  1  0  0  0  0
 19 26  1  6  0  0  0
 20 21  1  0  0  0  0
 20 23  1  6  0  0  0
 21 22  1  1  0  0  0
 21 24  1  0  0  0  0
 22 27  1  0  0  0  0
 28 12  1  1  0  0  0
 28 29  1  0  0  0  0
 28 33  1  0  0  0  0
 29 30  1  0  0  0  0
 29 36  1  6  0  0  0
 30 31  1  0  0  0  0
 30 37  1  1  0  0  0
 31 32  1  0  0  0  0
 31 34  1  6  0  0  0
 32 33  1  0  0  0  0
 33 35  1  6  0  0  0
M  END
>  <CHROM.1>
-140.30787987,-80.06515210,-143.68845053,-81.37120665,175.85876381,-74.17823612
39.96341152,4.46416286,8.62916386,1.15852949,0.58161631,3.11203014

>  <Name>
1yrj_lig

>  <RI>
224

>  <Rbt.Current_Directory>
/home/itssahil/PROJECTS/Mol_Feturizer/New_Systems/rnas/1yrj

>  <Rbt.Executable>
rbdock ($Id: //depot/dev/client3/rdock/2013.1/src/exe/rbdock.cxx#4 $)

>  <Rbt.Library>
libRbt.so (2013.1, Build901 2013/11/27)

>  <Rbt.Parameter_File>
/export/apps/rDock/src/rDock_2013.1_src/data/scripts/dock_solv.prm

>  <Rbt.Receptor>
prm/pocket_docking_2.prm

>  <SCORE>
-13.8442

>  <SCORE.INTER>
-16.8476

>  <SCORE.INTER.CONST>
1

>  <SCORE.INTER.POLAR>
-0.82802

>  <SCORE.INTER.ROT>
6

>  <SCORE.INTER.SOLV>
17.6861

>  <SCORE.INTER.VDW>
-21.967

>  <SCORE.INTER.norm>
-0.455341

>  <SCORE.INTRA>
1.81093

>  <SCORE.INTRA.DIHEDRAL>
-2.20605

>  <SCORE.INTRA.DIHEDRAL.0>
15.6389

>  <SCORE.INTRA.POLAR>
0

>  <SCORE.INTRA.POLAR.0>
0

>  <SCORE.INTRA.REPUL>
0

>  <SCORE.INTRA.REPUL.0>
0

>  <SCORE.INTRA.SOLV>
0.544021

>  <SCORE.INTRA.SOLV.lig_0>
-90.9181

>  <SCORE.INTRA.VDW>
2.64195

>  <SCORE.INTRA.VDW.0>
-3.14158

>  <SCORE.INTRA.norm>
0.048944

>  <SCORE.RESTR>
1.19254

>  <SCORE.RESTR.CAVITY>
1.19254

>  <SCORE.RESTR.norm>
0.0322307

>  <SCORE.SYSTEM>
0

>  <SCORE.SYSTEM.CONST>
0

>  <SCORE.SYSTEM.DIHEDRAL>
0

>  <SCORE.SYSTEM.SOLV>
0

>  <SCORE.SYSTEM.norm>
0

>  <SCORE.heavy>
37

>  <SCORE.norm>
-0.374166

>  <RMSD>
10.224

$$$$
1yrj_lig
 OpenBabel11021811423D
libRbt.so/2013.1/901 2013/11/27
 37 40  0  0  0  0  0  0  0  0999 V2000
   39.3610   -0.0059    9.2901 C   0  0  1  0  0  0  0  0  0  0  0  0
   38.0708    0.1919    8.4706 C   0  0  1  0  0  0  0  0  0  0  0  0
   38.1203    1.4765    7.6281 C   0  0  0  0  0  0  0  0  0  0  0  0
   38.4196    2.6973    8.5369 C   0  0  1  0  0  0  0  0  0  0  0  0
   39.7414    2.4778    9.2970 C   0  0  1  0  0  0  0  0  0  0  0  0
   40.0301    3.7447   10.2078 C   0  0  1  0  0  0  0  0  0  0  0  0
   40.1241    5.0030    9.3296 C   0  0  1  0  0  0  0  0  0  0  0  0
   38.7933    5.1501    8.5526 C   0  0  2  0  0  0  0  0  0  0  0  0
   41.7891    6.2151   10.8348 C   0  0  0  0  0  0  0  0  0  0  0  0
   37.7814   -0.9687    7.6124 N   0  0  0  0  0  0  0  0  0  0  0  0
   40.4462    6.1944   10.1748 N   0  0  0  0  0  0  0  0  0  0  0  0
   40.4897   -0.4221    8.4989 O   0  0  0  0  0  0  0  0  0  0  0  0
   39.6318    1.2210   10.0649 O   0  0  0  0  0  0  0  0  0  0  0  0
   38.5162    3.9574    7.7653 O   0  0  0  0  0  0  0  0  0  0  0  0
   38.9534    3.9353   11.1016 O   0  0  0  0  0  0  0  0  0  0  0  0
   38.8176    6.2651    7.6606 O   0  0  0  0  0  0  0  0  0  0  0  0
   37.4988    6.7543    7.3216 C   0  0  2  0  0  0  0  0  0  0  0  0
   37.5165    7.8727    6.2669 C   0  0  1  0  0  0  0  0  0  0  0  0
   38.1280    9.1770    6.8442 C   0  0  2  0  0  0  0  0  0  0  0  0
   37.3513    9.6126    8.0656 C   0  0  1  0  0  0  0  0  0  0  0  0
   37.3770    8.4792    9.1183 C   0  0  1  0  0  0  0  0  0  0  0  0
   36.5722    8.8164   10.3715 C   0  0  0  0  0  0  0  0  0  0  0  0
   37.9589   10.8515    8.5941 N   0  0  0  0  0  0  0  0  0  0  0  0
   36.8085    7.2509    8.5347 O   0  0  0  0  0  0  0  0  0  0  0  0
   38.2340    7.3992    5.1180 O   0  0  0  0  0  0  0  0  0  0  0  0
   38.0602   10.2184    5.8604 O   0  0  0  0  0  0  0  0  0  0  0  0
   37.1894    9.8772   11.0510 O   0  0  0  0  0  0  0  0  0  0  0  0
   40.5769   -1.7619    7.7835 C   0  0  1  0  0  0  0  0  0  0  0  0
   41.8804   -1.7514    6.9549 C   0  0  1  0  0  0  0  0  0  0  0  0
   42.0978   -3.1053    6.2366 C   0  0  2  0  0  0  0  0  0  0  0  0
   42.1514   -4.2412    7.2652 C   0  0  1  0  0  0  0  0  0  0  0  0
   40.8334   -4.2869    8.0798 C   0  0  0  0  0  0  0  0  0  0  0  0
   40.6466   -2.9445    8.7946 C   0  0  2  0  0  0  0  0  0  0  0  0
   42.3481   -5.5334    6.5711 N   0  0  0  0  0  0  0  0  0  0  0  0
   39.4077   -3.0337    9.5626 N   0  0  0  0  0  0  0  0  0  0  0  0
   41.7977   -0.7087    5.9591 O   0  0  0  0  0  0  0  0  0  0  0  0
   43.3383   -3.0481    5.5001 O   0  0  0  0  0  0  0  0  0  0  0  0
  1  2  1  0  0  0  0
  1 12  1  6  0  0  0
  1 13  1  0  0  0  0
  2  3  1  0  0  0  0
  2 10  1  6  0  0  0
  4  3  1  6  0  0  0
  4  5  1  0  0  0  0
  4 14  1  0  0  0  0
  5  6  1  0  0  0  0
  5 13  1  1  0  0  0
  6  7  1  0  0  0  0
  6 15  1  1  0  0  0
  7  8  1  0  0  0  0
  7 11  1  1  0  0  0
  8 14  1  0  0  0  0
  8 16  1  6  0  0  0
  9 11  1  0  0  0  0
 17 16  1  1  0  0  0
 17 18  1  0  0  0  0
 17 24  1  0  0  0  0
 18 19  1  0  0  0  0
 18 25  1  6  0  0  0
 19 20  1  0  0  0  0
 19 26  1  6  0  0  0
 20 21  1  0  0  0  0
 20 23  1  1  0  0  0
 21 22  1  1  0  0  0
 21 24  1  0  0  0  0
 22 27  1  0  0  0  0
 28 12  1  1  0  0  0
 28 29  1  0  0  0  0
 28 33  1  0  0  0  0
 29 30  1  0  0  0  0
 29 36  1  6  0  0  0
 30 31  1  0  0  0  0
 30 37  1  1  0  0  0
 31 32  1  0  0  0  0
 31 34  1  6  0  0  0
 32 33  1  0  0  0  0
 33 35  1  6  0  0  0
M  END
>  <CHROM.1>
-65.69908154,65.97338161,-157.22907621,-174.91191568,-66.53560919,174.93582741
39.37357973,3.11639578,8.23502208,0.39034005,-1.26745427,2.05638198

>  <Name>
1yrj_lig

>  <RI>
0

>  <Rbt.Current_Directory>
/home/itssahil/PROJECTS/Mol_Feturizer/New_Systems/rnas/1yrj

>  <Rbt.Executable>
rbdock ($Id: //depot/dev/client3/rdock/2013.1/src/exe/rbdock.cxx#4 $)

>  <Rbt.Library>
libRbt.so (2013.1, Build901 2013/11/27)

>  <Rbt.Parameter_File>
/export/apps/rDock/src/rDock_2013.1_src/data/scripts/dock_solv.prm

>  <Rbt.Receptor>
prm/pocket_docking_6.prm

>  <SCORE>
-24.2622

>  <SCORE.INTER>
-19.8576

>  <SCORE.INTER.CONST>
1

>  <SCORE.INTER.POLAR>
-0.600082

>  <SCORE.INTER.ROT>
6

>  <SCORE.INTER.SOLV>
11.7954

>  <SCORE.INTER.VDW>
-22.7699

>  <SCORE.INTER.norm>
-0.536692

>  <SCORE.INTRA>
-4.40462

>  <SCORE.INTRA.DIHEDRAL>
-12.6763

>  <SCORE.INTRA.DIHEDRAL.0>
15.6389

>  <SCORE.INTRA.POLAR>
0

>  <SCORE.INTRA.POLAR.0>
0

>  <SCORE.INTRA.REPUL>
0

>  <SCORE.INTRA.REPUL.0>
0

>  <SCORE.INTRA.SOLV>
2.51044

>  <SCORE.INTRA.SOLV.lig_0>
-90.9181

>  <SCORE.INTRA.VDW>
0.678289

>  <SCORE.INTRA.VDW.0>
-3.14158

>  <SCORE.INTRA.norm>
-0.119044

>  <SCORE.RESTR>
0

>  <SCORE.RESTR.CAVITY>
0

>  <SCORE.RESTR.norm>
0

>  <SCORE.SYSTEM>
0

>  <SCORE.SYSTEM.CONST>
0

>  <SCORE.SYSTEM.DIHEDRAL>
0

>  <SCORE.SYSTEM.SOLV>
0

>  <SCORE.SYSTEM.norm>
0

>  <SCORE.heavy>
37

>  <SCORE.norm>
-0.655735

>  <RMSD>
10.228

$$$$
1yrj_lig
 OpenBabel11021811423D
libRbt.so/2013.1/901 2013/11/27
 37 40  0  0  0  0  0  0  0  0999 V2000
   39.3514    0.1437    9.3911 C   0  0  1  0  0  0  0  0  0  0  0  0
   38.0776    0.2706    8.5327 C   0  0  1  0  0  0  0  0  0  0  0  0
   38.1453    1.4788    7.5850 C   0  0  0  0  0  0  0  0  0  0  0  0
   38.4287    2.7726    8.3921 C   0  0  1  0  0  0  0  0  0  0  0  0
   39.7352    2.6189    9.1936 C   0  0  1  0  0  0  0  0  0  0  0  0
   40.0081    3.9589    9.9986 C   0  0  1  0  0  0  0  0  0  0  0  0
   40.1209    5.1379    9.0184 C   0  0  1  0  0  0  0  0  0  0  0  0
   38.8057    5.2179    8.2059 C   0  0  2  0  0  0  0  0  0  0  0  0
   41.1119    7.4883    9.0028 C   0  0  0  0  0  0  0  0  0  0  0  0
   37.8032   -0.9589    7.7712 N   0  0  0  0  0  0  0  0  0  0  0  0
   40.4284    6.3970    9.7651 N   0  0  0  0  0  0  0  0  0  0  0  0
   40.4946   -0.3383    8.6603 O   0  0  0  0  0  0  0  0  0  0  0  0
   39.6090    1.4321   10.0636 O   0  0  0  0  0  0  0  0  0  0  0  0
   38.5420    3.9624    7.5180 O   0  0  0  0  0  0  0  0  0  0  0  0
   38.9146    4.2249   10.8518 O   0  0  0  0  0  0  0  0  0  0  0  0
   38.8489    6.2529    7.2228 O   0  0  0  0  0  0  0  0  0  0  0  0
   37.5420    6.7728    6.8829 C   0  0  2  0  0  0  0  0  0  0  0  0
   37.5763    7.8161    5.7542 C   0  0  1  0  0  0  0  0  0  0  0  0
   38.2547    9.1295    6.2263 C   0  0  2  0  0  0  0  0  0  0  0  0
   37.5291    9.6783    7.4335 C   0  0  1  0  0  0  0  0  0  0  0  0
   37.5375    8.6181    8.5602 C   0  0  1  0  0  0  0  0  0  0  0  0
   36.7807    9.0721    9.8063 C   0  0  0  0  0  0  0  0  0  0  0  0
   38.1997   10.9235    7.8615 N   0  0  0  0  0  0  0  0  0  0  0  0
   36.9049    7.3782    8.0756 O   0  0  0  0  0  0  0  0  0  0  0  0
   38.2433    7.2369    4.6234 O   0  0  0  0  0  0  0  0  0  0  0  0
   38.2024   10.1044    5.1757 O   0  0  0  0  0  0  0  0  0  0  0  0
   36.4455    7.9527   10.5824 O   0  0  0  0  0  0  0  0  0  0  0  0
   40.5949   -1.7352    8.0662 C   0  0  1  0  0  0  0  0  0  0  0  0
   41.9059   -1.7901    7.2511 C   0  0  1  0  0  0  0  0  0  0  0  0
   42.1364   -3.2006    6.6565 C   0  0  2  0  0  0  0  0  0  0  0  0
   42.1864   -4.2413    7.7814 C   0  0  1  0  0  0  0  0  0  0  0  0
   40.8614   -4.2229    8.5855 C   0  0  0  0  0  0  0  0  0  0  0  0
   40.6615   -2.8240    9.1779 C   0  0  2  0  0  0  0  0  0  0  0  0
   42.3959   -5.5884    7.2053 N   0  0  0  0  0  0  0  0  0  0  0  0
   39.4161   -2.8525    9.9402 N   0  0  0  0  0  0  0  0  0  0  0  0
   41.8269   -0.8393    6.1668 O   0  0  0  0  0  0  0  0  0  0  0  0
   43.3832   -3.2011    5.9284 O   0  0  0  0  0  0  0  0  0  0  0  0
  1  2  1  0  0  0  0
  1 12  1  6  0  0  0
  1 13  1  0  0  0  0
  2  3  1  0  0  0  0
  2 10  1  6  0  0  0
  4  3  1  6  0  0  0
  4  5  1  0  0  0  0
  4 14  1  0  0  0  0
  5  6  1  0  0  0  0
  5 13  1  1  0  0  0
  6  7  1  0  0  0  0
  6 15  1  1  0  0  0
  7  8  1  0  0  0  0
  7 11  1  1  0  0  0
  8 14  1  0  0  0  0
  8 16  1  6  0  0  0
  9 11  1  0  0  0  0
 17 16  1  1  0  0  0
 17 18  1  0  0  0  0
 17 24  1  0  0  0  0
 18 19  1  0  0  0  0
 18 25  1  6  0  0  0
 19 20  1  0  0  0  0
 19 26  1  6  0  0  0
 20 21  1  0  0  0  0
 20 23  1  1  0  0  0
 21 22  1  1  0  0  0
 21 24  1  0  0  0  0
 22 27  1  0  0  0  0
 28 12  1  1  0  0  0
 28 29  1  0  0  0  0
 28 33  1  0  0  0  0
 29 30  1  0  0  0  0
 29 36  1  6  0  0  0
 30 31  1  0  0  0  0
 30 37  1  1  0  0  0
 31 32  1  0  0  0  0
 31 34  1  6  0  0  0
 32 33  1  0  0  0  0
 33 35  1  6  0  0  0
M  END
>  <CHROM.1>
-65.84582866,155.55212637,-153.35854164,-175.91619435,160.51668187,174.31181016
39.37340123,3.14284023,8.06699811,0.87029480,-1.13057103,2.47686532

>  <Name>
1yrj_lig

>  <RI>
0

>  <Rbt.Current_Directory>
/home/itssahil/PROJECTS/Mol_Feturizer/New_Systems/rnas/1yrj

>  <Rbt.Executable>
rbdock ($Id: //depot/dev/client3/rdock/2013.1/src/exe/rbdock.cxx#4 $)

>  <Rbt.Library>
libRbt.so (2013.1, Build901 2013/11/27)

>  <Rbt.Parameter_File>
/export/apps/rDock/src/rDock_2013.1_src/data/scripts/dock_solv.prm

>  <Rbt.Receptor>
prm/pocket_docking_6.prm

>  <SCORE>
-24.8029

>  <SCORE.INTER>
-20.1682

>  <SCORE.INTER.CONST>
1

>  <SCORE.INTER.POLAR>
-1.29569

>  <SCORE.INTER.ROT>
6

>  <SCORE.INTER.SOLV>
12.3005

>  <SCORE.INTER.VDW>
-20.8267

>  <SCORE.INTER.norm>
-0.545087

>  <SCORE.INTRA>
-4.63466

>  <SCORE.INTRA.DIHEDRAL>
-10.4838

>  <SCORE.INTRA.DIHEDRAL.0>
15.6389

>  <SCORE.INTRA.POLAR>
0

>  <SCORE.INTRA.POLAR.0>
0

>  <SCORE.INTRA.REPUL>
0

>  <SCORE.INTRA.REPUL.0>
0

>  <SCORE.INTRA.SOLV>
1.77409

>  <SCORE.INTRA.SOLV.lig_0>
-90.9181

>  <SCORE.INTRA.VDW>
-0.279801

>  <SCORE.INTRA.VDW.0>
-3.14158

>  <SCORE.INTRA.norm>
-0.125261

>  <SCORE.RESTR>
0

>  <SCORE.RESTR.CAVITY>
0

>  <SCORE.RESTR.norm>
0

>  <SCORE.SYSTEM>
0

>  <SCORE.SYSTEM.CONST>
0

>  <SCORE.SYSTEM.DIHEDRAL>
0

>  <SCORE.SYSTEM.SOLV>
0

>  <SCORE.SYSTEM.norm>
0

>  <SCORE.heavy>
37

>  <SCORE.norm>
-0.670348

>  <RMSD>
10.234

$$$$
1yrj_lig
 OpenBabel11021811423D
libRbt.so/2013.1/901 2013/11/27
 37 40  0  0  0  0  0  0  0  0999 V2000
   39.3104    0.9423    9.1678 C   0  0  1  0  0  0  0  0  0  0  0  0
   38.1647    1.2993    8.2007 C   0  0  1  0  0  0  0  0  0  0  0  0
   38.3917    2.6604    7.5237 C   0  0  0  0  0  0  0  0  0  0  0  0
   38.6044    3.7595    8.5972 C   0  0  1  0  0  0  0  0  0  0  0  0
   39.7892    3.3854    9.5078 C   0  0  1  0  0  0  0  0  0  0  0  0
   39.9930    4.5307   10.5870 C   0  0  1  0  0  0  0  0  0  0  0  0
   40.2681    5.8669    9.8782 C   0  0  1  0  0  0  0  0  0  0  0  0
   39.0739    6.1714    8.9414 C   0  0  2  0  0  0  0  0  0  0  0  0
   41.9067    7.0783   11.4125 C   0  0  0  0  0  0  0  0  0  0  0  0
   37.9569    0.2541    7.1851 N   0  0  0  0  0  0  0  0  0  0  0  0
   40.5115    6.9422   10.8891 N   0  0  0  0  0  0  0  0  0  0  0  0
   40.5251    0.5471    8.5033 O   0  0  0  0  0  0  0  0  0  0  0  0
   39.5150    2.0632   10.1062 O   0  0  0  0  0  0  0  0  0  0  0  0
   38.8664    5.0861    7.9937 O   0  0  0  0  0  0  0  0  0  0  0  0
   38.8051    4.6882   11.3344 O   0  0  0  0  0  0  0  0  0  0  0  0
   39.2762    7.3708    8.1930 O   0  0  0  0  0  0  0  0  0  0  0  0
   38.0558    7.9038    7.6273 C   0  0  2  0  0  0  0  0  0  0  0  0
   38.2792    9.1629    6.7738 C   0  0  1  0  0  0  0  0  0  0  0  0
   38.6962   10.3700    7.6553 C   0  0  2  0  0  0  0  0  0  0  0  0
   37.6440   10.6247    8.7101 C   0  0  1  0  0  0  0  0  0  0  0  0
   37.4637    9.3511    9.5698 C   0  0  1  0  0  0  0  0  0  0  0  0
   36.3800    9.5038   10.6347 C   0  0  0  0  0  0  0  0  0  0  0  0
   38.0707   11.7742    9.5346 N   0  0  0  0  0  0  0  0  0  0  0  0
   37.0873    8.2200    8.7029 O   0  0  0  0  0  0  0  0  0  0  0  0
   39.2585    8.8602    5.7696 O   0  0  0  0  0  0  0  0  0  0  0  0
   38.8228   11.5426    6.8392 O   0  0  0  0  0  0  0  0  0  0  0  0
   35.9775    8.2346   11.0763 O   0  0  0  0  0  0  0  0  0  0  0  0
   40.9348   -0.8999    8.2737 C   0  0  1  0  0  0  0  0  0  0  0  0
   40.6920   -1.6573    9.5978 C   0  0  1  0  0  0  0  0  0  0  0  0
   41.0170   -3.1634    9.4486 C   0  0  2  0  0  0  0  0  0  0  0  0
   40.1551   -3.7778    8.3393 C   0  0  1  0  0  0  0  0  0  0  0  0
   40.4161   -3.0508    6.9954 C   0  0  0  0  0  0  0  0  0  0  0  0
   40.0729   -1.5666    7.1609 C   0  0  2  0  0  0  0  0  0  0  0  0
   40.4788   -5.2147    8.1946 N   0  0  0  0  0  0  0  0  0  0  0  0
   40.3141   -0.9220    5.8729 N   0  0  0  0  0  0  0  0  0  0  0  0
   41.5441   -1.1005   10.6224 O   0  0  0  0  0  0  0  0  0  0  0  0
   40.7496   -3.8243   10.7041 O   0  0  0  0  0  0  0  0  0  0  0  0
  1  2  1  0  0  0  0
  1 12  1  6  0  0  0
  1 13  1  0  0  0  0
  2  3  1  0  0  0  0
  2 10  1  6  0  0  0
  4  3  1  6  0  0  0
  4  5  1  0  0  0  0
  4 14  1  0  0  0  0
  5  6  1  0  0  0  0
  5 13  1  1  0  0  0
  6  7  1  0  0  0  0
  6 15  1  6  0  0  0
  7  8  1  0  0  0  0
  7 11  1  1  0  0  0
  8 14  1  0  0  0  0
  8 16  1  6  0  0  0
  9 11  1  0  0  0  0
 17 16  1  1  0  0  0
 17 18  1  0  0  0  0
 17 24  1  0  0  0  0
 18 19  1  0  0  0  0
 18 25  1  6  0  0  0
 19 20  1  0  0  0  0
 19 26  1  6  0  0  0
 20 21  1  0  0  0  0
 20 23  1  1  0  0  0
 21 22  1  1  0  0  0
 21 24  1  0  0  0  0
 22 27  1  0  0  0  0
 28 12  1  1  0  0  0
 28 29  1  0  0  0  0
 28 33  1  0  0  0  0
 29 30  1  0  0  0  0
 29 36  1  1  0  0  0
 30 31  1  0  0  0  0
 30 37  1  1  0  0  0
 31 32  1  0  0  0  0
 31 34  1  6  0  0  0
 32 33  1  0  0  0  0
 33 35  1  6  0  0  0
M  END
>  <CHROM.1>
-97.71087206,85.16339990,-162.37715472,-177.65088953,161.46252736,-45.27884250
39.27011905,3.91277595,8.83359834,-0.76547074,-1.31540281,0.79771117

>  <Name>
1yrj_lig

>  <RI>
0

>  <Rbt.Current_Directory>
/home/itssahil/PROJECTS/Mol_Feturizer/New_Systems/rnas/1yrj

>  <Rbt.Executable>
rbdock ($Id: //depot/dev/client3/rdock/2013.1/src/exe/rbdock.cxx#4 $)

>  <Rbt.Library>
libRbt.so (2013.1, Build901 2013/11/27)

>  <Rbt.Parameter_File>
/export/apps/rDock/src/rDock_2013.1_src/data/scripts/dock_solv.prm

>  <Rbt.Receptor>
prm/pocket_docking_6.prm

>  <SCORE>
-23.3548

>  <SCORE.INTER>
-21.8491

>  <SCORE.INTER.CONST>
1

>  <SCORE.INTER.POLAR>
-1.65162

>  <SCORE.INTER.ROT>
6

>  <SCORE.INTER.SOLV>
16.5274

>  <SCORE.INTER.VDW>
-22.1698

>  <SCORE.INTER.norm>
-0.590517

>  <SCORE.INTRA>
-1.50567

>  <SCORE.INTRA.DIHEDRAL>
-6.5527

>  <SCORE.INTRA.DIHEDRAL.0>
15.6389

>  <SCORE.INTRA.POLAR>
0

>  <SCORE.INTRA.POLAR.0>
0

>  <SCORE.INTRA.REPUL>
0

>  <SCORE.INTRA.REPUL.0>
0

>  <SCORE.INTRA.SOLV>
2.12965

>  <SCORE.INTRA.SOLV.lig_0>
-90.9181

>  <SCORE.INTRA.VDW>
0.705857

>  <SCORE.INTRA.VDW.0>
-3.14158

>  <SCORE.INTRA.norm>
-0.0406937

>  <SCORE.RESTR>
0

>  <SCORE.RESTR.CAVITY>
0

>  <SCORE.RESTR.norm>
0

>  <SCORE.SYSTEM>
0

>  <SCORE.SYSTEM.CONST>
0

>  <SCORE.SYSTEM.DIHEDRAL>
0

>  <SCORE.SYSTEM.SOLV>
0

>  <SCORE.SYSTEM.norm>
0

>  <SCORE.heavy>
37

>  <SCORE.norm>
-0.63121

>  <RMSD>
10.237

$$$$
1yrj_lig
 OpenBabel11021811423D
libRbt.so/2013.1/901 2013/11/27
 37 40  0  0  0  0  0  0  0  0999 V2000
   38.1532    6.3952    8.4874 C   0  0  1  0  0  0  0  0  0  0  0  0
   38.4145    5.2487    7.4910 C   0  0  1  0  0  0  0  0  0  0  0  0
   39.5049    5.6150    6.4716 C   0  0  0  0  0  0  0  0  0  0  0  0
   39.1340    6.9356    5.7476 C   0  0  1  0  0  0  0  0  0  0  0  0
   38.9322    8.0633    6.7775 C   0  0  1  0  0  0  0  0  0  0  0  0
   38.5671    9.4038    6.0108 C   0  0  1  0  0  0  0  0  0  0  0  0
   39.7000    9.7686    5.0377 C   0  0  1  0  0  0  0  0  0  0  0  0
   39.8948    8.5858    4.0582 C   0  0  2  0  0  0  0  0  0  0  0  0
   40.5341   11.7928    3.7286 C   0  0  0  0  0  0  0  0  0  0  0  0
   38.7600    3.9926    8.1766 N   0  0  0  0  0  0  0  0  0  0  0  0
   39.3867   11.0582    4.3475 N   0  0  0  0  0  0  0  0  0  0  0  0
   39.1923    6.5530    9.4715 O   0  0  0  0  0  0  0  0  0  0  0  0
   37.8907    7.6370    7.7340 O   0  0  0  0  0  0  0  0  0  0  0  0
   40.1744    7.3531    4.7802 O   0  0  0  0  0  0  0  0  0  0  0  0
   37.4005    9.2013    5.2409 O   0  0  0  0  0  0  0  0  0  0  0  0
   40.9756    8.8158    3.1534 O   0  0  0  0  0  0  0  0  0  0  0  0
   41.0016    7.8847    2.0461 C   0  0  2  0  0  0  0  0  0  0  0  0
   42.2521    8.0238    1.1626 C   0  0  1  0  0  0  0  0  0  0  0  0
   42.2316    9.3576    0.3696 C   0  0  2  0  0  0  0  0  0  0  0  0
   40.9776    9.4375   -0.4705 C   0  0  1  0  0  0  0  0  0  0  0  0
   39.7386    9.3243    0.4490 C   0  0  1  0  0  0  0  0  0  0  0  0
   38.4224    9.3472   -0.3249 C   0  0  0  0  0  0  0  0  0  0  0  0
   40.9846   10.7176   -1.2085 N   0  0  0  0  0  0  0  0  0  0  0  0
   39.7968    8.0584    1.2017 O   0  0  0  0  0  0  0  0  0  0  0  0
   43.4119    7.9079    1.9995 O   0  0  0  0  0  0  0  0  0  0  0  0
   43.3716    9.4205   -0.4984 O   0  0  0  0  0  0  0  0  0  0  0  0
   38.3766    8.2518   -1.2001 O   0  0  0  0  0  0  0  0  0  0  0  0
   38.9321    6.8539   10.9399 C   0  0  1  0  0  0  0  0  0  0  0  0
   40.3035    7.1146   11.6011 C   0  0  1  0  0  0  0  0  0  0  0  0
   40.1420    7.4985   13.0920 C   0  0  2  0  0  0  0  0  0  0  0  0
   39.2641    8.7492   13.2185 C   0  0  1  0  0  0  0  0  0  0  0  0
   37.8705    8.4894   12.5914 C   0  0  0  0  0  0  0  0  0  0  0  0
   38.0527    8.1275   11.1137 C   0  0  2  0  0  0  0  0  0  0  0  0
   39.1047    9.1040   14.6465 N   0  0  0  0  0  0  0  0  0  0  0  0
   36.7207    7.9086   10.5560 N   0  0  0  0  0  0  0  0  0  0  0  0
   41.1029    5.9146   11.5174 O   0  0  0  0  0  0  0  0  0  0  0  0
   41.4482    7.7542   13.6514 O   0  0  0  0  0  0  0  0  0  0  0  0
  1  2  1  0  0  0  0
  1 12  1  1  0  0  0
  1 13  1  0  0  0  0
  2  3  1  0  0  0  0
  2 10  1  1  0  0  0
  4  3  1  1  0  0  0
  4  5  1  0  0  0  0
  4 14  1  0  0  0  0
  5  6  1  0  0  0  0
  5 13  1  1  0  0  0
  6  7  1  0  0  0  0
  6 15  1  6  0  0  0
  7  8  1  0  0  0  0
  7 11  1  6  0  0  0
  8 14  1  0  0  0  0
  8 16  1  6  0  0  0
  9 11  1  0  0  0  0
 17 16  1  1  0  0  0
 17 18  1  0  0  0  0
 17 24  1  0  0  0  0
 18 19  1  0  0  0  0
 18 25  1  1  0  0  0
 19 20  1  0  0  0  0
 19 26  1  6  0  0  0
 20 21  1  0  0  0  0
 20 23  1  1  0  0  0
 21 22  1  6  0  0  0
 21 24  1  0  0  0  0
 22 27  1  0  0  0  0
 28 12  1  6  0  0  0
 28 29  1  0  0  0  0
 28 33  1  0  0  0  0
 29 30  1  0  0  0  0
 29 36  1  1  0  0  0
 30 31  1  0  0  0  0
 30 37  1  6  0  0  0
 31 32  1  0  0  0  0
 31 34  1  1  0  0  0
 32 33  1  0  0  0  0
 33 35  1  1  0  0  0
M  END
>  <CHROM.1>
-139.29670388,160.23749538,-167.07702796,-173.26710480,61.36280918,-173.17757866
39.75712299,8.15296148,5.98311373,1.70851494,0.17744778,1.69682797

>  <Name>
1yrj_lig

>  <RI>
0

>  <Rbt.Current_Directory>
/home/itssahil/PROJECTS/Mol_Feturizer/New_Systems/rnas/1yrj

>  <Rbt.Executable>
rbdock ($Id: //depot/dev/client3/rdock/2013.1/src/exe/rbdock.cxx#4 $)

>  <Rbt.Library>
libRbt.so (2013.1, Build901 2013/11/27)

>  <Rbt.Parameter_File>
/export/apps/rDock/src/rDock_2013.1_src/data/scripts/dock_solv.prm

>  <Rbt.Receptor>
prm/pocket_docking_8.prm

>  <SCORE>
-12.7171

>  <SCORE.INTER>
-8.48537

>  <SCORE.INTER.CONST>
1

>  <SCORE.INTER.POLAR>
-0.541822

>  <SCORE.INTER.ROT>
6

>  <SCORE.INTER.SOLV>
14.3782

>  <SCORE.INTER.VDW>
-16.2436

>  <SCORE.INTER.norm>
-0.229334

>  <SCORE.INTRA>
-4.23172

>  <SCORE.INTRA.DIHEDRAL>
-8.57992

>  <SCORE.INTRA.DIHEDRAL.0>
15.6389

>  <SCORE.INTRA.POLAR>
0

>  <SCORE.INTRA.POLAR.0>
0

>  <SCORE.INTRA.REPUL>
0

>  <SCORE.INTRA.REPUL.0>
0

>  <SCORE.INTRA.SOLV>
-0.378037

>  <SCORE.INTRA.SOLV.lig_0>
-90.9181

>  <SCORE.INTRA.VDW>
0.247263

>  <SCORE.INTRA.VDW.0>
-3.14158

>  <SCORE.INTRA.norm>
-0.114371

>  <SCORE.RESTR>
0

>  <SCORE.RESTR.CAVITY>
0

>  <SCORE.RESTR.norm>
0

>  <SCORE.SYSTEM>
0

>  <SCORE.SYSTEM.CONST>
0

>  <SCORE.SYSTEM.DIHEDRAL>
0

>  <SCORE.SYSTEM.SOLV>
0

>  <SCORE.SYSTEM.norm>
0

>  <SCORE.heavy>
37

>  <SCORE.norm>
-0.343705

>  <RMSD>
10.240

$$$$
1yrj_lig
 OpenBabel11021811423D
libRbt.so/2013.1/901 2013/11/27
 37 40  0  0  0  0  0  0  0  0999 V2000
   39.2928   -0.1394    9.4826 C   0  0  1  0  0  0  0  0  0  0  0  0
   38.1480    0.0727    8.4727 C   0  0  1  0  0  0  0  0  0  0  0  0
   38.4075    1.2824    7.5607 C   0  0  0  0  0  0  0  0  0  0  0  0
   38.6630    2.5495    8.4180 C   0  0  1  0  0  0  0  0  0  0  0  0
   39.8458    2.3092    9.3752 C   0  0  1  0  0  0  0  0  0  0  0  0
   40.0939    3.6231   10.2298 C   0  0  1  0  0  0  0  0  0  0  0  0
   40.4004    4.8012    9.2908 C   0  0  1  0  0  0  0  0  0  0  0  0
   39.2060    4.9686    8.3204 C   0  0  2  0  0  0  0  0  0  0  0  0
   41.9577    6.0512   10.8779 C   0  0  0  0  0  0  0  0  0  0  0  0
   37.8995   -1.1312    7.6628 N   0  0  0  0  0  0  0  0  0  0  0  0
   40.6853    6.0327   10.0906 N   0  0  0  0  0  0  0  0  0  0  0  0
   40.4885   -0.6844    8.8941 O   0  0  0  0  0  0  0  0  0  0  0  0
   39.5395    1.1250   10.2030 O   0  0  0  0  0  0  0  0  0  0  0  0
   38.9572    3.7375    7.5844 O   0  0  0  0  0  0  0  0  0  0  0  0
   38.9188    3.9483   10.9425 O   0  0  0  0  0  0  0  0  0  0  0  0
   39.4353    6.0073    7.3674 O   0  0  0  0  0  0  0  0  0  0  0  0
   39.3834    7.3333    7.9442 C   0  0  2  0  0  0  0  0  0  0  0  0
   37.9521    7.8686    8.1126 C   0  0  1  0  0  0  0  0  0  0  0  0
   37.3004    8.1671    6.7361 C   0  0  2  0  0  0  0  0  0  0  0  0
   38.1489    9.1549    5.9687 C   0  0  1  0  0  0  0  0  0  0  0  0
   39.5722    8.5755    5.7902 C   0  0  1  0  0  0  0  0  0  0  0  0
   40.5147    9.5327    5.0640 C   0  0  0  0  0  0  0  0  0  0  0  0
   37.5065    9.4150    4.6637 N   0  0  0  0  0  0  0  0  0  0  0  0
   40.1559    8.2849    7.1121 O   0  0  0  0  0  0  0  0  0  0  0  0
   37.1989    6.9134    8.8738 O   0  0  0  0  0  0  0  0  0  0  0  0
   35.9977    8.7340    6.9317 O   0  0  0  0  0  0  0  0  0  0  0  0
   41.7825    8.9431    4.9510 O   0  0  0  0  0  0  0  0  0  0  0  0
   41.7948   -0.8769    9.6498 C   0  0  1  0  0  0  0  0  0  0  0  0
   41.7067   -2.2400   10.3711 C   0  0  1  0  0  0  0  0  0  0  0  0
   43.0225   -2.5629   11.1198 C   0  0  2  0  0  0  0  0  0  0  0  0
   44.1962   -2.5780   10.1334 C   0  0  1  0  0  0  0  0  0  0  0  0
   44.3195   -1.2030    9.4285 C   0  0  0  0  0  0  0  0  0  0  0  0
   43.0139   -0.9113    8.6812 C   0  0  2  0  0  0  0  0  0  0  0  0
   45.4521   -2.8762   10.8574 N   0  0  0  0  0  0  0  0  0  0  0  0
   43.1760    0.3798    8.0180 N   0  0  0  0  0  0  0  0  0  0  0  0
   40.6282   -2.1967   11.3307 O   0  0  0  0  0  0  0  0  0  0  0  0
   42.8936   -3.8542   11.7527 O   0  0  0  0  0  0  0  0  0  0  0  0
  1  2  1  0  0  0  0
  1 12  1  6  0  0  0
  1 13  1  0  0  0  0
  2  3  1  0  0  0  0
  2 10  1  6  0  0  0
  4  3  1  6  0  0  0
  4  5  1  0  0  0  0
  4 14  1  0  0  0  0
  5  6  1  0  0  0  0
  5 13  1  1  0  0  0
  6  7  1  0  0  0  0
  6 15  1  6  0  0  0
  7  8  1  0  0  0  0
  7 11  1  1  0  0  0
  8 14  1  0  0  0  0
  8 16  1  6  0  0  0
  9 11  1  0  0  0  0
 17 16  1  6  0  0  0
 17 18  1  0  0  0  0
 17 24  1  0  0  0  0
 18 19  1  0  0  0  0
 18 25  1  6  0  0  0
 19 20  1  0  0  0  0
 19 26  1  1  0  0  0
 20 21  1  0  0  0  0
 20 23  1  6  0  0  0
 21 22  1  1  0  0  0
 21 24  1  0  0  0  0
 22 27  1  0  0  0  0
 28 12  1  6  0  0  0
 28 29  1  0  0  0  0
 28 33  1  0  0  0  0
 29 30  1  0  0  0  0
 29 36  1  1  0  0  0
 30 31  1  0  0  0  0
 30 37  1  6  0  0  0
 31 32  1  0  0  0  0
 31 34  1  1  0  0  0
 32 33  1  0  0  0  0
 33 35  1  1  0  0  0
M  END
>  <CHROM.1>
174.63276231,69.19049555,-71.50724989,-81.42752568,179.52044580,85.03640088
40.18992502,3.23972871,8.60755588,1.25197068,0.02421920,2.81940259

>  <Name>
1yrj_lig

>  <RI>
0

>  <Rbt.Current_Directory>
/home/itssahil/PROJECTS/Mol_Feturizer/New_Systems/rnas/1yrj

>  <Rbt.Executable>
rbdock ($Id: //depot/dev/client3/rdock/2013.1/src/exe/rbdock.cxx#4 $)

>  <Rbt.Library>
libRbt.so (2013.1, Build901 2013/11/27)

>  <Rbt.Parameter_File>
/export/apps/rDock/src/rDock_2013.1_src/data/scripts/dock_solv.prm

>  <Rbt.Receptor>
prm/pocket_docking_8.prm

>  <SCORE>
-23.8664

>  <SCORE.INTER>
-19.0731

>  <SCORE.INTER.CONST>
1

>  <SCORE.INTER.POLAR>
-1.1748

>  <SCORE.INTER.ROT>
6

>  <SCORE.INTER.SOLV>
15.2186

>  <SCORE.INTER.VDW>
-21.4723

>  <SCORE.INTER.norm>
-0.51549

>  <SCORE.INTRA>
-4.79326

>  <SCORE.INTRA.DIHEDRAL>
-9.98816

>  <SCORE.INTRA.DIHEDRAL.0>
15.6389

>  <SCORE.INTRA.POLAR>
0

>  <SCORE.INTRA.POLAR.0>
0

>  <SCORE.INTRA.REPUL>
0

>  <SCORE.INTRA.REPUL.0>
0

>  <SCORE.INTRA.SOLV>
-1.35969

>  <SCORE.INTRA.SOLV.lig_0>
-90.9181

>  <SCORE.INTRA.VDW>
0.880668

>  <SCORE.INTRA.VDW.0>
-3.14158

>  <SCORE.INTRA.norm>
-0.129547

>  <SCORE.RESTR>
0

>  <SCORE.RESTR.CAVITY>
0

>  <SCORE.RESTR.norm>
0

>  <SCORE.SYSTEM>
0

>  <SCORE.SYSTEM.CONST>
0

>  <SCORE.SYSTEM.DIHEDRAL>
0

>  <SCORE.SYSTEM.SOLV>
0

>  <SCORE.SYSTEM.norm>
0

>  <SCORE.heavy>
37

>  <SCORE.norm>
-0.645037

>  <RMSD>
10.244

$$$$
1yrj_lig
 OpenBabel11021811423D
libRbt.so/2013.1/901 2013/11/27
 37 40  0  0  0  0  0  0  0  0999 V2000
   39.2514   -0.0343    9.3774 C   0  0  1  0  0  0  0  0  0  0  0  0
   38.0429    0.2496    8.4639 C   0  0  1  0  0  0  0  0  0  0  0  0
   38.2411    1.5288    7.6352 C   0  0  0  0  0  0  0  0  0  0  0  0
   38.5510    2.7261    8.5711 C   0  0  1  0  0  0  0  0  0  0  0  0
   39.7940    2.4185    9.4275 C   0  0  1  0  0  0  0  0  0  0  0  0
   40.0963    3.6627   10.3649 C   0  0  1  0  0  0  0  0  0  0  0  0
   40.3397    4.9127    9.5038 C   0  0  1  0  0  0  0  0  0  0  0  0
   39.0843    5.1486    8.6293 C   0  0  2  0  0  0  0  0  0  0  0  0
   41.2834    7.2733    9.7120 C   0  0  0  0  0  0  0  0  0  0  0  0
   37.7430   -0.8884    7.5796 N   0  0  0  0  0  0  0  0  0  0  0  0
   40.6752    6.0792   10.3779 N   0  0  0  0  0  0  0  0  0  0  0  0
   40.4066   -0.5241    8.6712 O   0  0  0  0  0  0  0  0  0  0  0  0
   39.5435    1.1711   10.1776 O   0  0  0  0  0  0  0  0  0  0  0  0
   38.7891    3.9777    7.8164 O   0  0  0  0  0  0  0  0  0  0  0  0
   38.9700    3.9238   11.1760 O   0  0  0  0  0  0  0  0  0  0  0  0
   39.2499    6.2603    7.7483 O   0  0  0  0  0  0  0  0  0  0  0  0
   38.0379    6.6151    7.0421 C   0  0  2  0  0  0  0  0  0  0  0  0
   38.0419    6.1785    5.5680 C   0  0  1  0  0  0  0  0  0  0  0  0
   39.0648    7.0034    4.7425 C   0  0  2  0  0  0  0  0  0  0  0  0
   38.7498    8.4772    4.8579 C   0  0  1  0  0  0  0  0  0  0  0  0
   38.7826    8.8916    6.3481 C   0  0  1  0  0  0  0  0  0  0  0  0
   38.4267   10.3610    6.5623 C   0  0  0  0  0  0  0  0  0  0  0  0
   39.7415    9.2351    4.0669 N   0  0  0  0  0  0  0  0  0  0  0  0
   37.8160    8.0784    7.1076 O   0  0  0  0  0  0  0  0  0  0  0  0
   38.3113    4.7701    5.5145 O   0  0  0  0  0  0  0  0  0  0  0  0
   38.9890    6.6234    3.3616 O   0  0  0  0  0  0  0  0  0  0  0  0
   39.3789   11.1696    5.9241 O   0  0  0  0  0  0  0  0  0  0  0  0
   41.5721   -1.2362    9.3412 C   0  0  1  0  0  0  0  0  0  0  0  0
   41.0101   -2.5232    9.9845 C   0  0  1  0  0  0  0  0  0  0  0  0
   42.1364   -3.3592   10.6393 C   0  0  2  0  0  0  0  0  0  0  0  0
   43.1925   -3.7275    9.5905 C   0  0  1  0  0  0  0  0  0  0  0  0
   43.7921   -2.4435    8.9624 C   0  0  0  0  0  0  0  0  0  0  0  0
   42.6640   -1.6402    8.3066 C   0  0  2  0  0  0  0  0  0  0  0  0
   44.2715   -4.5169   10.2254 N   0  0  0  0  0  0  0  0  0  0  0  0
   43.2699   -0.4515    7.7128 N   0  0  0  0  0  0  0  0  0  0  0  0
   40.0521   -2.1615   11.0029 O   0  0  0  0  0  0  0  0  0  0  0  0
   41.5602   -4.5580   11.2010 O   0  0  0  0  0  0  0  0  0  0  0  0
  1  2  1  0  0  0  0
  1 12  1  6  0  0  0
  1 13  1  0  0  0  0
  2  3  1  0  0  0  0
  2 10  1  6  0  0  0
  4  3  1  6  0  0  0
  4  5  1  0  0  0  0
  4 14  1  0  0  0  0
  5  6  1  0  0  0  0
  5 13  1  1  0  0  0
  6  7  1  0  0  0  0
  6 15  1  1  0  0  0
  7  8  1  0  0  0  0
  7 11  1  1  0  0  0
  8 14  1  0  0  0  0
  8 16  1  6  0  0  0
  9 11  1  0  0  0  0
 17 16  1  6  0  0  0
 17 18  1  0  0  0  0
 17 24  1  0  0  0  0
 18 19  1  0  0  0  0
 18 25  1  1  0  0  0
 19 20  1  0  0  0  0
 19 26  1  6  0  0  0
 20 21  1  0  0  0  0
 20 23  1  6  0  0  0
 21 22  1  6  0  0  0
 21 24  1  0  0  0  0
 22 27  1  0  0  0  0
 28 12  1  6  0  0  0
 28 29  1  0  0  0  0
 28 33  1  0  0  0  0
 29 30  1  0  0  0  0
 29 36  1  1  0  0  0
 30 31  1  0  0  0  0
 30 37  1  6  0  0  0
 31 32  1  0  0  0  0
 31 34  1  1  0  0  0
 32 33  1  0  0  0  0
 33 35  1  1  0  0  0
M  END
>  <CHROM.1>
-162.28857192,164.57242698,-172.47790987,-104.71500415,-62.71364006,61.60424939
39.95039606,2.98160780,8.19563236,-0.30821576,-1.31244238,0.92410590

>  <Name>
1yrj_lig

>  <RI>
0

>  <Rbt.Current_Directory>
/home/itssahil/PROJECTS/Mol_Feturizer/New_Systems/rnas/1yrj

>  <Rbt.Executable>
rbdock ($Id: //depot/dev/client3/rdock/2013.1/src/exe/rbdock.cxx#4 $)

>  <Rbt.Library>
libRbt.so (2013.1, Build901 2013/11/27)

>  <Rbt.Parameter_File>
/export/apps/rDock/src/rDock_2013.1_src/data/scripts/dock_solv.prm

>  <Rbt.Receptor>
prm/pocket_docking_3.prm

>  <SCORE>
-19.1518

>  <SCORE.INTER>
-16.2765

>  <SCORE.INTER.CONST>
1

>  <SCORE.INTER.POLAR>
-0.788369

>  <SCORE.INTER.ROT>
6

>  <SCORE.INTER.SOLV>
11.4154

>  <SCORE.INTER.VDW>
-19.6282

>  <SCORE.INTER.norm>
-0.439905

>  <SCORE.INTRA>
-2.91364

>  <SCORE.INTRA.DIHEDRAL>
-7.53565

>  <SCORE.INTRA.DIHEDRAL.0>
15.6389

>  <SCORE.INTRA.POLAR>
0

>  <SCORE.INTRA.POLAR.0>
0

>  <SCORE.INTRA.REPUL>
0

>  <SCORE.INTRA.REPUL.0>
0

>  <SCORE.INTRA.SOLV>
-1.15301

>  <SCORE.INTRA.SOLV.lig_0>
-90.9181

>  <SCORE.INTRA.VDW>
1.43069

>  <SCORE.INTRA.VDW.0>
-3.14158

>  <SCORE.INTRA.norm>
-0.0787471

>  <SCORE.RESTR>
0.0383537

>  <SCORE.RESTR.CAVITY>
0.0383537

>  <SCORE.RESTR.norm>
0.00103659

>  <SCORE.SYSTEM>
0

>  <SCORE.SYSTEM.CONST>
0

>  <SCORE.SYSTEM.DIHEDRAL>
0

>  <SCORE.SYSTEM.SOLV>
0

>  <SCORE.SYSTEM.norm>
0

>  <SCORE.heavy>
37

>  <SCORE.norm>
-0.517615

>  <RMSD>
10.246

$$$$
1yrj_lig
 OpenBabel11021811423D
libRbt.so/2013.1/901 2013/11/27
 37 40  0  0  0  0  0  0  0  0999 V2000
   39.1363   -0.1635    9.5209 C   0  0  1  0  0  0  0  0  0  0  0  0
   38.0979    0.0571    8.4035 C   0  0  1  0  0  0  0  0  0  0  0  0
   38.4427    1.2781    7.5360 C   0  0  0  0  0  0  0  0  0  0  0  0
   38.6059    2.5359    8.4287 C   0  0  1  0  0  0  0  0  0  0  0  0
   39.6875    2.2878    9.4972 C   0  0  1  0  0  0  0  0  0  0  0  0
   39.8433    3.5924   10.3871 C   0  0  1  0  0  0  0  0  0  0  0  0
   40.2378    4.7822    9.4971 C   0  0  1  0  0  0  0  0  0  0  0  0
   39.1462    4.9574    8.4135 C   0  0  2  0  0  0  0  0  0  0  0  0
   41.7229    6.7479   10.1581 C   0  0  0  0  0  0  0  0  0  0  0  0
   37.9367   -1.1380    7.5592 N   0  0  0  0  0  0  0  0  0  0  0  0
   40.4360    6.0051   10.3352 N   0  0  0  0  0  0  0  0  0  0  0  0
   40.3872   -0.6981    9.0494 O   0  0  0  0  0  0  0  0  0  0  0  0
   39.3043    1.0933   10.2767 O   0  0  0  0  0  0  0  0  0  0  0  0
   38.9776    3.7343    7.6424 O   0  0  0  0  0  0  0  0  0  0  0  0
   38.6012    3.9060   10.9818 O   0  0  0  0  0  0  0  0  0  0  0  0
   39.4660    6.0078    7.5002 O   0  0  0  0  0  0  0  0  0  0  0  0
   38.3756    6.3421    6.6096 C   0  0  2  0  0  0  0  0  0  0  0  0
   38.8446    6.8639    5.2417 C   0  0  1  0  0  0  0  0  0  0  0  0
   39.5015    8.2639    5.3718 C   0  0  2  0  0  0  0  0  0  0  0  0
   38.5278    9.2324    6.0031 C   0  0  1  0  0  0  0  0  0  0  0  0
   38.0982    8.6946    7.3886 C   0  0  1  0  0  0  0  0  0  0  0  0
   37.0732    9.5908    8.0800 C   0  0  0  0  0  0  0  0  0  0  0  0
   39.1823   10.5522    6.1177 N   0  0  0  0  0  0  0  0  0  0  0  0
   37.4966    7.3580    7.2341 O   0  0  0  0  0  0  0  0  0  0  0  0
   39.7374    5.8965    4.6707 O   0  0  0  0  0  0  0  0  0  0  0  0
   39.8584    8.7523    4.0714 O   0  0  0  0  0  0  0  0  0  0  0  0
   37.1257    9.3772    9.4655 O   0  0  0  0  0  0  0  0  0  0  0  0
   41.4902   -1.2097    9.9639 C   0  0  1  0  0  0  0  0  0  0  0  0
   41.1130   -2.6517   10.3693 C   0  0  1  0  0  0  0  0  0  0  0  0
   42.2124   -3.2903   11.2524 C   0  0  2  0  0  0  0  0  0  0  0  0
   43.5483   -3.3005   10.4999 C   0  0  1  0  0  0  0  0  0  0  0  0
   43.9578   -1.8549   10.1188 C   0  0  0  0  0  0  0  0  0  0  0  0
   42.8648   -1.2484    9.2326 C   0  0  2  0  0  0  0  0  0  0  0  0
   44.5969   -3.9020   11.3538 N   0  0  0  0  0  0  0  0  0  0  0  0
   43.2947    0.1024    8.8813 N   0  0  0  0  0  0  0  0  0  0  0  0
   39.8783   -2.6232   11.1179 O   0  0  0  0  0  0  0  0  0  0  0  0
   41.8207   -4.6408   11.5801 O   0  0  0  0  0  0  0  0  0  0  0  0
  1  2  1  0  0  0  0
  1 12  1  6  0  0  0
  1 13  1  0  0  0  0
  2  3  1  0  0  0  0
  2 10  1  6  0  0  0
  4  3  1  6  0  0  0
  4  5  1  0  0  0  0
  4 14  1  0  0  0  0
  5  6  1  0  0  0  0
  5 13  1  1  0  0  0
  6  7  1  0  0  0  0
  6 15  1  6  0  0  0
  7  8  1  0  0  0  0
  7 11  1  1  0  0  0
  8 14  1  0  0  0  0
  8 16  1  6  0  0  0
  9 11  1  0  0  0  0
 17 16  1  1  0  0  0
 17 18  1  0  0  0  0
 17 24  1  0  0  0  0
 18 19  1  0  0  0  0
 18 25  1  1  0  0  0
 19 20  1  0  0  0  0
 19 26  1  6  0  0  0
 20 21  1  0  0  0  0
 20 23  1  1  0  0  0
 21 22  1  6  0  0  0
 21 24  1  0  0  0  0
 22 27  1  0  0  0  0
 28 12  1  6  0  0  0
 28 29  1  0  0  0  0
 28 33  1  0  0  0  0
 29 30  1  0  0  0  0
 29 36  1  1  0  0  0
 30 31  1  0  0  0  0
 30 37  1  6  0  0  0
 31 32  1  0  0  0  0
 31 34  1  1  0  0  0
 32 33  1  0  0  0  0
 33 35  1  1  0  0  0
M  END
>  <CHROM.1>
-169.96502081,128.22357790,-170.61561140,-149.99866556,-156.64588854,81.60171576
39.94005440,3.04462319,8.64247579,1.24980093,0.53756489,2.98956310

>  <Name>
1yrj_lig

>  <RI>
0

>  <Rbt.Current_Directory>
/home/itssahil/PROJECTS/Mol_Feturizer/New_Systems/rnas/1yrj

>  <Rbt.Executable>
rbdock ($Id: //depot/dev/client3/rdock/2013.1/src/exe/rbdock.cxx#4 $)

>  <Rbt.Library>
libRbt.so (2013.1, Build901 2013/11/27)

>  <Rbt.Parameter_File>
/export/apps/rDock/src/rDock_2013.1_src/data/scripts/dock_solv.prm

>  <Rbt.Receptor>
prm/pocket_docking_4.prm

>  <SCORE>
-23.6578

>  <SCORE.INTER>
-19.2653

>  <SCORE.INTER.CONST>
1

>  <SCORE.INTER.POLAR>
-1.27222

>  <SCORE.INTER.ROT>
6

>  <SCORE.INTER.SOLV>
12.3137

>  <SCORE.INTER.VDW>
-20.3074

>  <SCORE.INTER.norm>
-0.520683

>  <SCORE.INTRA>
-4.3925

>  <SCORE.INTRA.DIHEDRAL>
-6.08926

>  <SCORE.INTRA.DIHEDRAL.0>
15.6389

>  <SCORE.INTRA.POLAR>
0

>  <SCORE.INTRA.POLAR.0>
0

>  <SCORE.INTRA.REPUL>
0

>  <SCORE.INTRA.REPUL.0>
0

>  <SCORE.INTRA.SOLV>
-2.67248

>  <SCORE.INTRA.SOLV.lig_0>
-90.9181

>  <SCORE.INTRA.VDW>
-0.0116325

>  <SCORE.INTRA.VDW.0>
-3.14158

>  <SCORE.INTRA.norm>
-0.118716

>  <SCORE.RESTR>
0

>  <SCORE.RESTR.CAVITY>
0

>  <SCORE.RESTR.norm>
0

>  <SCORE.SYSTEM>
0

>  <SCORE.SYSTEM.CONST>
0

>  <SCORE.SYSTEM.DIHEDRAL>
0

>  <SCORE.SYSTEM.SOLV>
0

>  <SCORE.SYSTEM.norm>
0

>  <SCORE.heavy>
37

>  <SCORE.norm>
-0.639399

>  <RMSD>
10.249

$$$$
1yrj_lig
 OpenBabel11021811423D
libRbt.so/2013.1/901 2013/11/27
 37 40  0  0  0  0  0  0  0  0999 V2000
   38.7947   -0.5241    9.5564 C   0  0  1  0  0  0  0  0  0  0  0  0
   37.7205   -0.3198    8.4702 C   0  0  1  0  0  0  0  0  0  0  0  0
   38.1050    0.7996    7.4897 C   0  0  0  0  0  0  0  0  0  0  0  0
   38.3968    2.1100    8.2665 C   0  0  1  0  0  0  0  0  0  0  0  0
   39.5099    1.8714    9.3044 C   0  0  1  0  0  0  0  0  0  0  0  0
   39.7975    3.2286   10.0747 C   0  0  1  0  0  0  0  0  0  0  0  0
   40.2283    4.3116    9.0722 C   0  0  1  0  0  0  0  0  0  0  0  0
   39.0996    4.4774    8.0258 C   0  0  2  0  0  0  0  0  0  0  0  0
   41.6655    5.5292   10.7922 C   0  0  0  0  0  0  0  0  0  0  0  0
   37.4372   -1.5641    7.7364 N   0  0  0  0  0  0  0  0  0  0  0  0
   40.5501    5.5804    9.7960 N   0  0  0  0  0  0  0  0  0  0  0  0
   39.9818   -1.1835    9.0777 O   0  0  0  0  0  0  0  0  0  0  0  0
   39.0847    0.7739   10.1966 O   0  0  0  0  0  0  0  0  0  0  0  0
   38.8105    3.2116    7.3676 O   0  0  0  0  0  0  0  0  0  0  0  0
   38.6103    3.6774   10.6940 O   0  0  0  0  0  0  0  0  0  0  0  0
   39.4452    5.4253    7.0150 O   0  0  0  0  0  0  0  0  0  0  0  0
   38.3822    5.6559    6.0608 C   0  0  2  0  0  0  0  0  0  0  0  0
   38.8695    6.2899    4.7477 C   0  0  1  0  0  0  0  0  0  0  0  0
   39.3301    7.7550    4.9705 C   0  0  2  0  0  0  0  0  0  0  0  0
   38.1997    8.5652    5.5627 C   0  0  1  0  0  0  0  0  0  0  0  0
   37.7522    7.9197    6.8956 C   0  0  1  0  0  0  0  0  0  0  0  0
   36.5765    8.6491    7.5416 C   0  0  0  0  0  0  0  0  0  0  0  0
   38.6692    9.9512    5.7672 N   0  0  0  0  0  0  0  0  0  0  0  0
   37.3399    6.5253    6.6545 O   0  0  0  0  0  0  0  0  0  0  0  0
   39.9157    5.4681    4.2100 O   0  0  0  0  0  0  0  0  0  0  0  0
   39.7062    8.3388    3.7156 O   0  0  0  0  0  0  0  0  0  0  0  0
   37.0211    9.8659    8.0799 O   0  0  0  0  0  0  0  0  0  0  0  0
   41.1542   -1.5714    9.9663 C   0  0  1  0  0  0  0  0  0  0  0  0
   40.7439   -2.8510   10.7281 C   0  0  1  0  0  0  0  0  0  0  0  0
   41.9013   -3.3690   11.6159 C   0  0  2  0  0  0  0  0  0  0  0  0
   43.1348   -3.6580   10.7521 C   0  0  1  0  0  0  0  0  0  0  0  0
   43.5803   -2.3723   10.0097 C   0  0  0  0  0  0  0  0  0  0  0  0
   42.4268   -1.8867    9.1256 C   0  0  2  0  0  0  0  0  0  0  0  0
   44.2407   -4.1422   11.6084 N   0  0  0  0  0  0  0  0  0  0  0  0
   42.8904   -0.6882    8.4317 N   0  0  0  0  0  0  0  0  0  0  0  0
   39.6113   -2.5536   11.5736 O   0  0  0  0  0  0  0  0  0  0  0  0
   41.4728   -4.5757   12.2830 O   0  0  0  0  0  0  0  0  0  0  0  0
  1  2  1  0  0  0  0
  1 12  1  6  0  0  0
  1 13  1  0  0  0  0
  2  3  1  0  0  0  0
  2 10  1  6  0  0  0
  4  3  1  6  0  0  0
  4  5  1  0  0  0  0
  4 14  1  0  0  0  0
  5  6  1  0  0  0  0
  5 13  1  1  0  0  0
  6  7  1  0  0  0  0
  6 15  1  6  0  0  0
  7  8  1  0  0  0  0
  7 11  1  1  0  0  0
  8 14  1  0  0  0  0
  8 16  1  6  0  0  0
  9 11  1  0  0  0  0
 17 16  1  1  0  0  0
 17 18  1  0  0  0  0
 17 24  1  0  0  0  0
 18 19  1  0  0  0  0
 18 25  1  1  0  0  0
 19 20  1  0  0  0  0
 19 26  1  6  0  0  0
 20 21  1  0  0  0  0
 20 23  1  1  0  0  0
 21 22  1  6  0  0  0
 21 24  1  0  0  0  0
 22 27  1  0  0  0  0
 28 12  1  6  0  0  0
 28 29  1  0  0  0  0
 28 33  1  0  0  0  0
 29 30  1  0  0  0  0
 29 36  1  1  0  0  0
 30 31  1  0  0  0  0
 30 37  1  6  0  0  0
 31 32  1  0  0  0  0
 31 34  1  1  0  0  0
 32 33  1  0  0  0  0
 33 35  1  1  0  0  0
M  END
>  <CHROM.1>
-176.43851095,61.10649809,-176.90601071,-161.17592711,-73.14687538,77.77119540
39.71468687,2.60210856,8.46317014,1.18976865,0.79541152,3.02596175

>  <Name>
1yrj_lig

>  <RI>
0

>  <Rbt.Current_Directory>
/home/itssahil/PROJECTS/Mol_Feturizer/New_Systems/rnas/1yrj

>  <Rbt.Executable>
rbdock ($Id: //depot/dev/client3/rdock/2013.1/src/exe/rbdock.cxx#4 $)

>  <Rbt.Library>
libRbt.so (2013.1, Build901 2013/11/27)

>  <Rbt.Parameter_File>
/export/apps/rDock/src/rDock_2013.1_src/data/scripts/dock_solv.prm

>  <Rbt.Receptor>
prm/pocket_docking_4.prm

>  <SCORE>
-30.3282

>  <SCORE.INTER>
-24.6685

>  <SCORE.INTER.CONST>
1

>  <SCORE.INTER.POLAR>
-1.39988

>  <SCORE.INTER.ROT>
6

>  <SCORE.INTER.SOLV>
14.6863

>  <SCORE.INTER.VDW>
-24.2748

>  <SCORE.INTER.norm>
-0.666717

>  <SCORE.INTRA>
-5.65967

>  <SCORE.INTRA.DIHEDRAL>
-11.7682

>  <SCORE.INTRA.DIHEDRAL.0>
15.6389

>  <SCORE.INTRA.POLAR>
0

>  <SCORE.INTRA.POLAR.0>
0

>  <SCORE.INTRA.REPUL>
0

>  <SCORE.INTRA.REPUL.0>
0

>  <SCORE.INTRA.SOLV>
-1.89234

>  <SCORE.INTRA.SOLV.lig_0>
-90.9181

>  <SCORE.INTRA.VDW>
1.17062

>  <SCORE.INTRA.VDW.0>
-3.14158

>  <SCORE.INTRA.norm>
-0.152964

>  <SCORE.RESTR>
0

>  <SCORE.RESTR.CAVITY>
0

>  <SCORE.RESTR.norm>
0

>  <SCORE.SYSTEM>
0

>  <SCORE.SYSTEM.CONST>
0

>  <SCORE.SYSTEM.DIHEDRAL>
0

>  <SCORE.SYSTEM.SOLV>
0

>  <SCORE.SYSTEM.norm>
0

>  <SCORE.heavy>
37

>  <SCORE.norm>
-0.819681

>  <RMSD>
10.250

$$$$
1yrj_lig
 OpenBabel11021811423D
libRbt.so/2013.1/901 2013/11/27
 37 40  0  0  0  0  0  0  0  0999 V2000
   38.8047   -0.5762    9.5695 C   0  0  1  0  0  0  0  0  0  0  0  0
   37.7423   -0.3721    8.4717 C   0  0  1  0  0  0  0  0  0  0  0  0
   38.1370    0.7475    7.4956 C   0  0  0  0  0  0  0  0  0  0  0  0
   38.4199    2.0579    8.2757 C   0  0  1  0  0  0  0  0  0  0  0  0
   39.5217    1.8196    9.3255 C   0  0  1  0  0  0  0  0  0  0  0  0
   39.8004    3.1768   10.0991 C   0  0  1  0  0  0  0  0  0  0  0  0
   40.2417    4.2601    9.1015 C   0  0  1  0  0  0  0  0  0  0  0  0
   39.1244    4.4256    8.0429 C   0  0  2  0  0  0  0  0  0  0  0  0
   41.7212    5.5034   10.7664 C   0  0  0  0  0  0  0  0  0  0  0  0
   37.4674   -1.6165    7.7347 N   0  0  0  0  0  0  0  0  0  0  0  0
   40.5551    5.5289    9.8290 N   0  0  0  0  0  0  0  0  0  0  0  0
   39.9972   -1.2351    9.1036 O   0  0  0  0  0  0  0  0  0  0  0  0
   39.0873    0.7218   10.2130 O   0  0  0  0  0  0  0  0  0  0  0  0
   38.8429    3.1598    7.3814 O   0  0  0  0  0  0  0  0  0  0  0  0
   38.6064    3.6251   10.7056 O   0  0  0  0  0  0  0  0  0  0  0  0
   39.4806    5.3738    7.0361 O   0  0  0  0  0  0  0  0  0  0  0  0
   38.4240    5.6125    6.0768 C   0  0  2  0  0  0  0  0  0  0  0  0
   38.9174    6.2726    4.7790 C   0  0  1  0  0  0  0  0  0  0  0  0
   39.3644    7.7372    5.0307 C   0  0  2  0  0  0  0  0  0  0  0  0
   38.2228    8.5284    5.6269 C   0  0  1  0  0  0  0  0  0  0  0  0
   37.7691    7.8567    6.9447 C   0  0  1  0  0  0  0  0  0  0  0  0
   36.5823    8.5659    7.5929 C   0  0  0  0  0  0  0  0  0  0  0  0
   38.6796    9.9143    5.8590 N   0  0  0  0  0  0  0  0  0  0  0  0
   37.3698    6.4635    6.6763 O   0  0  0  0  0  0  0  0  0  0  0  0
   39.9745    5.4682    4.2363 O   0  0  0  0  0  0  0  0  0  0  0  0
   39.7466    8.3452    3.7892 O   0  0  0  0  0  0  0  0  0  0  0  0
   36.9800    9.8389    8.0277 O   0  0  0  0  0  0  0  0  0  0  0  0
   41.1635   -1.6152   10.0034 C   0  0  1  0  0  0  0  0  0  0  0  0
   40.7339   -2.8660   10.8014 C   0  0  1  0  0  0  0  0  0  0  0  0
   41.8833   -3.3760   11.7041 C   0  0  2  0  0  0  0  0  0  0  0  0
   43.1122   -3.7084   10.8495 C   0  0  1  0  0  0  0  0  0  0  0  0
   43.5772   -2.4514   10.0707 C   0  0  0  0  0  0  0  0  0  0  0  0
   42.4311   -1.9738    9.1726 C   0  0  2  0  0  0  0  0  0  0  0  0
   44.2106   -4.1846   11.7196 N   0  0  0  0  0  0  0  0  0  0  0  0
   42.9130   -0.8029    8.4448 N   0  0  0  0  0  0  0  0  0  0  0  0
   39.6060   -2.5273   11.6375 O   0  0  0  0  0  0  0  0  0  0  0  0
   41.4365   -4.5564   12.4053 O   0  0  0  0  0  0  0  0  0  0  0  0
  1  2  1  0  0  0  0
  1 12  1  6  0  0  0
  1 13  1  0  0  0  0
  2  3  1  0  0  0  0
  2 10  1  6  0  0  0
  4  3  1  6  0  0  0
  4  5  1  0  0  0  0
  4 14  1  0  0  0  0
  5  6  1  0  0  0  0
  5 13  1  1  0  0  0
  6  7  1  0  0  0  0
  6 15  1  6  0  0  0
  7  8  1  0  0  0  0
  7 11  1  1  0  0  0
  8 14  1  0  0  0  0
  8 16  1  6  0  0  0
  9 11  1  0  0  0  0
 17 16  1  1  0  0  0
 17 18  1  0  0  0  0
 17 24  1  0  0  0  0
 18 19  1  0  0  0  0
 18 25  1  1  0  0  0
 19 20  1  0  0  0  0
 19 26  1  6  0  0  0
 20 21  1  0  0  0  0
 20 23  1  1  0  0  0
 21 22  1  6  0  0  0
 21 24  1  0  0  0  0
 22 27  1  0  0  0  0
 28 12  1  6  0  0  0
 28 29  1  0  0  0  0
 28 33  1  0  0  0  0
 29 30  1  0  0  0  0
 29 36  1  1  0  0  0
 30 31  1  0  0  0  0
 30 37  1  6  0  0  0
 31 32  1  0  0  0  0
 31 34  1  1  0  0  0
 32 33  1  0  0  0  0
 33 35  1  1  0  0  0
M  END
>  <CHROM.1>
-176.82140778,65.28348313,-176.42030445,-162.33859186,-66.82060783,76.03772582
39.72797491,2.56014932,8.49958254,1.23513096,0.67168674,2.95866996

>  <Name>
1yrj_lig

>  <RI>
0

>  <Rbt.Current_Directory>
/home/itssahil/PROJECTS/Mol_Feturizer/New_Systems/rnas/1yrj

>  <Rbt.Executable>
rbdock ($Id: //depot/dev/client3/rdock/2013.1/src/exe/rbdock.cxx#4 $)

>  <Rbt.Library>
libRbt.so (2013.1, Build901 2013/11/27)

>  <Rbt.Parameter_File>
/export/apps/rDock/src/rDock_2013.1_src/data/scripts/dock_solv.prm

>  <Rbt.Receptor>
prm/pocket_docking_8.prm

>  <SCORE>
-30.4278

>  <SCORE.INTER>
-24.3148

>  <SCORE.INTER.CONST>
1

>  <SCORE.INTER.POLAR>
-1.42599

>  <SCORE.INTER.ROT>
6

>  <SCORE.INTER.SOLV>
14.8202

>  <SCORE.INTER.VDW>
-23.9967

>  <SCORE.INTER.norm>
-0.657157

>  <SCORE.INTRA>
-6.11296

>  <SCORE.INTRA.DIHEDRAL>
-12.6055

>  <SCORE.INTRA.DIHEDRAL.0>
15.6389

>  <SCORE.INTRA.POLAR>
0

>  <SCORE.INTRA.POLAR.0>
0

>  <SCORE.INTRA.REPUL>
0

>  <SCORE.INTRA.REPUL.0>
0

>  <SCORE.INTRA.SOLV>
-1.85442

>  <SCORE.INTRA.SOLV.lig_0>
-90.9181

>  <SCORE.INTRA.VDW>
1.11698

>  <SCORE.INTRA.VDW.0>
-3.14158

>  <SCORE.INTRA.norm>
-0.165215

>  <SCORE.RESTR>
0

>  <SCORE.RESTR.CAVITY>
0

>  <SCORE.RESTR.norm>
0

>  <SCORE.SYSTEM>
0

>  <SCORE.SYSTEM.CONST>
0

>  <SCORE.SYSTEM.DIHEDRAL>
0

>  <SCORE.SYSTEM.SOLV>
0

>  <SCORE.SYSTEM.norm>
0

>  <SCORE.heavy>
37

>  <SCORE.norm>
-0.822373

>  <RMSD>
10.251

$$$$
1yrj_lig
 OpenBabel11021811423D
libRbt.so/2013.1/901 2013/11/27
 37 40  0  0  0  0  0  0  0  0999 V2000
   39.4674    0.3811    9.5527 C   0  0  1  0  0  0  0  0  0  0  0  0
   38.2264    0.4617    8.6423 C   0  0  1  0  0  0  0  0  0  0  0  0
   38.2755    1.6877    7.7166 C   0  0  0  0  0  0  0  0  0  0  0  0
   38.4615    2.9796    8.5545 C   0  0  1  0  0  0  0  0  0  0  0  0
   39.7388    2.8749    9.4092 C   0  0  1  0  0  0  0  0  0  0  0  0
   39.9121    4.2125   10.2452 C   0  0  1  0  0  0  0  0  0  0  0  0
   40.0091    5.4120    9.2885 C   0  0  1  0  0  0  0  0  0  0  0  0
   38.7271    5.4429    8.4214 C   0  0  2  0  0  0  0  0  0  0  0  0
   41.5771    6.8738   10.6708 C   0  0  0  0  0  0  0  0  0  0  0  0
   38.0444   -0.7664    7.8512 N   0  0  0  0  0  0  0  0  0  0  0  0
   40.2232    6.6714   10.0666 N   0  0  0  0  0  0  0  0  0  0  0  0
   40.6625   -0.0332    8.8647 O   0  0  0  0  0  0  0  0  0  0  0  0
   39.6335    1.6687   10.2550 O   0  0  0  0  0  0  0  0  0  0  0  0
   38.5539    4.1882    7.7039 O   0  0  0  0  0  0  0  0  0  0  0  0
   38.7718    4.4112   11.0544 O   0  0  0  0  0  0  0  0  0  0  0  0
   38.7616    6.4954    7.4567 O   0  0  0  0  0  0  0  0  0  0  0  0
   37.4557    7.0458    7.1648 C   0  0  2  0  0  0  0  0  0  0  0  0
   37.4843    8.1449    6.0901 C   0  0  1  0  0  0  0  0  0  0  0  0
   38.1851    9.4252    6.6172 C   0  0  2  0  0  0  0  0  0  0  0  0
   37.4847    9.9195    7.8622 C   0  0  1  0  0  0  0  0  0  0  0  0
   37.4985    8.8033    8.9334 C   0  0  1  0  0  0  0  0  0  0  0  0
   36.7665    9.2013   10.2130 C   0  0  0  0  0  0  0  0  0  0  0  0
   38.1761   11.1340    8.3420 N   0  0  0  0  0  0  0  0  0  0  0  0
   36.8443    7.5965    8.3968 O   0  0  0  0  0  0  0  0  0  0  0  0
   38.1269    7.6169    4.9207 O   0  0  0  0  0  0  0  0  0  0  0  0
   38.1276   10.4528    5.6184 O   0  0  0  0  0  0  0  0  0  0  0  0
   36.3031    8.0480   10.8635 O   0  0  0  0  0  0  0  0  0  0  0  0
   41.0107   -1.4838    8.5667 C   0  0  1  0  0  0  0  0  0  0  0  0
   41.9444   -1.4841    7.3362 C   0  0  1  0  0  0  0  0  0  0  0  0
   42.4132   -2.9182    6.9899 C   0  0  2  0  0  0  0  0  0  0  0  0
   43.1430   -3.5345    8.1893 C   0  0  1  0  0  0  0  0  0  0  0  0
   42.2048   -3.5744    9.4226 C   0  0  0  0  0  0  0  0  0  0  0  0
   41.7664   -2.1448    9.7573 C   0  0  2  0  0  0  0  0  0  0  0  0
   43.5785   -4.9090    7.8554 N   0  0  0  0  0  0  0  0  0  0  0  0
   40.9013   -2.2228   10.9313 N   0  0  0  0  0  0  0  0  0  0  0  0
   41.2301   -0.9456    6.2023 O   0  0  0  0  0  0  0  0  0  0  0  0
   43.2996   -2.8566    5.8519 O   0  0  0  0  0  0  0  0  0  0  0  0
  1  2  1  0  0  0  0
  1 12  1  6  0  0  0
  1 13  1  0  0  0  0
  2  3  1  0  0  0  0
  2 10  1  6  0  0  0
  4  3  1  6  0  0  0
  4  5  1  0  0  0  0
  4 14  1  0  0  0  0
  5  6  1  0  0  0  0
  5 13  1  1  0  0  0
  6  7  1  0  0  0  0
  6 15  1  1  0  0  0
  7  8  1  0  0  0  0
  7 11  1  1  0  0  0
  8 14  1  0  0  0  0
  8 16  1  6  0  0  0
  9 11  1  0  0  0  0
 17 16  1  1  0  0  0
 17 18  1  0  0  0  0
 17 24  1  0  0  0  0
 18 19  1  0  0  0  0
 18 25  1  6  0  0  0
 19 20  1  0  0  0  0
 19 26  1  6  0  0  0
 20 21  1  0  0  0  0
 20 23  1  1  0  0  0
 21 22  1  1  0  0  0
 21 24  1  0  0  0  0
 22 27  1  0  0  0  0
 28 12  1  1  0  0  0
 28 29  1  0  0  0  0
 28 33  1  0  0  0  0
 29 30  1  0  0  0  0
 29 36  1  6  0  0  0
 30 31  1  0  0  0  0
 30 37  1  6  0  0  0
 31 32  1  0  0  0  0
 31 34  1  6  0  0  0
 32 33  1  0  0  0  0
 33 35  1  1  0  0  0
M  END
>  <CHROM.1>
-82.03266832,73.06567388,-147.72806718,-177.95641240,154.14701916,154.88080284
39.52524288,3.40914192,8.41575604,0.30909463,-1.21290879,1.88486973

>  <Name>
1yrj_lig

>  <RI>
0

>  <Rbt.Current_Directory>
/home/itssahil/PROJECTS/Mol_Feturizer/New_Systems/rnas/1yrj

>  <Rbt.Executable>
rbdock ($Id: //depot/dev/client3/rdock/2013.1/src/exe/rbdock.cxx#4 $)

>  <Rbt.Library>
libRbt.so (2013.1, Build901 2013/11/27)

>  <Rbt.Parameter_File>
/export/apps/rDock/src/rDock_2013.1_src/data/scripts/dock_solv.prm

>  <Rbt.Receptor>
prm/pocket_docking_6.prm

>  <SCORE>
-27.033

>  <SCORE.INTER>
-25.0531

>  <SCORE.INTER.CONST>
1

>  <SCORE.INTER.POLAR>
-2.01237

>  <SCORE.INTER.ROT>
6

>  <SCORE.INTER.SOLV>
14.4575

>  <SCORE.INTER.VDW>
-22.4134

>  <SCORE.INTER.norm>
-0.677112

>  <SCORE.INTRA>
-1.9799

>  <SCORE.INTRA.DIHEDRAL>
-4.5131

>  <SCORE.INTRA.DIHEDRAL.0>
15.6389

>  <SCORE.INTRA.POLAR>
0

>  <SCORE.INTRA.POLAR.0>
0

>  <SCORE.INTRA.REPUL>
1.26484e-06

>  <SCORE.INTRA.REPUL.0>
0

>  <SCORE.INTRA.SOLV>
0.170645

>  <SCORE.INTRA.SOLV.lig_0>
-90.9181

>  <SCORE.INTRA.VDW>
0.191319

>  <SCORE.INTRA.VDW.0>
-3.14158

>  <SCORE.INTRA.norm>
-0.0535108

>  <SCORE.RESTR>
0

>  <SCORE.RESTR.CAVITY>
0

>  <SCORE.RESTR.norm>
0

>  <SCORE.SYSTEM>
0

>  <SCORE.SYSTEM.CONST>
0

>  <SCORE.SYSTEM.DIHEDRAL>
0

>  <SCORE.SYSTEM.SOLV>
0

>  <SCORE.SYSTEM.norm>
0

>  <SCORE.heavy>
37

>  <SCORE.norm>
-0.730622

>  <RMSD>
10.252

$$$$
1yrj_lig
 OpenBabel11021811423D
libRbt.so/2013.1/901 2013/11/27
 37 40  0  0  0  0  0  0  0  0999 V2000
   39.6155    0.3975    9.6093 C   0  0  1  0  0  0  0  0  0  0  0  0
   38.3189    0.3643    8.7767 C   0  0  1  0  0  0  0  0  0  0  0  0
   38.2802    1.4933    7.7344 C   0  0  0  0  0  0  0  0  0  0  0  0
   38.4855    2.8651    8.4284 C   0  0  1  0  0  0  0  0  0  0  0  0
   39.8155    2.8694    9.2057 C   0  0  1  0  0  0  0  0  0  0  0  0
   40.0069    4.2862    9.8941 C   0  0  1  0  0  0  0  0  0  0  0  0
   40.0146    5.3867    8.8206 C   0  0  1  0  0  0  0  0  0  0  0  0
   38.6811    5.3076    8.0385 C   0  0  2  0  0  0  0  0  0  0  0  0
   40.9375    7.7569    8.6281 C   0  0  0  0  0  0  0  0  0  0  0  0
   38.1188   -0.9392    8.1227 N   0  0  0  0  0  0  0  0  0  0  0  0
   40.2452    6.7208    9.4566 N   0  0  0  0  0  0  0  0  0  0  0  0
   40.7756   -0.0606    8.8900 O   0  0  0  0  0  0  0  0  0  0  0  0
   39.7927    1.7512   10.1703 O   0  0  0  0  0  0  0  0  0  0  0  0
   38.4951    3.9850    7.4596 O   0  0  0  0  0  0  0  0  0  0  0  0
   38.9142    4.5429   10.7514 O   0  0  0  0  0  0  0  0  0  0  0  0
   38.6297    6.2598    6.9753 O   0  0  0  0  0  0  0  0  0  0  0  0
   37.3144    6.8314    6.7834 C   0  0  2  0  0  0  0  0  0  0  0  0
   37.2743    7.9151    5.6936 C   0  0  1  0  0  0  0  0  0  0  0  0
   38.0393    9.1887    6.1421 C   0  0  2  0  0  0  0  0  0  0  0  0
   37.4530    9.7131    7.4329 C   0  0  1  0  0  0  0  0  0  0  0  0
   37.5348    8.6114    8.5159 C   0  0  1  0  0  0  0  0  0  0  0  0
   36.9180    9.0407    9.8453 C   0  0  0  0  0  0  0  0  0  0  0  0
   38.2036   10.9204    7.8359 N   0  0  0  0  0  0  0  0  0  0  0  0
   36.8167    7.4103    8.0531 O   0  0  0  0  0  0  0  0  0  0  0  0
   37.8087    7.3591    4.4835 O   0  0  0  0  0  0  0  0  0  0  0  0
   37.9184   10.2036    5.1361 O   0  0  0  0  0  0  0  0  0  0  0  0
   36.5259    7.9033   10.5667 O   0  0  0  0  0  0  0  0  0  0  0  0
   41.0663   -1.5237    8.5916 C   0  0  1  0  0  0  0  0  0  0  0  0
   41.9010   -1.5662    7.2926 C   0  0  1  0  0  0  0  0  0  0  0  0
   42.3085   -3.0165    6.9365 C   0  0  2  0  0  0  0  0  0  0  0  0
   43.1153   -3.6311    8.0865 C   0  0  1  0  0  0  0  0  0  0  0  0
   42.2755   -3.6287    9.3893 C   0  0  0  0  0  0  0  0  0  0  0  0
   41.8973   -2.1838    9.7315 C   0  0  2  0  0  0  0  0  0  0  0  0
   43.4920   -5.0208    7.7442 N   0  0  0  0  0  0  0  0  0  0  0  0
   41.1247   -2.2222   10.9703 N   0  0  0  0  0  0  0  0  0  0  0  0
   41.1130   -1.0287    6.2081 O   0  0  0  0  0  0  0  0  0  0  0  0
   43.1047   -2.9944    5.7322 O   0  0  0  0  0  0  0  0  0  0  0  0
  1  2  1  0  0  0  0
  1 12  1  6  0  0  0
  1 13  1  0  0  0  0
  2  3  1  0  0  0  0
  2 10  1  6  0  0  0
  4  3  1  6  0  0  0
  4  5  1  0  0  0  0
  4 14  1  0  0  0  0
  5  6  1  0  0  0  0
  5 13  1  1  0  0  0
  6  7  1  0  0  0  0
  6 15  1  1  0  0  0
  7  8  1  0  0  0  0
  7 11  1  1  0  0  0
  8 14  1  0  0  0  0
  8 16  1  6  0  0  0
  9 11  1  0  0  0  0
 17 16  1  1  0  0  0
 17 18  1  0  0  0  0
 17 24  1  0  0  0  0
 18 19  1  0  0  0  0
 18 25  1  6  0  0  0
 19 20  1  0  0  0  0
 19 26  1  6  0  0  0
 20 21  1  0  0  0  0
 20 23  1  1  0  0  0
 21 22  1  1  0  0  0
 21 24  1  0  0  0  0
 22 27  1  0  0  0  0
 28 12  1  1  0  0  0
 28 29  1  0  0  0  0
 28 33  1  0  0  0  0
 29 30  1  0  0  0  0
 29 36  1  6  0  0  0
 30 31  1  0  0  0  0
 30 37  1  6  0  0  0
 31 32  1  0  0  0  0
 31 34  1  6  0  0  0
 32 33  1  0  0  0  0
 33 35  1  1  0  0  0
M  END
>  <CHROM.1>
-75.55088919,150.56613818,-143.20818456,176.69005320,155.92548412,151.94952143
39.50498140,3.32879686,8.14782861,0.41479416,-1.19493109,1.95379533

>  <Name>
1yrj_lig

>  <RI>
0

>  <Rbt.Current_Directory>
/home/itssahil/PROJECTS/Mol_Feturizer/New_Systems/rnas/1yrj

>  <Rbt.Executable>
rbdock ($Id: //depot/dev/client3/rdock/2013.1/src/exe/rbdock.cxx#4 $)

>  <Rbt.Library>
libRbt.so (2013.1, Build901 2013/11/27)

>  <Rbt.Parameter_File>
/export/apps/rDock/src/rDock_2013.1_src/data/scripts/dock_solv.prm

>  <Rbt.Receptor>
prm/pocket_docking_6.prm

>  <SCORE>
-26.6339

>  <SCORE.INTER>
-24.4541

>  <SCORE.INTER.CONST>
1

>  <SCORE.INTER.POLAR>
-2.10408

>  <SCORE.INTER.ROT>
6

>  <SCORE.INTER.SOLV>
13.7976

>  <SCORE.INTER.VDW>
-21.4883

>  <SCORE.INTER.norm>
-0.66092

>  <SCORE.INTRA>
-2.17985

>  <SCORE.INTRA.DIHEDRAL>
-3.89843

>  <SCORE.INTRA.DIHEDRAL.0>
15.6389

>  <SCORE.INTRA.POLAR>
0

>  <SCORE.INTRA.POLAR.0>
0

>  <SCORE.INTRA.REPUL>
0.00237717

>  <SCORE.INTRA.REPUL.0>
0

>  <SCORE.INTRA.SOLV>
1.11877

>  <SCORE.INTRA.SOLV.lig_0>
-90.9181

>  <SCORE.INTRA.VDW>
-0.80191

>  <SCORE.INTRA.VDW.0>
-3.14158

>  <SCORE.INTRA.norm>
-0.0589149

>  <SCORE.RESTR>
0

>  <SCORE.RESTR.CAVITY>
0

>  <SCORE.RESTR.norm>
0

>  <SCORE.SYSTEM>
0

>  <SCORE.SYSTEM.CONST>
0

>  <SCORE.SYSTEM.DIHEDRAL>
0

>  <SCORE.SYSTEM.SOLV>
0

>  <SCORE.SYSTEM.norm>
0

>  <SCORE.heavy>
37

>  <SCORE.norm>
-0.719835

>  <RMSD>
10.252

$$$$
1yrj_lig
 OpenBabel11021811423D
libRbt.so/2013.1/901 2013/11/27
 37 40  0  0  0  0  0  0  0  0999 V2000
   38.7701   -0.4499    9.6125 C   0  0  1  0  0  0  0  0  0  0  0  0
   37.6937   -0.2119    8.5353 C   0  0  1  0  0  0  0  0  0  0  0  0
   38.0796    0.9329    7.5851 C   0  0  0  0  0  0  0  0  0  0  0  0
   38.3782    2.2203    8.3970 C   0  0  1  0  0  0  0  0  0  0  0  0
   39.4930    1.9492    9.4249 C   0  0  1  0  0  0  0  0  0  0  0  0
   39.7875    3.2835   10.2317 C   0  0  1  0  0  0  0  0  0  0  0  0
   40.2195    4.3923    9.2584 C   0  0  1  0  0  0  0  0  0  0  0  0
   39.0887    4.5909    8.2200 C   0  0  2  0  0  0  0  0  0  0  0  0
   41.8137    5.6356   10.8138 C   0  0  0  0  0  0  0  0  0  0  0  0
   37.4041   -1.4344    7.7681 N   0  0  0  0  0  0  0  0  0  0  0  0
   40.5476    5.6395   10.0162 N   0  0  0  0  0  0  0  0  0  0  0  0
   39.9536   -1.0999    9.1125 O   0  0  0  0  0  0  0  0  0  0  0  0
   39.0663    0.8289   10.2876 O   0  0  0  0  0  0  0  0  0  0  0  0
   38.7934    3.3449    7.5278 O   0  0  0  0  0  0  0  0  0  0  0  0
   38.6034    3.7191   10.8664 O   0  0  0  0  0  0  0  0  0  0  0  0
   39.4350    5.5653    7.2350 O   0  0  0  0  0  0  0  0  0  0  0  0
   38.3485    5.8747    6.3309 C   0  0  2  0  0  0  0  0  0  0  0  0
   38.8124    6.5487    5.0293 C   0  0  1  0  0  0  0  0  0  0  0  0
   39.3334    7.9856    5.2978 C   0  0  2  0  0  0  0  0  0  0  0  0
   38.2547    8.8077    5.9650 C   0  0  1  0  0  0  0  0  0  0  0  0
   37.8308    8.1200    7.2844 C   0  0  1  0  0  0  0  0  0  0  0  0
   36.7056    8.8607    8.0035 C   0  0  0  0  0  0  0  0  0  0  0  0
   38.7811   10.1662    6.2115 N   0  0  0  0  0  0  0  0  0  0  0  0
   37.3598    6.7528    6.9989 O   0  0  0  0  0  0  0  0  0  0  0  0
   39.8086    5.7155    4.4190 O   0  0  0  0  0  0  0  0  0  0  0  0
   39.6866    8.6107    4.0562 O   0  0  0  0  0  0  0  0  0  0  0  0
   37.1810   10.0974    8.4645 O   0  0  0  0  0  0  0  0  0  0  0  0
   41.1287   -1.5125    9.9862 C   0  0  1  0  0  0  0  0  0  0  0  0
   40.7108   -2.7982   10.7335 C   0  0  1  0  0  0  0  0  0  0  0  0
   41.8696   -3.3407   11.6046 C   0  0  2  0  0  0  0  0  0  0  0  0
   43.0932   -3.6306   10.7271 C   0  0  1  0  0  0  0  0  0  0  0  0
   43.5464   -2.3394    9.9991 C   0  0  0  0  0  0  0  0  0  0  0  0
   42.3912   -1.8293    9.1311 C   0  0  2  0  0  0  0  0  0  0  0  0
   44.2005   -4.1382   11.5677 N   0  0  0  0  0  0  0  0  0  0  0  0
   42.8621   -0.6262    8.4502 N   0  0  0  0  0  0  0  0  0  0  0  0
   39.5881   -2.5008   11.5920 O   0  0  0  0  0  0  0  0  0  0  0  0
   41.4335   -4.5520   12.2583 O   0  0  0  0  0  0  0  0  0  0  0  0
  1  2  1  0  0  0  0
  1 12  1  6  0  0  0
  1 13  1  0  0  0  0
  2  3  1  0  0  0  0
  2 10  1  6  0  0  0
  4  3  1  6  0  0  0
  4  5  1  0  0  0  0
  4 14  1  0  0  0  0
  5  6  1  0  0  0  0
  5 13  1  1  0  0  0
  6  7  1  0  0  0  0
  6 15  1  6  0  0  0
  7  8  1  0  0  0  0
  7 11  1  1  0  0  0
  8 14  1  0  0  0  0
  8 16  1  6  0  0  0
  9 11  1  0  0  0  0
 17 16  1  1  0  0  0
 17 18  1  0  0  0  0
 17 24  1  0  0  0  0
 18 19  1  0  0  0  0
 18 25  1  1  0  0  0
 19 20  1  0  0  0  0
 19 26  1  6  0  0  0
 20 21  1  0  0  0  0
 20 23  1  1  0  0  0
 21 22  1  6  0  0  0
 21 24  1  0  0  0  0
 22 27  1  0  0  0  0
 28 12  1  6  0  0  0
 28 29  1  0  0  0  0
 28 33  1  0  0  0  0
 29 30  1  0  0  0  0
 29 36  1  1  0  0  0
 30 31  1  0  0  0  0
 30 37  1  6  0  0  0
 31 32  1  0  0  0  0
 31 34  1  1  0  0  0
 32 33  1  0  0  0  0
 33 35  1  1  0  0  0
M  END
>  <CHROM.1>
-176.63424587,72.14161385,-174.01442424,-161.45665182,-67.43441515,76.95953634
39.71236300,2.72334356,8.61982535,1.22762952,0.71963195,3.01287878

>  <Name>
1yrj_lig

>  <RI>
0

>  <Rbt.Current_Directory>
/home/itssahil/PROJECTS/Mol_Feturizer/New_Systems/rnas/1yrj

>  <Rbt.Executable>
rbdock ($Id: //depot/dev/client3/rdock/2013.1/src/exe/rbdock.cxx#4 $)

>  <Rbt.Library>
libRbt.so (2013.1, Build901 2013/11/27)

>  <Rbt.Parameter_File>
/export/apps/rDock/src/rDock_2013.1_src/data/scripts/dock_solv.prm

>  <Rbt.Receptor>
prm/pocket_docking_5.prm

>  <SCORE>
-29.9374

>  <SCORE.INTER>
-23.7875

>  <SCORE.INTER.CONST>
1

>  <SCORE.INTER.POLAR>
-1.40255

>  <SCORE.INTER.ROT>
6

>  <SCORE.INTER.SOLV>
14.2224

>  <SCORE.INTER.VDW>
-23.5239

>  <SCORE.INTER.norm>
-0.642905

>  <SCORE.INTRA>
-6.1499

>  <SCORE.INTRA.DIHEDRAL>
-12.0966

>  <SCORE.INTRA.DIHEDRAL.0>
15.6389

>  <SCORE.INTRA.POLAR>
0

>  <SCORE.INTRA.POLAR.0>
0

>  <SCORE.INTRA.REPUL>
0

>  <SCORE.INTRA.REPUL.0>
0

>  <SCORE.INTRA.SOLV>
-1.84901

>  <SCORE.INTRA.SOLV.lig_0>
-90.9181

>  <SCORE.INTRA.VDW>
0.822914

>  <SCORE.INTRA.VDW.0>
-3.14158

>  <SCORE.INTRA.norm>
-0.166214

>  <SCORE.RESTR>
0

>  <SCORE.RESTR.CAVITY>
0

>  <SCORE.RESTR.norm>
0

>  <SCORE.SYSTEM>
0

>  <SCORE.SYSTEM.CONST>
0

>  <SCORE.SYSTEM.DIHEDRAL>
0

>  <SCORE.SYSTEM.SOLV>
0

>  <SCORE.SYSTEM.norm>
0

>  <SCORE.heavy>
37

>  <SCORE.norm>
-0.809119

>  <RMSD>
10.253

$$$$
1yrj_lig
 OpenBabel11021811423D
libRbt.so/2013.1/901 2013/11/27
 37 40  0  0  0  0  0  0  0  0999 V2000
   39.4768    0.3645    9.5612 C   0  0  1  0  0  0  0  0  0  0  0  0
   38.2394    0.4422    8.6456 C   0  0  1  0  0  0  0  0  0  0  0  0
   38.2902    1.6674    7.7191 C   0  0  0  0  0  0  0  0  0  0  0  0
   38.4705    2.9604    8.5565 C   0  0  1  0  0  0  0  0  0  0  0  0
   39.7445    2.8586    9.4166 C   0  0  1  0  0  0  0  0  0  0  0  0
   39.9121    4.1972   10.2521 C   0  0  1  0  0  0  0  0  0  0  0  0
   40.0109    5.3961    9.2948 C   0  0  1  0  0  0  0  0  0  0  0  0
   38.7324    5.4241    8.4224 C   0  0  2  0  0  0  0  0  0  0  0  0
   41.5645    6.8525   10.6989 C   0  0  0  0  0  0  0  0  0  0  0  0
   38.0627   -0.7869    7.8549 N   0  0  0  0  0  0  0  0  0  0  0  0
   40.2197    6.6566   10.0726 N   0  0  0  0  0  0  0  0  0  0  0  0
   40.6753   -0.0483    8.8785 O   0  0  0  0  0  0  0  0  0  0  0  0
   39.6378    1.6530   10.2630 O   0  0  0  0  0  0  0  0  0  0  0  0
   38.5644    4.1684    7.7053 O   0  0  0  0  0  0  0  0  0  0  0  0
   38.7681    4.3948   11.0564 O   0  0  0  0  0  0  0  0  0  0  0  0
   38.7691    6.4758    7.4569 O   0  0  0  0  0  0  0  0  0  0  0  0
   37.4653    7.0342    7.1706 C   0  0  2  0  0  0  0  0  0  0  0  0
   37.4941    8.1236    6.0862 C   0  0  1  0  0  0  0  0  0  0  0  0
   38.2092    9.4028    6.5967 C   0  0  2  0  0  0  0  0  0  0  0  0
   37.5228    9.9134    7.8429 C   0  0  1  0  0  0  0  0  0  0  0  0
   37.5363    8.8063    8.9235 C   0  0  1  0  0  0  0  0  0  0  0  0
   36.8177    9.2212   10.2055 C   0  0  0  0  0  0  0  0  0  0  0  0
   38.2277   11.1264    8.3067 N   0  0  0  0  0  0  0  0  0  0  0  0
   36.8682    7.6002    8.4026 O   0  0  0  0  0  0  0  0  0  0  0  0
   38.1231    7.5805    4.9164 O   0  0  0  0  0  0  0  0  0  0  0  0
   38.1520   10.4222    5.5895 O   0  0  0  0  0  0  0  0  0  0  0  0
   36.2884    8.0835   10.8328 O   0  0  0  0  0  0  0  0  0  0  0  0
   41.0253   -1.4983    8.5796 C   0  0  1  0  0  0  0  0  0  0  0  0
   41.9875   -1.4945    7.3712 C   0  0  1  0  0  0  0  0  0  0  0  0
   42.4592   -2.9281    7.0271 C   0  0  2  0  0  0  0  0  0  0  0  0
   43.1586   -3.5545    8.2393 C   0  0  1  0  0  0  0  0  0  0  0  0
   42.1917   -3.5986    9.4501 C   0  0  0  0  0  0  0  0  0  0  0  0
   41.7507   -2.1695    9.7833 C   0  0  2  0  0  0  0  0  0  0  0  0
   43.5970   -4.9285    7.9070 N   0  0  0  0  0  0  0  0  0  0  0  0
   40.8581   -2.2515   10.9363 N   0  0  0  0  0  0  0  0  0  0  0  0
   41.3018   -0.9464    6.2243 O   0  0  0  0  0  0  0  0  0  0  0  0
   43.3722   -2.8627    5.9104 O   0  0  0  0  0  0  0  0  0  0  0  0
  1  2  1  0  0  0  0
  1 12  1  6  0  0  0
  1 13  1  0  0  0  0
  2  3  1  0  0  0  0
  2 10  1  6  0  0  0
  4  3  1  6  0  0  0
  4  5  1  0  0  0  0
  4 14  1  0  0  0  0
  5  6  1  0  0  0  0
  5 13  1  1  0  0  0
  6  7  1  0  0  0  0
  6 15  1  1  0  0  0
  7  8  1  0  0  0  0
  7 11  1  1  0  0  0
  8 14  1  0  0  0  0
  8 16  1  6  0  0  0
  9 11  1  0  0  0  0
 17 16  1  1  0  0  0
 17 18  1  0  0  0  0
 17 24  1  0  0  0  0
 18 19  1  0  0  0  0
 18 25  1  6  0  0  0
 19 20  1  0  0  0  0
 19 26  1  6  0  0  0
 20 21  1  0  0  0  0
 20 23  1  1  0  0  0
 21 22  1  1  0  0  0
 21 24  1  0  0  0  0
 22 27  1  0  0  0  0
 28 12  1  1  0  0  0
 28 29  1  0  0  0  0
 28 33  1  0  0  0  0
 29 30  1  0  0  0  0
 29 36  1  6  0  0  0
 30 31  1  0  0  0  0
 30 37  1  6  0  0  0
 31 32  1  0  0  0  0
 31 34  1  6  0  0  0
 32 33  1  0  0  0  0
 33 35  1  1  0  0  0
M  END
>  <CHROM.1>
-81.84815611,72.19947415,-147.05511450,-177.44697108,151.01308814,155.98261651
39.54031976,3.39530231,8.42314935,0.33378504,-1.20994828,1.90757566

>  <Name>
1yrj_lig

>  <RI>
0

>  <Rbt.Current_Directory>
/home/itssahil/PROJECTS/Mol_Feturizer/New_Systems/rnas/1yrj

>  <Rbt.Executable>
rbdock ($Id: //depot/dev/client3/rdock/2013.1/src/exe/rbdock.cxx#4 $)

>  <Rbt.Library>
libRbt.so (2013.1, Build901 2013/11/27)

>  <Rbt.Parameter_File>
/export/apps/rDock/src/rDock_2013.1_src/data/scripts/dock_solv.prm

>  <Rbt.Receptor>
prm/pocket_docking_5.prm

>  <SCORE>
-27.0429

>  <SCORE.INTER>
-25.3042

>  <SCORE.INTER.CONST>
1

>  <SCORE.INTER.POLAR>
-2.05289

>  <SCORE.INTER.ROT>
6

>  <SCORE.INTER.SOLV>
14.2845

>  <SCORE.INTER.VDW>
-22.388

>  <SCORE.INTER.norm>
-0.683898

>  <SCORE.INTRA>
-1.73865

>  <SCORE.INTRA.DIHEDRAL>
-4.19507

>  <SCORE.INTRA.DIHEDRAL.0>
15.6389

>  <SCORE.INTRA.POLAR>
0

>  <SCORE.INTRA.POLAR.0>
0

>  <SCORE.INTRA.REPUL>
0

>  <SCORE.INTRA.REPUL.0>
0

>  <SCORE.INTRA.SOLV>
0.183246

>  <SCORE.INTRA.SOLV.lig_0>
-90.9181

>  <SCORE.INTRA.VDW>
0.267257

>  <SCORE.INTRA.VDW.0>
-3.14158

>  <SCORE.INTRA.norm>
-0.0469907

>  <SCORE.RESTR>
0

>  <SCORE.RESTR.CAVITY>
0

>  <SCORE.RESTR.norm>
0

>  <SCORE.SYSTEM>
0

>  <SCORE.SYSTEM.CONST>
0

>  <SCORE.SYSTEM.DIHEDRAL>
0

>  <SCORE.SYSTEM.SOLV>
0

>  <SCORE.SYSTEM.norm>
0

>  <SCORE.heavy>
37

>  <SCORE.norm>
-0.730889

>  <RMSD>
10.255

$$$$
1yrj_lig
 OpenBabel11021811423D
libRbt.so/2013.1/901 2013/11/27
 37 40  0  0  0  0  0  0  0  0999 V2000
   39.4253    1.0124    9.6590 C   0  0  1  0  0  0  0  0  0  0  0  0
   38.3705    1.2143    8.5536 C   0  0  1  0  0  0  0  0  0  0  0  0
   38.6339    2.4907    7.7389 C   0  0  0  0  0  0  0  0  0  0  0  0
   38.7208    3.7169    8.6847 C   0  0  1  0  0  0  0  0  0  0  0  0
   39.8203    3.4924    9.7400 C   0  0  1  0  0  0  0  0  0  0  0  0
   39.8969    4.7649   10.6849 C   0  0  1  0  0  0  0  0  0  0  0  0
   40.2118    6.0143    9.8463 C   0  0  1  0  0  0  0  0  0  0  0  0
   39.1069    6.1663    8.7727 C   0  0  2  0  0  0  0  0  0  0  0  0
   41.3242    8.2581   10.3307 C   0  0  0  0  0  0  0  0  0  0  0  0
   38.2817    0.0487    7.6589 N   0  0  0  0  0  0  0  0  0  0  0  0
   40.3357    7.2103   10.7360 N   0  0  0  0  0  0  0  0  0  0  0  0
   40.7057    0.5787    9.1632 O   0  0  0  0  0  0  0  0  0  0  0  0
   39.5167    2.2437   10.4679 O   0  0  0  0  0  0  0  0  0  0  0  0
   39.0127    4.9690    7.9501 O   0  0  0  0  0  0  0  0  0  0  0  0
   38.6400    4.9734   11.2942 O   0  0  0  0  0  0  0  0  0  0  0  0
   39.3557    7.2729    7.9050 O   0  0  0  0  0  0  0  0  0  0  0  0
   38.4420    8.3760    8.1095 C   0  0  2  0  0  0  0  0  0  0  0  0
   36.9907    8.0440    7.7256 C   0  0  1  0  0  0  0  0  0  0  0  0
   36.8424    7.8757    6.1900 C   0  0  2  0  0  0  0  0  0  0  0  0
   37.3020    9.1329    5.4879 C   0  0  1  0  0  0  0  0  0  0  0  0
   38.7726    9.4233    5.8707 C   0  0  1  0  0  0  0  0  0  0  0  0
   39.3059   10.7083    5.2413 C   0  0  0  0  0  0  0  0  0  0  0  0
   37.1535    8.9406    4.0304 N   0  0  0  0  0  0  0  0  0  0  0  0
   38.8840    9.5585    7.3342 O   0  0  0  0  0  0  0  0  0  0  0  0
   36.5920    6.8662    8.4416 O   0  0  0  0  0  0  0  0  0  0  0  0
   35.4662    7.6419    5.8609 O   0  0  0  0  0  0  0  0  0  0  0  0
   40.6035   10.9556    5.7133 O   0  0  0  0  0  0  0  0  0  0  0  0
   40.9592   -0.7905    8.5506 C   0  0  1  0  0  0  0  0  0  0  0  0
   42.4402   -0.8262    8.1130 C   0  0  1  0  0  0  0  0  0  0  0  0
   42.8193   -2.2108    7.5340 C   0  0  2  0  0  0  0  0  0  0  0  0
   42.5657   -3.3031    8.5797 C   0  0  1  0  0  0  0  0  0  0  0  0
   41.0740   -3.3031    9.0012 C   0  0  0  0  0  0  0  0  0  0  0  0
   40.7250   -1.9304    9.5857 C   0  0  2  0  0  0  0  0  0  0  0  0
   42.9197   -4.6249    8.0159 N   0  0  0  0  0  0  0  0  0  0  0  0
   39.3213   -1.9765    9.9860 N   0  0  0  0  0  0  0  0  0  0  0  0
   42.6550    0.1747    7.0942 O   0  0  0  0  0  0  0  0  0  0  0  0
   44.2153   -2.1954    7.1656 O   0  0  0  0  0  0  0  0  0  0  0  0
  1  2  1  0  0  0  0
  1 12  1  6  0  0  0
  1 13  1  0  0  0  0
  2  3  1  0  0  0  0
  2 10  1  6  0  0  0
  4  3  1  6  0  0  0
  4  5  1  0  0  0  0
  4 14  1  0  0  0  0
  5  6  1  0  0  0  0
  5 13  1  1  0  0  0
  6  7  1  0  0  0  0
  6 15  1  6  0  0  0
  7  8  1  0  0  0  0
  7 11  1  1  0  0  0
  8 14  1  0  0  0  0
  8 16  1  6  0  0  0
  9 11  1  0  0  0  0
 17 16  1  6  0  0  0
 17 18  1  0  0  0  0
 17 24  1  0  0  0  0
 18 19  1  0  0  0  0
 18 25  1  1  0  0  0
 19 20  1  0  0  0  0
 19 26  1  1  0  0  0
 20 21  1  0  0  0  0
 20 23  1  6  0  0  0
 21 22  1  6  0  0  0
 21 24  1  0  0  0  0
 22 27  1  0  0  0  0
 28 12  1  1  0  0  0
 28 29  1  0  0  0  0
 28 33  1  0  0  0  0
 29 30  1  0  0  0  0
 29 36  1  6  0  0  0
 30 31  1  0  0  0  0
 30 37  1  1  0  0  0
 31 32  1  0  0  0  0
 31 34  1  6  0  0  0
 32 33  1  0  0  0  0
 33 35  1  6  0  0  0
M  END
>  <CHROM.1>
-68.34043709,146.31841616,-109.19565678,-66.49068761,175.56256218,178.21654843
39.66214374,3.86945251,8.17733228,0.59755775,-1.21454896,2.04702908

>  <Name>
1yrj_lig

>  <RI>
0

>  <Rbt.Current_Directory>
/home/itssahil/PROJECTS/Mol_Feturizer/New_Systems/rnas/1yrj

>  <Rbt.Executable>
rbdock ($Id: //depot/dev/client3/rdock/2013.1/src/exe/rbdock.cxx#4 $)

>  <Rbt.Library>
libRbt.so (2013.1, Build901 2013/11/27)

>  <Rbt.Parameter_File>
/export/apps/rDock/src/rDock_2013.1_src/data/scripts/dock_solv.prm

>  <Rbt.Receptor>
prm/pocket_docking_3.prm

>  <SCORE>
-24.275

>  <SCORE.INTER>
-22.2678

>  <SCORE.INTER.CONST>
1

>  <SCORE.INTER.POLAR>
-2.24196

>  <SCORE.INTER.ROT>
6

>  <SCORE.INTER.SOLV>
16.3821

>  <SCORE.INTER.VDW>
-20.4327

>  <SCORE.INTER.norm>
-0.601832

>  <SCORE.INTRA>
-2.00721

>  <SCORE.INTRA.DIHEDRAL>
-7.57894

>  <SCORE.INTRA.DIHEDRAL.0>
15.6389

>  <SCORE.INTRA.POLAR>
0

>  <SCORE.INTRA.POLAR.0>
0

>  <SCORE.INTRA.REPUL>
0

>  <SCORE.INTRA.REPUL.0>
0

>  <SCORE.INTRA.SOLV>
2.02314

>  <SCORE.INTRA.SOLV.lig_0>
-90.9181

>  <SCORE.INTRA.VDW>
0.770692

>  <SCORE.INTRA.VDW.0>
-3.14158

>  <SCORE.INTRA.norm>
-0.0542488

>  <SCORE.RESTR>
0

>  <SCORE.RESTR.CAVITY>
0

>  <SCORE.RESTR.norm>
0

>  <SCORE.SYSTEM>
0

>  <SCORE.SYSTEM.CONST>
0

>  <SCORE.SYSTEM.DIHEDRAL>
0

>  <SCORE.SYSTEM.SOLV>
0

>  <SCORE.SYSTEM.norm>
0

>  <SCORE.heavy>
37

>  <SCORE.norm>
-0.656081

>  <RMSD>
10.258

$$$$
1yrj_lig
 OpenBabel11021811423D
libRbt.so/2013.1/901 2013/11/27
 37 40  0  0  0  0  0  0  0  0999 V2000
   39.3939    0.6510    9.3958 C   0  0  1  0  0  0  0  0  0  0  0  0
   38.2539    0.9243    8.3952 C   0  0  1  0  0  0  0  0  0  0  0  0
   38.4888    2.2191    7.6011 C   0  0  0  0  0  0  0  0  0  0  0  0
   38.7005    3.4085    8.5738 C   0  0  1  0  0  0  0  0  0  0  0  0
   39.8797    3.1131    9.5198 C   0  0  1  0  0  0  0  0  0  0  0  0
   40.0827    4.3491   10.4940 C   0  0  1  0  0  0  0  0  0  0  0  0
   40.3658    5.6162    9.6707 C   0  0  1  0  0  0  0  0  0  0  0  0
   39.1770    5.8400    8.7047 C   0  0  2  0  0  0  0  0  0  0  0  0
   41.9903    6.9264   11.1374 C   0  0  0  0  0  0  0  0  0  0  0  0
   38.0470   -0.2064    7.4755 N   0  0  0  0  0  0  0  0  0  0  0  0
   40.6084    6.7762   10.5833 N   0  0  0  0  0  0  0  0  0  0  0  0
   40.6102    0.1945    8.7750 O   0  0  0  0  0  0  0  0  0  0  0  0
   39.5981    1.8502   10.2319 O   0  0  0  0  0  0  0  0  0  0  0  0
   38.9699    4.6754    7.8562 O   0  0  0  0  0  0  0  0  0  0  0  0
   38.8919    4.5760   11.2187 O   0  0  0  0  0  0  0  0  0  0  0  0
   39.3870    6.9675    7.8538 O   0  0  0  0  0  0  0  0  0  0  0  0
   38.5167    8.0827    8.1580 C   0  0  2  0  0  0  0  0  0  0  0  0
   37.0488    7.8316    7.7763 C   0  0  1  0  0  0  0  0  0  0  0  0
   36.8708    7.7865    6.2354 C   0  0  2  0  0  0  0  0  0  0  0  0
   37.3644    9.0770    5.6225 C   0  0  1  0  0  0  0  0  0  0  0  0
   38.8502    9.2862    5.9995 C   0  0  1  0  0  0  0  0  0  0  0  0
   39.4195   10.5963    5.4599 C   0  0  0  0  0  0  0  0  0  0  0  0
   37.1866    9.0021    4.1575 N   0  0  0  0  0  0  0  0  0  0  0  0
   38.9889    9.3051    7.4668 O   0  0  0  0  0  0  0  0  0  0  0  0
   36.6190    6.6169    8.4080 O   0  0  0  0  0  0  0  0  0  0  0  0
   35.4822    7.6263    5.9144 O   0  0  0  0  0  0  0  0  0  0  0  0
   39.4536   10.5481    4.0583 O   0  0  0  0  0  0  0  0  0  0  0  0
   41.8944   -0.0971    9.5367 C   0  0  1  0  0  0  0  0  0  0  0  0
   41.8571   -1.5883    9.9376 C   0  0  1  0  0  0  0  0  0  0  0  0
   43.1587   -2.0049   10.6646 C   0  0  2  0  0  0  0  0  0  0  0  0
   44.3695   -1.7457    9.7604 C   0  0  1  0  0  0  0  0  0  0  0  0
   44.4405   -0.2447    9.3799 C   0  0  0  0  0  0  0  0  0  0  0  0
   43.1509    0.1417    8.6480 C   0  0  2  0  0  0  0  0  0  0  0  0
   45.6109   -2.1357   10.4655 N   0  0  0  0  0  0  0  0  0  0  0  0
   43.2639    1.5535    8.2917 N   0  0  0  0  0  0  0  0  0  0  0  0
   40.7407   -1.8097   10.8268 O   0  0  0  0  0  0  0  0  0  0  0  0
   43.0800   -3.4087   10.9930 O   0  0  0  0  0  0  0  0  0  0  0  0
  1  2  1  0  0  0  0
  1 12  1  6  0  0  0
  1 13  1  0  0  0  0
  2  3  1  0  0  0  0
  2 10  1  6  0  0  0
  4  3  1  6  0  0  0
  4  5  1  0  0  0  0
  4 14  1  0  0  0  0
  5  6  1  0  0  0  0
  5 13  1  1  0  0  0
  6  7  1  0  0  0  0
  6 15  1  6  0  0  0
  7  8  1  0  0  0  0
  7 11  1  1  0  0  0
  8 14  1  0  0  0  0
  8 16  1  6  0  0  0
  9 11  1  0  0  0  0
 17 16  1  6  0  0  0
 17 18  1  0  0  0  0
 17 24  1  0  0  0  0
 18 19  1  0  0  0  0
 18 25  1  1  0  0  0
 19 20  1  0  0  0  0
 19 26  1  1  0  0  0
 20 21  1  0  0  0  0
 20 23  1  6  0  0  0
 21 22  1  1  0  0  0
 21 24  1  0  0  0  0
 22 27  1  0  0  0  0
 28 12  1  6  0  0  0
 28 29  1  0  0  0  0
 28 33  1  0  0  0  0
 29 30  1  0  0  0  0
 29 36  1  1  0  0  0
 30 31  1  0  0  0  0
 30 37  1  6  0  0  0
 31 32  1  0  0  0  0
 31 34  1  1  0  0  0
 32 33  1  0  0  0  0
 33 35  1  1  0  0  0
M  END
>  <CHROM.1>
177.76772782,83.08747074,-110.23384223,-70.76846675,-65.98117602,90.67696331
39.96991006,3.87927730,8.52052745,1.14293683,0.34214128,2.95275251

>  <Name>
1yrj_lig

>  <RI>
0

>  <Rbt.Current_Directory>
/home/itssahil/PROJECTS/Mol_Feturizer/New_Systems/rnas/1yrj

>  <Rbt.Executable>
rbdock ($Id: //depot/dev/client3/rdock/2013.1/src/exe/rbdock.cxx#4 $)

>  <Rbt.Library>
libRbt.so (2013.1, Build901 2013/11/27)

>  <Rbt.Parameter_File>
/export/apps/rDock/src/rDock_2013.1_src/data/scripts/dock_solv.prm

>  <Rbt.Receptor>
prm/pocket_docking_3.prm

>  <SCORE>
-27.0491

>  <SCORE.INTER>
-25.3198

>  <SCORE.INTER.CONST>
1

>  <SCORE.INTER.POLAR>
-2.53862

>  <SCORE.INTER.ROT>
6

>  <SCORE.INTER.SOLV>
20.729

>  <SCORE.INTER.VDW>
-22.9274

>  <SCORE.INTER.norm>
-0.684319

>  <SCORE.INTRA>
-1.72927

>  <SCORE.INTRA.DIHEDRAL>
-4.00322

>  <SCORE.INTRA.DIHEDRAL.0>
15.6389

>  <SCORE.INTRA.POLAR>
0

>  <SCORE.INTRA.POLAR.0>
0

>  <SCORE.INTRA.REPUL>
0

>  <SCORE.INTRA.REPUL.0>
0

>  <SCORE.INTRA.SOLV>
-0.753753

>  <SCORE.INTRA.SOLV.lig_0>
-90.9181

>  <SCORE.INTRA.VDW>
0.649221

>  <SCORE.INTRA.VDW.0>
-3.14158

>  <SCORE.INTRA.norm>
-0.046737

>  <SCORE.RESTR>
0

>  <SCORE.RESTR.CAVITY>
0

>  <SCORE.RESTR.norm>
0

>  <SCORE.SYSTEM>
0

>  <SCORE.SYSTEM.CONST>
0

>  <SCORE.SYSTEM.DIHEDRAL>
0

>  <SCORE.SYSTEM.SOLV>
0

>  <SCORE.SYSTEM.norm>
0

>  <SCORE.heavy>
37

>  <SCORE.norm>
-0.731056

>  <RMSD>
10.260

$$$$
1yrj_lig
 OpenBabel11021811423D
libRbt.so/2013.1/901 2013/11/27
 37 40  0  0  0  0  0  0  0  0999 V2000
   39.5075    0.3026    9.4949 C   0  0  1  0  0  0  0  0  0  0  0  0
   38.2432    0.3826    8.6171 C   0  0  1  0  0  0  0  0  0  0  0  0
   38.2492    1.6298    7.7188 C   0  0  0  0  0  0  0  0  0  0  0  0
   38.4346    2.9055    8.5813 C   0  0  1  0  0  0  0  0  0  0  0  0
   39.7343    2.8033    9.4020 C   0  0  1  0  0  0  0  0  0  0  0  0
   39.9062    4.1245   10.2639 C   0  0  1  0  0  0  0  0  0  0  0  0
   39.9597    5.3467    9.3329 C   0  0  1  0  0  0  0  0  0  0  0  0
   38.6563    5.3753    8.4983 C   0  0  2  0  0  0  0  0  0  0  0  0
   41.4978    6.7446   10.8117 C   0  0  0  0  0  0  0  0  0  0  0  0
   38.0619   -0.8303    7.8028 N   0  0  0  0  0  0  0  0  0  0  0  0
   40.1723    6.5917   10.1342 N   0  0  0  0  0  0  0  0  0  0  0  0
   40.6918   -0.0757    8.7687 O   0  0  0  0  0  0  0  0  0  0  0  0
   39.6698    1.5768   10.2222 O   0  0  0  0  0  0  0  0  0  0  0  0
   38.4861    4.1343    7.7567 O   0  0  0  0  0  0  0  0  0  0  0  0
   38.7832    4.2856   11.1050 O   0  0  0  0  0  0  0  0  0  0  0  0
   38.6496    6.4497    7.5574 O   0  0  0  0  0  0  0  0  0  0  0  0
   37.3298    6.9930    7.3200 C   0  0  2  0  0  0  0  0  0  0  0  0
   37.3049    8.0798    6.2329 C   0  0  1  0  0  0  0  0  0  0  0  0
   38.0249    9.3681    6.7127 C   0  0  2  0  0  0  0  0  0  0  0  0
   37.3811    9.8744    7.9831 C   0  0  1  0  0  0  0  0  0  0  0  0
   37.4482    8.7705    9.0649 C   0  0  1  0  0  0  0  0  0  0  0  0
   36.7746    9.1809   10.3725 C   0  0  0  0  0  0  0  0  0  0  0  0
   38.0897   11.0964    8.4168 N   0  0  0  0  0  0  0  0  0  0  0  0
   36.7740    7.5558    8.5727 O   0  0  0  0  0  0  0  0  0  0  0  0
   37.8947    7.5405    5.0411 O   0  0  0  0  0  0  0  0  0  0  0  0
   37.9178   10.3842    5.7062 O   0  0  0  0  0  0  0  0  0  0  0  0
   36.1975    8.0527   10.9742 O   0  0  0  0  0  0  0  0  0  0  0  0
   41.1018   -1.5168    8.5051 C   0  0  1  0  0  0  0  0  0  0  0  0
   42.0046   -1.5112    7.2517 C   0  0  1  0  0  0  0  0  0  0  0  0
   42.5330   -2.9316    6.9364 C   0  0  2  0  0  0  0  0  0  0  0  0
   43.3201   -3.4754    8.1346 C   0  0  1  0  0  0  0  0  0  0  0  0
   42.4149   -3.5214    9.3921 C   0  0  0  0  0  0  0  0  0  0  0  0
   41.9168   -2.1044    9.6952 C   0  0  2  0  0  0  0  0  0  0  0  0
   43.8128   -4.8376    7.8307 N   0  0  0  0  0  0  0  0  0  0  0  0
   41.0849   -2.1867   10.8927 N   0  0  0  0  0  0  0  0  0  0  0  0
   41.2383   -1.0423    6.1209 O   0  0  0  0  0  0  0  0  0  0  0  0
   43.3878   -2.8635    5.7748 O   0  0  0  0  0  0  0  0  0  0  0  0
  1  2  1  0  0  0  0
  1 12  1  6  0  0  0
  1 13  1  0  0  0  0
  2  3  1  0  0  0  0
  2 10  1  6  0  0  0
  4  3  1  6  0  0  0
  4  5  1  0  0  0  0
  4 14  1  0  0  0  0
  5  6  1  0  0  0  0
  5 13  1  1  0  0  0
  6  7  1  0  0  0  0
  6 15  1  1  0  0  0
  7  8  1  0  0  0  0
  7 11  1  1  0  0  0
  8 14  1  0  0  0  0
  8 16  1  6  0  0  0
  9 11  1  0  0  0  0
 17 16  1  1  0  0  0
 17 18  1  0  0  0  0
 17 24  1  0  0  0  0
 18 19  1  0  0  0  0
 18 25  1  6  0  0  0
 19 20  1  0  0  0  0
 19 26  1  6  0  0  0
 20 21  1  0  0  0  0
 20 23  1  1  0  0  0
 21 22  1  1  0  0  0
 21 24  1  0  0  0  0
 22 27  1  0  0  0  0
 28 12  1  1  0  0  0
 28 29  1  0  0  0  0
 28 33  1  0  0  0  0
 29 30  1  0  0  0  0
 29 36  1  6  0  0  0
 30 31  1  0  0  0  0
 30 37  1  6  0  0  0
 31 32  1  0  0  0  0
 31 34  1  6  0  0  0
 32 33  1  0  0  0  0
 33 35  1  1  0  0  0
M  END
>  <CHROM.1>
-86.05791863,67.72897161,-147.15541260,-175.80472327,146.74707119,156.03139865
39.51399930,3.36450414,8.44676275,0.16686590,-1.20377920,1.75156082

>  <Name>
1yrj_lig

>  <RI>
0

>  <Rbt.Current_Directory>
/home/itssahil/PROJECTS/Mol_Feturizer/New_Systems/rnas/1yrj

>  <Rbt.Executable>
rbdock ($Id: //depot/dev/client3/rdock/2013.1/src/exe/rbdock.cxx#4 $)

>  <Rbt.Library>
libRbt.so (2013.1, Build901 2013/11/27)

>  <Rbt.Parameter_File>
/export/apps/rDock/src/rDock_2013.1_src/data/scripts/dock_solv.prm

>  <Rbt.Receptor>
prm/pocket_docking_7.prm

>  <SCORE>
-27.1868

>  <SCORE.INTER>
-26.2267

>  <SCORE.INTER.CONST>
1

>  <SCORE.INTER.POLAR>
-2.13553

>  <SCORE.INTER.ROT>
6

>  <SCORE.INTER.SOLV>
14.5894

>  <SCORE.INTER.VDW>
-22.8291

>  <SCORE.INTER.norm>
-0.708829

>  <SCORE.INTRA>
-0.960128

>  <SCORE.INTRA.DIHEDRAL>
-2.91325

>  <SCORE.INTRA.DIHEDRAL.0>
15.6389

>  <SCORE.INTRA.POLAR>
0

>  <SCORE.INTRA.POLAR.0>
0

>  <SCORE.INTRA.REPUL>
0

>  <SCORE.INTRA.REPUL.0>
0

>  <SCORE.INTRA.SOLV>
0.057788

>  <SCORE.INTRA.SOLV.lig_0>
-90.9181

>  <SCORE.INTRA.VDW>
0.467602

>  <SCORE.INTRA.VDW.0>
-3.14158

>  <SCORE.INTRA.norm>
-0.0259494

>  <SCORE.RESTR>
0

>  <SCORE.RESTR.CAVITY>
0

>  <SCORE.RESTR.norm>
0

>  <SCORE.SYSTEM>
0

>  <SCORE.SYSTEM.CONST>
0

>  <SCORE.SYSTEM.DIHEDRAL>
0

>  <SCORE.SYSTEM.SOLV>
0

>  <SCORE.SYSTEM.norm>
0

>  <SCORE.heavy>
37

>  <SCORE.norm>
-0.734778

>  <RMSD>
10.264

$$$$
1yrj_lig
 OpenBabel11021811423D
libRbt.so/2013.1/901 2013/11/27
 37 40  0  0  0  0  0  0  0  0999 V2000
   39.6023    0.3812    9.5454 C   0  0  1  0  0  0  0  0  0  0  0  0
   38.2792    0.3588    8.7552 C   0  0  1  0  0  0  0  0  0  0  0  0
   38.2108    1.4957    7.7231 C   0  0  0  0  0  0  0  0  0  0  0  0
   38.4438    2.8615    8.4201 C   0  0  1  0  0  0  0  0  0  0  0  0
   39.7983    2.8553    9.1537 C   0  0  1  0  0  0  0  0  0  0  0  0
   40.0174    4.2663    9.8460 C   0  0  1  0  0  0  0  0  0  0  0  0
   39.9943    5.3747    8.7810 C   0  0  1  0  0  0  0  0  0  0  0  0
   38.6357    5.3062    8.0421 C   0  0  2  0  0  0  0  0  0  0  0  0
   40.9620    7.7272    8.5918 C   0  0  0  0  0  0  0  0  0  0  0  0
   38.0530   -0.9391    8.0984 N   0  0  0  0  0  0  0  0  0  0  0  0
   40.2505    6.7031    9.4189 N   0  0  0  0  0  0  0  0  0  0  0  0
   40.7366   -0.0756    8.7853 O   0  0  0  0  0  0  0  0  0  0  0  0
   39.8027    1.7300   10.1102 O   0  0  0  0  0  0  0  0  0  0  0  0
   38.4260    3.9886    7.4599 O   0  0  0  0  0  0  0  0  0  0  0  0
   38.9542    4.5204   10.7402 O   0  0  0  0  0  0  0  0  0  0  0  0
   38.5534    6.2665    6.9883 O   0  0  0  0  0  0  0  0  0  0  0  0
   37.2378    6.8533    6.8516 C   0  0  2  0  0  0  0  0  0  0  0  0
   37.1645    7.9377    5.7643 C   0  0  1  0  0  0  0  0  0  0  0  0
   37.9623    9.2022    6.1800 C   0  0  2  0  0  0  0  0  0  0  0  0
   37.4368    9.7330    7.4942 C   0  0  1  0  0  0  0  0  0  0  0  0
   37.5512    8.6301    8.5730 C   0  0  1  0  0  0  0  0  0  0  0  0
   36.9958    9.0661    9.9270 C   0  0  0  0  0  0  0  0  0  0  0  0
   38.2175   10.9315    7.8651 N   0  0  0  0  0  0  0  0  0  0  0  0
   36.8005    7.4376    8.1409 O   0  0  0  0  0  0  0  0  0  0  0  0
   37.6412    7.3760    4.5329 O   0  0  0  0  0  0  0  0  0  0  0  0
   37.8110   10.2188    5.1797 O   0  0  0  0  0  0  0  0  0  0  0  0
   36.5238    7.9424   10.6215 O   0  0  0  0  0  0  0  0  0  0  0  0
   41.0396   -1.5408    8.5100 C   0  0  1  0  0  0  0  0  0  0  0  0
   41.8431   -1.5996    7.1921 C   0  0  1  0  0  0  0  0  0  0  0  0
   42.2613   -3.0516    6.8561 C   0  0  2  0  0  0  0  0  0  0  0  0
   43.1039   -3.6316    7.9983 C   0  0  1  0  0  0  0  0  0  0  0  0
   42.2959   -3.6128    9.3210 C   0  0  0  0  0  0  0  0  0  0  0  0
   41.9068   -2.1661    9.6426 C   0  0  2  0  0  0  0  0  0  0  0  0
   43.4908   -5.0232    7.6756 N   0  0  0  0  0  0  0  0  0  0  0  0
   41.1651   -2.1885   10.9005 N   0  0  0  0  0  0  0  0  0  0  0  0
   41.0220   -1.0951    6.1164 O   0  0  0  0  0  0  0  0  0  0  0  0
   43.0277   -3.0444    5.6325 O   0  0  0  0  0  0  0  0  0  0  0  0
  1  2  1  0  0  0  0
  1 12  1  6  0  0  0
  1 13  1  0  0  0  0
  2  3  1  0  0  0  0
  2 10  1  6  0  0  0
  4  3  1  6  0  0  0
  4  5  1  0  0  0  0
  4 14  1  0  0  0  0
  5  6  1  0  0  0  0
  5 13  1  1  0  0  0
  6  7  1  0  0  0  0
  6 15  1  1  0  0  0
  7  8  1  0  0  0  0
  7 11  1  1  0  0  0
  8 14  1  0  0  0  0
  8 16  1  6  0  0  0
  9 11  1  0  0  0  0
 17 16  1  1  0  0  0
 17 18  1  0  0  0  0
 17 24  1  0  0  0  0
 18 19  1  0  0  0  0
 18 25  1  6  0  0  0
 19 20  1  0  0  0  0
 19 26  1  6  0  0  0
 20 21  1  0  0  0  0
 20 23  1  1  0  0  0
 21 22  1  1  0  0  0
 21 24  1  0  0  0  0
 22 27  1  0  0  0  0
 28 12  1  1  0  0  0
 28 29  1  0  0  0  0
 28 33  1  0  0  0  0
 29 30  1  0  0  0  0
 29 36  1  6  0  0  0
 30 31  1  0  0  0  0
 30 37  1  6  0  0  0
 31 32  1  0  0  0  0
 31 34  1  6  0  0  0
 32 33  1  0  0  0  0
 33 35  1  1  0  0  0
M  END
>  <CHROM.1>
-77.88694423,148.49592209,-142.66490976,177.12802246,151.29730443,153.20867130
39.47408999,3.32664523,8.12936309,0.32924112,-1.20701755,1.87396427

>  <Name>
1yrj_lig

>  <RI>
0

>  <Rbt.Current_Directory>
/home/itssahil/PROJECTS/Mol_Feturizer/New_Systems/rnas/1yrj

>  <Rbt.Executable>
rbdock ($Id: //depot/dev/client3/rdock/2013.1/src/exe/rbdock.cxx#4 $)

>  <Rbt.Library>
libRbt.so (2013.1, Build901 2013/11/27)

>  <Rbt.Parameter_File>
/export/apps/rDock/src/rDock_2013.1_src/data/scripts/dock_solv.prm

>  <Rbt.Receptor>
prm/pocket_docking_5.prm

>  <SCORE>
-26.7481

>  <SCORE.INTER>
-24.9871

>  <SCORE.INTER.CONST>
1

>  <SCORE.INTER.POLAR>
-2.1804

>  <SCORE.INTER.ROT>
6

>  <SCORE.INTER.SOLV>
13.8664

>  <SCORE.INTER.VDW>
-21.6122

>  <SCORE.INTER.norm>
-0.675327

>  <SCORE.INTRA>
-1.76103

>  <SCORE.INTRA.DIHEDRAL>
-3.02923

>  <SCORE.INTRA.DIHEDRAL.0>
15.6389

>  <SCORE.INTRA.POLAR>
0

>  <SCORE.INTRA.POLAR.0>
0

>  <SCORE.INTRA.REPUL>
0

>  <SCORE.INTRA.REPUL.0>
0

>  <SCORE.INTRA.SOLV>
0.99181

>  <SCORE.INTRA.SOLV.lig_0>
-90.9181

>  <SCORE.INTRA.VDW>
-0.742327

>  <SCORE.INTRA.VDW.0>
-3.14158

>  <SCORE.INTRA.norm>
-0.0475955

>  <SCORE.RESTR>
0

>  <SCORE.RESTR.CAVITY>
0

>  <SCORE.RESTR.norm>
0

>  <SCORE.SYSTEM>
0

>  <SCORE.SYSTEM.CONST>
0

>  <SCORE.SYSTEM.DIHEDRAL>
0

>  <SCORE.SYSTEM.SOLV>
0

>  <SCORE.SYSTEM.norm>
0

>  <SCORE.heavy>
37

>  <SCORE.norm>
-0.722922

>  <RMSD>
10.265

$$$$
1yrj_lig
 OpenBabel11021811423D
libRbt.so/2013.1/901 2013/11/27
 37 40  0  0  0  0  0  0  0  0999 V2000
   39.4914    0.3059    9.4791 C   0  0  1  0  0  0  0  0  0  0  0  0
   38.2382    0.3933    8.5862 C   0  0  1  0  0  0  0  0  0  0  0  0
   38.2597    1.6434    7.6921 C   0  0  0  0  0  0  0  0  0  0  0  0
   38.4392    2.9156    8.5610 C   0  0  1  0  0  0  0  0  0  0  0  0
   39.7283    2.8060    9.3971 C   0  0  1  0  0  0  0  0  0  0  0  0
   39.8945    4.1237   10.2654 C   0  0  1  0  0  0  0  0  0  0  0  0
   39.9638    5.3488    9.3392 C   0  0  1  0  0  0  0  0  0  0  0  0
   38.6708    5.3849    8.4888 C   0  0  2  0  0  0  0  0  0  0  0  0
   41.5101    6.7646   10.7922 C   0  0  0  0  0  0  0  0  0  0  0  0
   38.0624   -0.8162    7.7657 N   0  0  0  0  0  0  0  0  0  0  0  0
   40.1711    6.5904   10.1471 N   0  0  0  0  0  0  0  0  0  0  0  0
   40.6831   -0.0744    8.7662 O   0  0  0  0  0  0  0  0  0  0  0  0
   39.6494    1.5771   10.2125 O   0  0  0  0  0  0  0  0  0  0  0  0
   38.5052    4.1469    7.7411 O   0  0  0  0  0  0  0  0  0  0  0  0
   38.7619    4.2862   11.0933 O   0  0  0  0  0  0  0  0  0  0  0  0
   38.6795    6.4623    7.5514 O   0  0  0  0  0  0  0  0  0  0  0  0
   37.3629    7.0017    7.2888 C   0  0  2  0  0  0  0  0  0  0  0  0
   37.3563    8.0917    6.2046 C   0  0  1  0  0  0  0  0  0  0  0  0
   38.0618    9.3811    6.7027 C   0  0  2  0  0  0  0  0  0  0  0  0
   37.3906    9.8814    7.9613 C   0  0  1  0  0  0  0  0  0  0  0  0
   37.4396    8.7744    9.0410 C   0  0  1  0  0  0  0  0  0  0  0  0
   36.7382    9.1786   10.3358 C   0  0  0  0  0  0  0  0  0  0  0  0
   38.0860   11.1044    8.4128 N   0  0  0  0  0  0  0  0  0  0  0  0
   36.7798    7.5589    8.5316 O   0  0  0  0  0  0  0  0  0  0  0  0
   37.9720    7.5580    5.0235 O   0  0  0  0  0  0  0  0  0  0  0  0
   37.9717   10.3997    5.6972 O   0  0  0  0  0  0  0  0  0  0  0  0
   36.1880    8.0401   10.9434 O   0  0  0  0  0  0  0  0  0  0  0  0
   41.0908   -1.5161    8.5024 C   0  0  1  0  0  0  0  0  0  0  0  0
   42.0386   -1.5052    7.2827 C   0  0  1  0  0  0  0  0  0  0  0  0
   42.5667   -2.9267    6.9718 C   0  0  2  0  0  0  0  0  0  0  0  0
   43.3052   -3.4896    8.1919 C   0  0  1  0  0  0  0  0  0  0  0  0
   42.3544   -3.5408    9.4151 C   0  0  0  0  0  0  0  0  0  0  0  0
   41.8571   -2.1228    9.7149 C   0  0  2  0  0  0  0  0  0  0  0  0
   43.7976   -4.8526    7.8917 N   0  0  0  0  0  0  0  0  0  0  0  0
   40.9815   -2.2104   10.8805 N   0  0  0  0  0  0  0  0  0  0  0  0
   41.3178   -1.0182    6.1298 O   0  0  0  0  0  0  0  0  0  0  0  0
   43.4637   -2.8539    5.8428 O   0  0  0  0  0  0  0  0  0  0  0  0
  1  2  1  0  0  0  0
  1 12  1  6  0  0  0
  1 13  1  0  0  0  0
  2  3  1  0  0  0  0
  2 10  1  6  0  0  0
  4  3  1  6  0  0  0
  4  5  1  0  0  0  0
  4 14  1  0  0  0  0
  5  6  1  0  0  0  0
  5 13  1  1  0  0  0
  6  7  1  0  0  0  0
  6 15  1  1  0  0  0
  7  8  1  0  0  0  0
  7 11  1  1  0  0  0
  8 14  1  0  0  0  0
  8 16  1  6  0  0  0
  9 11  1  0  0  0  0
 17 16  1  1  0  0  0
 17 18  1  0  0  0  0
 17 24  1  0  0  0  0
 18 19  1  0  0  0  0
 18 25  1  6  0  0  0
 19 20  1  0  0  0  0
 19 26  1  6  0  0  0
 20 21  1  0  0  0  0
 20 23  1  1  0  0  0
 21 22  1  1  0  0  0
 21 24  1  0  0  0  0
 22 27  1  0  0  0  0
 28 12  1  1  0  0  0
 28 29  1  0  0  0  0
 28 33  1  0  0  0  0
 29 30  1  0  0  0  0
 29 36  1  6  0  0  0
 30 31  1  0  0  0  0
 30 37  1  6  0  0  0
 31 32  1  0  0  0  0
 31 34  1  6  0  0  0
 32 33  1  0  0  0  0
 33 35  1  1  0  0  0
M  END
>  <CHROM.1>
-86.03067755,70.32935821,-147.78053624,-175.78638218,148.54514175,157.48495319
39.51955559,3.36848055,8.44243740,0.23749234,-1.20023784,1.82307824

>  <Name>
1yrj_lig

>  <RI>
0

>  <Rbt.Current_Directory>
/home/itssahil/PROJECTS/Mol_Feturizer/New_Systems/rnas/1yrj

>  <Rbt.Executable>
rbdock ($Id: //depot/dev/client3/rdock/2013.1/src/exe/rbdock.cxx#4 $)

>  <Rbt.Library>
libRbt.so (2013.1, Build901 2013/11/27)

>  <Rbt.Parameter_File>
/export/apps/rDock/src/rDock_2013.1_src/data/scripts/dock_solv.prm

>  <Rbt.Receptor>
prm/pocket_docking_6.prm

>  <SCORE>
-27.2383

>  <SCORE.INTER>
-25.8768

>  <SCORE.INTER.CONST>
1

>  <SCORE.INTER.POLAR>
-2.08102

>  <SCORE.INTER.ROT>
6

>  <SCORE.INTER.SOLV>
14.6142

>  <SCORE.INTER.VDW>
-22.7858

>  <SCORE.INTER.norm>
-0.699372

>  <SCORE.INTRA>
-1.36149

>  <SCORE.INTRA.DIHEDRAL>
-3.4993

>  <SCORE.INTRA.DIHEDRAL.0>
15.6389

>  <SCORE.INTRA.POLAR>
0

>  <SCORE.INTRA.POLAR.0>
0

>  <SCORE.INTRA.REPUL>
0

>  <SCORE.INTRA.REPUL.0>
0

>  <SCORE.INTRA.SOLV>
0.0215769

>  <SCORE.INTRA.SOLV.lig_0>
-90.9181

>  <SCORE.INTRA.VDW>
0.37737

>  <SCORE.INTRA.VDW.0>
-3.14158

>  <SCORE.INTRA.norm>
-0.0367971

>  <SCORE.RESTR>
0

>  <SCORE.RESTR.CAVITY>
0

>  <SCORE.RESTR.norm>
0

>  <SCORE.SYSTEM>
0

>  <SCORE.SYSTEM.CONST>
0

>  <SCORE.SYSTEM.DIHEDRAL>
0

>  <SCORE.SYSTEM.SOLV>
0

>  <SCORE.SYSTEM.norm>
0

>  <SCORE.heavy>
37

>  <SCORE.norm>
-0.736169

>  <RMSD>
10.265

$$$$
1yrj_lig
 OpenBabel11021811423D
libRbt.so/2013.1/901 2013/11/27
 37 40  0  0  0  0  0  0  0  0999 V2000
   39.6068    0.3520    9.5368 C   0  0  1  0  0  0  0  0  0  0  0  0
   38.2951    0.3419    8.7277 C   0  0  1  0  0  0  0  0  0  0  0  0
   38.2454    1.4887    7.7055 C   0  0  0  0  0  0  0  0  0  0  0  0
   38.4732    2.8471    8.4187 C   0  0  1  0  0  0  0  0  0  0  0  0
   39.8171    2.8290    9.1714 C   0  0  1  0  0  0  0  0  0  0  0  0
   40.0312    4.2326    9.8801 C   0  0  1  0  0  0  0  0  0  0  0  0
   40.0272    5.3511    8.8254 C   0  0  1  0  0  0  0  0  0  0  0  0
   38.6791    5.2945    8.0667 C   0  0  2  0  0  0  0  0  0  0  0  0
   40.9552    7.7208    8.6531 C   0  0  0  0  0  0  0  0  0  0  0  0
   38.0738   -0.9489    8.0556 N   0  0  0  0  0  0  0  0  0  0  0  0
   40.2789    6.6725    9.4795 N   0  0  0  0  0  0  0  0  0  0  0  0
   40.7503   -0.1016    8.7887 O   0  0  0  0  0  0  0  0  0  0  0  0
   39.8040    1.6948   10.1173 O   0  0  0  0  0  0  0  0  0  0  0  0
   38.4731    3.9832    7.4691 O   0  0  0  0  0  0  0  0  0  0  0  0
   38.9563    4.4821   10.7615 O   0  0  0  0  0  0  0  0  0  0  0  0
   38.6151    6.2650    7.0209 O   0  0  0  0  0  0  0  0  0  0  0  0
   37.2876    6.8059    6.8240 C   0  0  2  0  0  0  0  0  0  0  0  0
   37.2316    7.9076    5.7531 C   0  0  1  0  0  0  0  0  0  0  0  0
   37.9582    9.1922    6.2329 C   0  0  2  0  0  0  0  0  0  0  0  0
   37.3442    9.6781    7.5258 C   0  0  1  0  0  0  0  0  0  0  0  0
   37.4425    8.5596    8.5901 C   0  0  1  0  0  0  0  0  0  0  0  0
   36.8001    8.9488    9.9196 C   0  0  0  0  0  0  0  0  0  0  0  0
   38.0587   10.8969    7.9588 N   0  0  0  0  0  0  0  0  0  0  0  0
   36.7610    7.3489    8.0978 O   0  0  0  0  0  0  0  0  0  0  0  0
   37.7936    7.3874    4.5396 O   0  0  0  0  0  0  0  0  0  0  0  0
   37.8222   10.2216    5.2436 O   0  0  0  0  0  0  0  0  0  0  0  0
   36.5554    7.7929   10.6758 O   0  0  0  0  0  0  0  0  0  0  0  0
   41.0730   -1.5669    8.5368 C   0  0  1  0  0  0  0  0  0  0  0  0
   41.9305   -1.6300    7.2536 C   0  0  1  0  0  0  0  0  0  0  0  0
   42.3707   -3.0817    6.9456 C   0  0  2  0  0  0  0  0  0  0  0  0
   43.1688   -3.6485    8.1258 C   0  0  1  0  0  0  0  0  0  0  0  0
   42.3068   -3.6254    9.4139 C   0  0  0  0  0  0  0  0  0  0  0  0
   41.8963   -2.1789    9.7086 C   0  0  2  0  0  0  0  0  0  0  0  0
   43.5768   -5.0399    7.8294 N   0  0  0  0  0  0  0  0  0  0  0  0
   41.1035   -2.1971   10.9350 N   0  0  0  0  0  0  0  0  0  0  0  0
   41.1515   -1.1381    6.1413 O   0  0  0  0  0  0  0  0  0  0  0  0
   43.1869   -3.0784    5.7546 O   0  0  0  0  0  0  0  0  0  0  0  0
  1  2  1  0  0  0  0
  1 12  1  6  0  0  0
  1 13  1  0  0  0  0
  2  3  1  0  0  0  0
  2 10  1  6  0  0  0
  4  3  1  6  0  0  0
  4  5  1  0  0  0  0
  4 14  1  0  0  0  0
  5  6  1  0  0  0  0
  5 13  1  1  0  0  0
  6  7  1  0  0  0  0
  6 15  1  1  0  0  0
  7  8  1  0  0  0  0
  7 11  1  1  0  0  0
  8 14  1  0  0  0  0
  8 16  1  6  0  0  0
  9 11  1  0  0  0  0
 17 16  1  1  0  0  0
 17 18  1  0  0  0  0
 17 24  1  0  0  0  0
 18 19  1  0  0  0  0
 18 25  1  6  0  0  0
 19 20  1  0  0  0  0
 19 26  1  6  0  0  0
 20 21  1  0  0  0  0
 20 23  1  1  0  0  0
 21 22  1  1  0  0  0
 21 24  1  0  0  0  0
 22 27  1  0  0  0  0
 28 12  1  1  0  0  0
 28 29  1  0  0  0  0
 28 33  1  0  0  0  0
 29 30  1  0  0  0  0
 29 36  1  6  0  0  0
 30 31  1  0  0  0  0
 30 37  1  6  0  0  0
 31 32  1  0  0  0  0
 31 34  1  6  0  0  0
 32 33  1  0  0  0  0
 33 35  1  1  0  0  0
M  END
>  <CHROM.1>
-79.65634224,150.96140674,-145.76735965,176.74929846,161.95772090,155.39635167
39.49379674,3.29565521,8.16301224,0.39075516,-1.19031743,1.93716557

>  <Name>
1yrj_lig

>  <RI>
0

>  <Rbt.Current_Directory>
/home/itssahil/PROJECTS/Mol_Feturizer/New_Systems/rnas/1yrj

>  <Rbt.Executable>
rbdock ($Id: //depot/dev/client3/rdock/2013.1/src/exe/rbdock.cxx#4 $)

>  <Rbt.Library>
libRbt.so (2013.1, Build901 2013/11/27)

>  <Rbt.Parameter_File>
/export/apps/rDock/src/rDock_2013.1_src/data/scripts/dock_solv.prm

>  <Rbt.Receptor>
prm/pocket_docking_6.prm

>  <SCORE>
-26.6295

>  <SCORE.INTER>
-23.6979

>  <SCORE.INTER.CONST>
1

>  <SCORE.INTER.POLAR>
-1.98059

>  <SCORE.INTER.ROT>
6

>  <SCORE.INTER.SOLV>
14.092

>  <SCORE.INTER.VDW>
-21.494

>  <SCORE.INTER.norm>
-0.640485

>  <SCORE.INTRA>
-2.93152

>  <SCORE.INTRA.DIHEDRAL>
-5.14403

>  <SCORE.INTRA.DIHEDRAL.0>
15.6389

>  <SCORE.INTRA.POLAR>
0

>  <SCORE.INTRA.POLAR.0>
0

>  <SCORE.INTRA.REPUL>
0.010879

>  <SCORE.INTRA.REPUL.0>
0

>  <SCORE.INTRA.SOLV>
0.808666

>  <SCORE.INTRA.SOLV.lig_0>
-90.9181

>  <SCORE.INTRA.VDW>
-0.818236

>  <SCORE.INTRA.VDW.0>
-3.14158

>  <SCORE.INTRA.norm>
-0.0792304

>  <SCORE.RESTR>
0

>  <SCORE.RESTR.CAVITY>
0

>  <SCORE.RESTR.norm>
0

>  <SCORE.SYSTEM>
0

>  <SCORE.SYSTEM.CONST>
0

>  <SCORE.SYSTEM.DIHEDRAL>
0

>  <SCORE.SYSTEM.SOLV>
0

>  <SCORE.SYSTEM.norm>
0

>  <SCORE.heavy>
37

>  <SCORE.norm>
-0.719715

>  <RMSD>
10.266

$$$$
1yrj_lig
 OpenBabel11021811423D
libRbt.so/2013.1/901 2013/11/27
 37 40  0  0  0  0  0  0  0  0999 V2000
   38.3218   -0.9261    9.7004 C   0  0  1  0  0  0  0  0  0  0  0  0
   37.2640   -0.6295    8.6194 C   0  0  1  0  0  0  0  0  0  0  0  0
   37.7591    0.4157    7.6070 C   0  0  0  0  0  0  0  0  0  0  0  0
   38.2047    1.7037    8.3474 C   0  0  1  0  0  0  0  0  0  0  0  0
   39.2967    1.3675    9.3806 C   0  0  1  0  0  0  0  0  0  0  0  0
   39.7432    2.7024   10.1133 C   0  0  1  0  0  0  0  0  0  0  0  0
   40.2799    3.7057    9.0795 C   0  0  1  0  0  0  0  0  0  0  0  0
   39.1642    3.9711    8.0397 C   0  0  2  0  0  0  0  0  0  0  0  0
   39.6978    5.8990   10.2445 C   0  0  0  0  0  0  0  0  0  0  0  0
   36.8348   -1.8518    7.9203 N   0  0  0  0  0  0  0  0  0  0  0  0
   40.7500    4.9478    9.7676 N   0  0  0  0  0  0  0  0  0  0  0  0
   39.4221   -1.7256    9.2276 O   0  0  0  0  0  0  0  0  0  0  0  0
   38.7626    0.3465   10.3045 O   0  0  0  0  0  0  0  0  0  0  0  0
   38.7277    2.7299    7.4168 O   0  0  0  0  0  0  0  0  0  0  0  0
   38.6210    3.2961   10.7320 O   0  0  0  0  0  0  0  0  0  0  0  0
   39.6011    4.8496    7.0019 O   0  0  0  0  0  0  0  0  0  0  0  0
   38.5229    5.3171    6.1578 C   0  0  2  0  0  0  0  0  0  0  0  0
   39.0015    6.1894    4.9857 C   0  0  1  0  0  0  0  0  0  0  0  0
   39.5389    7.5559    5.4877 C   0  0  2  0  0  0  0  0  0  0  0  0
   38.4671    8.2714    6.2777 C   0  0  1  0  0  0  0  0  0  0  0  0
   38.0283    7.3822    7.4652 C   0  0  1  0  0  0  0  0  0  0  0  0
   36.9088    8.0095    8.2929 C   0  0  0  0  0  0  0  0  0  0  0  0
   39.0090    9.5641    6.7452 N   0  0  0  0  0  0  0  0  0  0  0  0
   37.5419    6.0866    6.9580 O   0  0  0  0  0  0  0  0  0  0  0  0
   39.9904    5.4547    4.2498 O   0  0  0  0  0  0  0  0  0  0  0  0
   39.9059    8.3716    4.3666 O   0  0  0  0  0  0  0  0  0  0  0  0
   37.3771    9.1867    8.8950 O   0  0  0  0  0  0  0  0  0  0  0  0
   40.5340   -2.2530   10.1221 C   0  0  1  0  0  0  0  0  0  0  0  0
   39.9467   -3.4297   10.9323 C   0  0  1  0  0  0  0  0  0  0  0  0
   41.0245   -4.0834   11.8307 C   0  0  2  0  0  0  0  0  0  0  0  0
   42.1910   -4.5832   10.9701 C   0  0  1  0  0  0  0  0  0  0  0  0
   42.8141   -3.4049   10.1787 C   0  0  0  0  0  0  0  0  0  0  0  0
   41.7354   -2.7837    9.2852 C   0  0  2  0  0  0  0  0  0  0  0  0
   43.2224   -5.1968   11.8361 N   0  0  0  0  0  0  0  0  0  0  0  0
   42.3642   -1.6927    8.5454 N   0  0  0  0  0  0  0  0  0  0  0  0
   38.8811   -2.9374   11.7737 O   0  0  0  0  0  0  0  0  0  0  0  0
   40.4290   -5.1887   12.5437 O   0  0  0  0  0  0  0  0  0  0  0  0
  1  2  1  0  0  0  0
  1 12  1  6  0  0  0
  1 13  1  0  0  0  0
  2  3  1  0  0  0  0
  2 10  1  6  0  0  0
  4  3  1  6  0  0  0
  4  5  1  0  0  0  0
  4 14  1  0  0  0  0
  5  6  1  0  0  0  0
  5 13  1  1  0  0  0
  6  7  1  0  0  0  0
  6 15  1  6  0  0  0
  7  8  1  0  0  0  0
  7 11  1  1  0  0  0
  8 14  1  0  0  0  0
  8 16  1  6  0  0  0
  9 11  1  0  0  0  0
 17 16  1  1  0  0  0
 17 18  1  0  0  0  0
 17 24  1  0  0  0  0
 18 19  1  0  0  0  0
 18 25  1  1  0  0  0
 19 20  1  0  0  0  0
 19 26  1  6  0  0  0
 20 21  1  0  0  0  0
 20 23  1  1  0  0  0
 21 22  1  6  0  0  0
 21 24  1  0  0  0  0
 22 27  1  0  0  0  0
 28 12  1  6  0  0  0
 28 29  1  0  0  0  0
 28 33  1  0  0  0  0
 29 30  1  0  0  0  0
 29 36  1  1  0  0  0
 30 31  1  0  0  0  0
 30 37  1  6  0  0  0
 31 32  1  0  0  0  0
 31 34  1  1  0  0  0
 32 33  1  0  0  0  0
 33 35  1  1  0  0  0
M  END
>  <CHROM.1>
-174.66283392,-76.17084476,-169.08625642,-176.26526046,-64.32241319,75.08508445
39.43774053,2.11875557,8.68333064,1.25107507,-0.99047181,2.51498069

>  <Name>
1yrj_lig

>  <RI>
0

>  <Rbt.Current_Directory>
/home/itssahil/PROJECTS/Mol_Feturizer/New_Systems/rnas/1yrj

>  <Rbt.Executable>
rbdock ($Id: //depot/dev/client3/rdock/2013.1/src/exe/rbdock.cxx#4 $)

>  <Rbt.Library>
libRbt.so (2013.1, Build901 2013/11/27)

>  <Rbt.Parameter_File>
/export/apps/rDock/src/rDock_2013.1_src/data/scripts/dock_solv.prm

>  <Rbt.Receptor>
prm/pocket_docking_6.prm

>  <SCORE>
-29.012

>  <SCORE.INTER>
-23.603

>  <SCORE.INTER.CONST>
1

>  <SCORE.INTER.POLAR>
-1.40202

>  <SCORE.INTER.ROT>
6

>  <SCORE.INTER.SOLV>
15.1678

>  <SCORE.INTER.VDW>
-23.7178

>  <SCORE.INTER.norm>
-0.637918

>  <SCORE.INTRA>
-5.409

>  <SCORE.INTRA.DIHEDRAL>
-13.4172

>  <SCORE.INTRA.DIHEDRAL.0>
15.6389

>  <SCORE.INTRA.POLAR>
0

>  <SCORE.INTRA.POLAR.0>
0

>  <SCORE.INTRA.REPUL>
0

>  <SCORE.INTRA.REPUL.0>
0

>  <SCORE.INTRA.SOLV>
-1.42468

>  <SCORE.INTRA.SOLV.lig_0>
-90.9181

>  <SCORE.INTRA.VDW>
2.01196

>  <SCORE.INTRA.VDW.0>
-3.14158

>  <SCORE.INTRA.norm>
-0.146189

>  <SCORE.RESTR>
0

>  <SCORE.RESTR.CAVITY>
0

>  <SCORE.RESTR.norm>
0

>  <SCORE.SYSTEM>
0

>  <SCORE.SYSTEM.CONST>
0

>  <SCORE.SYSTEM.DIHEDRAL>
0

>  <SCORE.SYSTEM.SOLV>
0

>  <SCORE.SYSTEM.norm>
0

>  <SCORE.heavy>
37

>  <SCORE.norm>
-0.784107

>  <RMSD>
10.267

$$$$
1yrj_lig
 OpenBabel11021811423D
libRbt.so/2013.1/901 2013/11/27
 37 40  0  0  0  0  0  0  0  0999 V2000
   38.7871   -0.7342    9.5526 C   0  0  1  0  0  0  0  0  0  0  0  0
   37.7585   -0.5255    8.4239 C   0  0  1  0  0  0  0  0  0  0  0  0
   38.1882    0.5906    7.4585 C   0  0  0  0  0  0  0  0  0  0  0  0
   38.4557    1.9003    8.2451 C   0  0  1  0  0  0  0  0  0  0  0  0
   39.5247    1.6571    9.3271 C   0  0  1  0  0  0  0  0  0  0  0  0
   39.7884    3.0136   10.1071 C   0  0  1  0  0  0  0  0  0  0  0  0
   40.2650    4.0931    9.1217 C   0  0  1  0  0  0  0  0  0  0  0  0
   39.1803    4.2636    8.0305 C   0  0  2  0  0  0  0  0  0  0  0  0
   41.7018    5.3299   10.8283 C   0  0  0  0  0  0  0  0  0  0  0  0
   37.4983   -1.7692    7.6805 N   0  0  0  0  0  0  0  0  0  0  0  0
   40.5643    5.3610    9.8566 N   0  0  0  0  0  0  0  0  0  0  0  0
   39.9889   -1.4006    9.1227 O   0  0  0  0  0  0  0  0  0  0  0  0
   39.0581    0.5629   10.2026 O   0  0  0  0  0  0  0  0  0  0  0  0
   38.9111    2.9986    7.3624 O   0  0  0  0  0  0  0  0  0  0  0  0
   38.5797    3.4695   10.6777 O   0  0  0  0  0  0  0  0  0  0  0  0
   39.5714    5.2085    7.0335 O   0  0  0  0  0  0  0  0  0  0  0  0
   38.4777    5.6287    6.1844 C   0  0  2  0  0  0  0  0  0  0  0  0
   38.9415    6.2979    4.8803 C   0  0  1  0  0  0  0  0  0  0  0  0
   39.5886    7.6804    5.1600 C   0  0  2  0  0  0  0  0  0  0  0  0
   38.6087    8.5685    5.8921 C   0  0  1  0  0  0  0  0  0  0  0  0
   38.1844    7.8818    7.2119 C   0  0  1  0  0  0  0  0  0  0  0  0
   37.1537    8.6911    7.9959 C   0  0  0  0  0  0  0  0  0  0  0  0
   39.2539    9.8730    6.1476 N   0  0  0  0  0  0  0  0  0  0  0  0
   37.5921    6.5652    6.9148 O   0  0  0  0  0  0  0  0  0  0  0  0
   39.8406    5.4039    4.2084 O   0  0  0  0  0  0  0  0  0  0  0  0
   39.9405    8.3083    3.9195 O   0  0  0  0  0  0  0  0  0  0  0  0
   36.0478    8.9582    7.1753 O   0  0  0  0  0  0  0  0  0  0  0  0
   41.1132   -1.8123   10.0613 C   0  0  1  0  0  0  0  0  0  0  0  0
   40.5852   -2.9850   10.9170 C   0  0  1  0  0  0  0  0  0  0  0  0
   41.6835   -3.5247   11.8650 C   0  0  2  0  0  0  0  0  0  0  0  0
   42.8970   -3.9882   11.0504 C   0  0  1  0  0  0  0  0  0  0  0  0
   43.4603   -2.8109   10.2141 C   0  0  0  0  0  0  0  0  0  0  0  0
   42.3632   -2.3033    9.2725 C   0  0  2  0  0  0  0  0  0  0  0  0
   43.9471   -4.4925   11.9633 N   0  0  0  0  0  0  0  0  0  0  0  0
   42.9365   -1.2102    8.4920 N   0  0  0  0  0  0  0  0  0  0  0  0
   39.4732   -2.5233   11.7145 O   0  0  0  0  0  0  0  0  0  0  0  0
   41.1446   -4.6312   12.6200 O   0  0  0  0  0  0  0  0  0  0  0  0
  1  2  1  0  0  0  0
  1 12  1  6  0  0  0
  1 13  1  0  0  0  0
  2  3  1  0  0  0  0
  2 10  1  6  0  0  0
  4  3  1  6  0  0  0
  4  5  1  0  0  0  0
  4 14  1  0  0  0  0
  5  6  1  0  0  0  0
  5 13  1  1  0  0  0
  6  7  1  0  0  0  0
  6 15  1  6  0  0  0
  7  8  1  0  0  0  0
  7 11  1  1  0  0  0
  8 14  1  0  0  0  0
  8 16  1  6  0  0  0
  9 11  1  0  0  0  0
 17 16  1  1  0  0  0
 17 18  1  0  0  0  0
 17 24  1  0  0  0  0
 18 19  1  0  0  0  0
 18 25  1  1  0  0  0
 19 20  1  0  0  0  0
 19 26  1  6  0  0  0
 20 21  1  0  0  0  0
 20 23  1  1  0  0  0
 21 22  1  6  0  0  0
 21 24  1  0  0  0  0
 22 27  1  0  0  0  0
 28 12  1  6  0  0  0
 28 29  1  0  0  0  0
 28 33  1  0  0  0  0
 29 30  1  0  0  0  0
 29 36  1  1  0  0  0
 30 31  1  0  0  0  0
 30 37  1  6  0  0  0
 31 32  1  0  0  0  0
 31 34  1  1  0  0  0
 32 33  1  0  0  0  0
 33 35  1  1  0  0  0
M  END
>  <CHROM.1>
-175.48480949,65.26072336,-166.24310001,-162.90722771,55.17613457,70.57338532
39.73410152,2.40901959,8.55722625,1.31425578,0.38352497,2.84045764

>  <Name>
1yrj_lig

>  <RI>
0

>  <Rbt.Current_Directory>
/home/itssahil/PROJECTS/Mol_Feturizer/New_Systems/rnas/1yrj

>  <Rbt.Executable>
rbdock ($Id: //depot/dev/client3/rdock/2013.1/src/exe/rbdock.cxx#4 $)

>  <Rbt.Library>
libRbt.so (2013.1, Build901 2013/11/27)

>  <Rbt.Parameter_File>
/export/apps/rDock/src/rDock_2013.1_src/data/scripts/dock_solv.prm

>  <Rbt.Receptor>
prm/pocket_docking_4.prm

>  <SCORE>
-29.0975

>  <SCORE.INTER>
-22.7074

>  <SCORE.INTER.CONST>
1

>  <SCORE.INTER.POLAR>
-1.27506

>  <SCORE.INTER.ROT>
6

>  <SCORE.INTER.SOLV>
14.7988

>  <SCORE.INTER.VDW>
-23.421

>  <SCORE.INTER.norm>
-0.613714

>  <SCORE.INTRA>
-6.39008

>  <SCORE.INTRA.DIHEDRAL>
-12.5522

>  <SCORE.INTRA.DIHEDRAL.0>
15.6389

>  <SCORE.INTRA.POLAR>
0

>  <SCORE.INTRA.POLAR.0>
0

>  <SCORE.INTRA.REPUL>
0

>  <SCORE.INTRA.REPUL.0>
0

>  <SCORE.INTRA.SOLV>
-2.15117

>  <SCORE.INTRA.SOLV.lig_0>
-90.9181

>  <SCORE.INTRA.VDW>
0.961621

>  <SCORE.INTRA.VDW.0>
-3.14158

>  <SCORE.INTRA.norm>
-0.172705

>  <SCORE.RESTR>
0

>  <SCORE.RESTR.CAVITY>
0

>  <SCORE.RESTR.norm>
0

>  <SCORE.SYSTEM>
0

>  <SCORE.SYSTEM.CONST>
0

>  <SCORE.SYSTEM.DIHEDRAL>
0

>  <SCORE.SYSTEM.SOLV>
0

>  <SCORE.SYSTEM.norm>
0

>  <SCORE.heavy>
37

>  <SCORE.norm>
-0.786419

>  <RMSD>
10.272

$$$$
1yrj_lig
 OpenBabel11021811423D
libRbt.so/2013.1/901 2013/11/27
 37 40  0  0  0  0  0  0  0  0999 V2000
   39.5500    0.3493    9.4689 C   0  0  1  0  0  0  0  0  0  0  0  0
   38.2300    0.3722    8.6736 C   0  0  1  0  0  0  0  0  0  0  0  0
   38.1901    1.5320    7.6659 C   0  0  0  0  0  0  0  0  0  0  0  0
   38.4493    2.8774    8.3929 C   0  0  1  0  0  0  0  0  0  0  0  0
   39.8004    2.8265    9.1311 C   0  0  1  0  0  0  0  0  0  0  0  0
   40.0467    4.2173    9.8543 C   0  0  1  0  0  0  0  0  0  0  0  0
   40.0516    5.3484    8.8132 C   0  0  1  0  0  0  0  0  0  0  0  0
   38.6949    5.3249    8.0681 C   0  0  2  0  0  0  0  0  0  0  0  0
   40.9896    7.7149    8.6499 C   0  0  0  0  0  0  0  0  0  0  0  0
   37.9789   -0.9063    7.9884 N   0  0  0  0  0  0  0  0  0  0  0  0
   40.3335    6.6572    9.4805 N   0  0  0  0  0  0  0  0  0  0  0  0
   40.6774   -0.1153    8.7034 O   0  0  0  0  0  0  0  0  0  0  0  0
   39.7768    1.6812   10.0633 O   0  0  0  0  0  0  0  0  0  0  0  0
   38.4596    4.0248    7.4570 O   0  0  0  0  0  0  0  0  0  0  0  0
   38.9855    4.4750   10.7499 O   0  0  0  0  0  0  0  0  0  0  0  0
   38.6375    6.3091    7.0348 O   0  0  0  0  0  0  0  0  0  0  0  0
   37.3128    6.8585    6.8423 C   0  0  2  0  0  0  0  0  0  0  0  0
   37.2577    7.9511    5.7621 C   0  0  1  0  0  0  0  0  0  0  0  0
   37.9976    9.2342    6.2254 C   0  0  2  0  0  0  0  0  0  0  0  0
   37.3965    9.7363    7.5183 C   0  0  1  0  0  0  0  0  0  0  0  0
   37.4936    8.6264    8.5917 C   0  0  1  0  0  0  0  0  0  0  0  0
   36.8636    9.0324    9.9221 C   0  0  0  0  0  0  0  0  0  0  0  0
   38.1234   10.9532    7.9354 N   0  0  0  0  0  0  0  0  0  0  0  0
   36.7994    7.4168    8.1149 O   0  0  0  0  0  0  0  0  0  0  0  0
   37.8071    7.4159    4.5494 O   0  0  0  0  0  0  0  0  0  0  0  0
   37.8625   10.2559    5.2280 O   0  0  0  0  0  0  0  0  0  0  0  0
   36.5190    7.8812   10.6459 O   0  0  0  0  0  0  0  0  0  0  0  0
   41.0009   -1.5842    8.4748 C   0  0  1  0  0  0  0  0  0  0  0  0
   41.8084   -1.6733    7.1610 C   0  0  1  0  0  0  0  0  0  0  0  0
   42.2471   -3.1293    6.8715 C   0  0  2  0  0  0  0  0  0  0  0  0
   43.0946   -3.6617    8.0331 C   0  0  1  0  0  0  0  0  0  0  0  0
   42.2831   -3.6125    9.3529 C   0  0  0  0  0  0  0  0  0  0  0  0
   41.8736   -2.1619    9.6282 C   0  0  2  0  0  0  0  0  0  0  0  0
   43.5011   -5.0573    7.7549 N   0  0  0  0  0  0  0  0  0  0  0  0
   41.1292   -2.1551   10.8846 N   0  0  0  0  0  0  0  0  0  0  0  0
   40.9832   -1.2139    6.0683 O   0  0  0  0  0  0  0  0  0  0  0  0
   43.0163   -3.1499    5.6498 O   0  0  0  0  0  0  0  0  0  0  0  0
  1  2  1  0  0  0  0
  1 12  1  6  0  0  0
  1 13  1  0  0  0  0
  2  3  1  0  0  0  0
  2 10  1  6  0  0  0
  4  3  1  6  0  0  0
  4  5  1  0  0  0  0
  4 14  1  0  0  0  0
  5  6  1  0  0  0  0
  5 13  1  1  0  0  0
  6  7  1  0  0  0  0
  6 15  1  1  0  0  0
  7  8  1  0  0  0  0
  7 11  1  1  0  0  0
  8 14  1  0  0  0  0
  8 16  1  6  0  0  0
  9 11  1  0  0  0  0
 17 16  1  1  0  0  0
 17 18  1  0  0  0  0
 17 24  1  0  0  0  0
 18 19  1  0  0  0  0
 18 25  1  6  0  0  0
 19 20  1  0  0  0  0
 19 26  1  6  0  0  0
 20 21  1  0  0  0  0
 20 23  1  1  0  0  0
 21 22  1  1  0  0  0
 21 24  1  0  0  0  0
 22 27  1  0  0  0  0
 28 12  1  1  0  0  0
 28 29  1  0  0  0  0
 28 33  1  0  0  0  0
 29 30  1  0  0  0  0
 29 36  1  6  0  0  0
 30 31  1  0  0  0  0
 30 37  1  6  0  0  0
 31 32  1  0  0  0  0
 31 34  1  6  0  0  0
 32 33  1  0  0  0  0
 33 35  1  1  0  0  0
M  END
>  <CHROM.1>
-82.07137767,152.40879878,-146.80113654,178.10783988,157.35762761,154.50120007
39.47503385,3.31148646,8.12882320,0.33768966,-1.20991592,1.88644534

>  <Name>
1yrj_lig

>  <RI>
0

>  <Rbt.Current_Directory>
/home/itssahil/PROJECTS/Mol_Feturizer/New_Systems/rnas/1yrj

>  <Rbt.Executable>
rbdock ($Id: //depot/dev/client3/rdock/2013.1/src/exe/rbdock.cxx#4 $)

>  <Rbt.Library>
libRbt.so (2013.1, Build901 2013/11/27)

>  <Rbt.Parameter_File>
/export/apps/rDock/src/rDock_2013.1_src/data/scripts/dock_solv.prm

>  <Rbt.Receptor>
prm/pocket_docking_5.prm

>  <SCORE>
-26.7256

>  <SCORE.INTER>
-24.2078

>  <SCORE.INTER.CONST>
1

>  <SCORE.INTER.POLAR>
-2.07583

>  <SCORE.INTER.ROT>
6

>  <SCORE.INTER.SOLV>
13.9507

>  <SCORE.INTER.VDW>
-21.4693

>  <SCORE.INTER.norm>
-0.654265

>  <SCORE.INTRA>
-2.51778

>  <SCORE.INTRA.DIHEDRAL>
-4.30153

>  <SCORE.INTRA.DIHEDRAL.0>
15.6389

>  <SCORE.INTRA.POLAR>
0

>  <SCORE.INTRA.POLAR.0>
0

>  <SCORE.INTRA.REPUL>
0.00276772

>  <SCORE.INTRA.REPUL.0>
0

>  <SCORE.INTRA.SOLV>
0.600033

>  <SCORE.INTRA.SOLV.lig_0>
-90.9181

>  <SCORE.INTRA.VDW>
-0.680867

>  <SCORE.INTRA.VDW.0>
-3.14158

>  <SCORE.INTRA.norm>
-0.0680481

>  <SCORE.RESTR>
0

>  <SCORE.RESTR.CAVITY>
0

>  <SCORE.RESTR.norm>
0

>  <SCORE.SYSTEM>
0

>  <SCORE.SYSTEM.CONST>
0

>  <SCORE.SYSTEM.DIHEDRAL>
0

>  <SCORE.SYSTEM.SOLV>
0

>  <SCORE.SYSTEM.norm>
0

>  <SCORE.heavy>
37

>  <SCORE.norm>
-0.722313

>  <RMSD>
10.276

$$$$
1yrj_lig
 OpenBabel11021811423D
libRbt.so/2013.1/901 2013/11/27
 37 40  0  0  0  0  0  0  0  0999 V2000
   39.5809    0.3490    9.5554 C   0  0  1  0  0  0  0  0  0  0  0  0
   38.2700    0.3269    8.7452 C   0  0  1  0  0  0  0  0  0  0  0  0
   38.2166    1.4650    7.7135 C   0  0  0  0  0  0  0  0  0  0  0  0
   38.4383    2.8301    8.4156 C   0  0  1  0  0  0  0  0  0  0  0  0
   39.7815    2.8237    9.1697 C   0  0  1  0  0  0  0  0  0  0  0  0
   39.9893    4.2340    9.8669 C   0  0  1  0  0  0  0  0  0  0  0  0
   39.9818    5.3436    8.8030 C   0  0  1  0  0  0  0  0  0  0  0  0
   38.6346    5.2753    8.0435 C   0  0  2  0  0  0  0  0  0  0  0  0
   40.8934    7.7181    8.6094 C   0  0  0  0  0  0  0  0  0  0  0  0
   38.0545   -0.9703    8.0836 N   0  0  0  0  0  0  0  0  0  0  0  0
   40.2275    6.6715    9.4463 N   0  0  0  0  0  0  0  0  0  0  0  0
   40.7269   -0.1062    8.8121 O   0  0  0  0  0  0  0  0  0  0  0  0
   39.7720    1.6973   10.1249 O   0  0  0  0  0  0  0  0  0  0  0  0
   38.4345    3.9583    7.4566 O   0  0  0  0  0  0  0  0  0  0  0  0
   38.9125    4.4865   10.7452 O   0  0  0  0  0  0  0  0  0  0  0  0
   38.5678    6.2369    6.9896 O   0  0  0  0  0  0  0  0  0  0  0  0
   37.2536    6.8214    6.8321 C   0  0  2  0  0  0  0  0  0  0  0  0
   37.1947    7.9027    5.7408 C   0  0  1  0  0  0  0  0  0  0  0  0
   37.9845    9.1695    6.1647 C   0  0  2  0  0  0  0  0  0  0  0  0
   37.4391    9.7031    7.4695 C   0  0  1  0  0  0  0  0  0  0  0  0
   37.5393    8.6034    8.5530 C   0  0  1  0  0  0  0  0  0  0  0  0
   36.9635    9.0423    9.8975 C   0  0  0  0  0  0  0  0  0  0  0  0
   38.2126   10.9037    7.8485 N   0  0  0  0  0  0  0  0  0  0  0  0
   36.7967    7.4086    8.1133 O   0  0  0  0  0  0  0  0  0  0  0  0
   37.6901    7.3382    4.5181 O   0  0  0  0  0  0  0  0  0  0  0  0
   37.8464   10.1831    5.1595 O   0  0  0  0  0  0  0  0  0  0  0  0
   36.5195    7.9154   10.6052 O   0  0  0  0  0  0  0  0  0  0  0  0
   41.0460   -1.5718    8.5575 C   0  0  1  0  0  0  0  0  0  0  0  0
   41.9956   -1.6260    7.3404 C   0  0  1  0  0  0  0  0  0  0  0  0
   42.4362   -3.0789    7.0388 C   0  0  2  0  0  0  0  0  0  0  0  0
   43.1360   -3.6790    8.2641 C   0  0  1  0  0  0  0  0  0  0  0  0
   42.1810   -3.6648    9.4849 C   0  0  0  0  0  0  0  0  0  0  0  0
   41.7708   -2.2173    9.7755 C   0  0  2  0  0  0  0  0  0  0  0  0
   43.5445   -5.0713    7.9727 N   0  0  0  0  0  0  0  0  0  0  0  0
   40.8888   -2.2444   10.9392 N   0  0  0  0  0  0  0  0  0  0  0  0
   41.3087   -1.1023    6.1829 O   0  0  0  0  0  0  0  0  0  0  0  0
   43.3387   -3.0677    5.9118 O   0  0  0  0  0  0  0  0  0  0  0  0
  1  2  1  0  0  0  0
  1 12  1  6  0  0  0
  1 13  1  0  0  0  0
  2  3  1  0  0  0  0
  2 10  1  6  0  0  0
  4  3  1  6  0  0  0
  4  5  1  0  0  0  0
  4 14  1  0  0  0  0
  5  6  1  0  0  0  0
  5 13  1  1  0  0  0
  6  7  1  0  0  0  0
  6 15  1  1  0  0  0
  7  8  1  0  0  0  0
  7 11  1  1  0  0  0
  8 14  1  0  0  0  0
  8 16  1  6  0  0  0
  9 11  1  0  0  0  0
 17 16  1  1  0  0  0
 17 18  1  0  0  0  0
 17 24  1  0  0  0  0
 18 19  1  0  0  0  0
 18 25  1  6  0  0  0
 19 20  1  0  0  0  0
 19 26  1  6  0  0  0
 20 21  1  0  0  0  0
 20 23  1  1  0  0  0
 21 22  1  1  0  0  0
 21 24  1  0  0  0  0
 22 27  1  0  0  0  0
 28 12  1  1  0  0  0
 28 29  1  0  0  0  0
 28 33  1  0  0  0  0
 29 30  1  0  0  0  0
 29 36  1  6  0  0  0
 30 31  1  0  0  0  0
 30 37  1  6  0  0  0
 31 32  1  0  0  0  0
 31 34  1  6  0  0  0
 32 33  1  0  0  0  0
 33 35  1  1  0  0  0
M  END
>  <CHROM.1>
-78.83620355,151.29874881,-142.76923624,177.38299924,153.05488560,159.49109983
39.48525004,3.29473398,8.16968509,0.46497443,-1.18118696,2.00562403

>  <Name>
1yrj_lig

>  <RI>
0

>  <Rbt.Current_Directory>
/home/itssahil/PROJECTS/Mol_Feturizer/New_Systems/rnas/1yrj

>  <Rbt.Executable>
rbdock ($Id: //depot/dev/client3/rdock/2013.1/src/exe/rbdock.cxx#4 $)

>  <Rbt.Library>
libRbt.so (2013.1, Build901 2013/11/27)

>  <Rbt.Parameter_File>
/export/apps/rDock/src/rDock_2013.1_src/data/scripts/dock_solv.prm

>  <Rbt.Receptor>
prm/pocket_docking_4.prm

>  <SCORE>
-26.5027

>  <SCORE.INTER>
-24.2061

>  <SCORE.INTER.CONST>
1

>  <SCORE.INTER.POLAR>
-2.05283

>  <SCORE.INTER.ROT>
6

>  <SCORE.INTER.SOLV>
13.9851

>  <SCORE.INTER.VDW>
-21.5563

>  <SCORE.INTER.norm>
-0.654219

>  <SCORE.INTRA>
-2.29663

>  <SCORE.INTRA.DIHEDRAL>
-4.35102

>  <SCORE.INTRA.DIHEDRAL.0>
15.6389

>  <SCORE.INTRA.POLAR>
0

>  <SCORE.INTRA.POLAR.0>
0

>  <SCORE.INTRA.REPUL>
0

>  <SCORE.INTRA.REPUL.0>
0

>  <SCORE.INTRA.SOLV>
1.1539

>  <SCORE.INTRA.SOLV.lig_0>
-90.9181

>  <SCORE.INTRA.VDW>
-0.698068

>  <SCORE.INTRA.VDW.0>
-3.14158

>  <SCORE.INTRA.norm>
-0.062071

>  <SCORE.RESTR>
0

>  <SCORE.RESTR.CAVITY>
0

>  <SCORE.RESTR.norm>
0

>  <SCORE.SYSTEM>
0

>  <SCORE.SYSTEM.CONST>
0

>  <SCORE.SYSTEM.DIHEDRAL>
0

>  <SCORE.SYSTEM.SOLV>
0

>  <SCORE.SYSTEM.norm>
0

>  <SCORE.heavy>
37

>  <SCORE.norm>
-0.71629

>  <RMSD>
10.278

$$$$
1yrj_lig
 OpenBabel11021811423D
libRbt.so/2013.1/901 2013/11/27
 37 40  0  0  0  0  0  0  0  0999 V2000
   38.9987   -0.1423    9.5660 C   0  0  1  0  0  0  0  0  0  0  0  0
   37.9135    0.1145    8.5022 C   0  0  1  0  0  0  0  0  0  0  0  0
   38.2776    1.2952    7.5880 C   0  0  0  0  0  0  0  0  0  0  0  0
   38.5613    2.5598    8.4401 C   0  0  1  0  0  0  0  0  0  0  0  0
   39.6854    2.2720    9.4533 C   0  0  1  0  0  0  0  0  0  0  0  0
   39.9643    3.5836   10.3018 C   0  0  1  0  0  0  0  0  0  0  0  0
   40.3749    4.7298    9.3631 C   0  0  1  0  0  0  0  0  0  0  0  0
   39.2360    4.9452    8.3371 C   0  0  2  0  0  0  0  0  0  0  0  0
   41.9936    5.9749   10.8917 C   0  0  0  0  0  0  0  0  0  0  0  0
   37.6379   -1.0866    7.6970 N   0  0  0  0  0  0  0  0  0  0  0  0
   40.6886    5.9565   10.1596 N   0  0  0  0  0  0  0  0  0  0  0  0
   40.1891   -0.7581    9.0396 O   0  0  0  0  0  0  0  0  0  0  0  0
   39.2796    1.1181   10.2810 O   0  0  0  0  0  0  0  0  0  0  0  0
   38.9555    3.7181    7.6060 O   0  0  0  0  0  0  0  0  0  0  0  0
   38.7773    3.9808   10.9559 O   0  0  0  0  0  0  0  0  0  0  0  0
   39.5628    5.9561    7.3827 O   0  0  0  0  0  0  0  0  0  0  0  0
   39.5129    7.2950    7.9290 C   0  0  2  0  0  0  0  0  0  0  0  0
   38.0847    7.8518    8.0472 C   0  0  1  0  0  0  0  0  0  0  0  0
   37.4739    8.1280    6.6476 C   0  0  2  0  0  0  0  0  0  0  0  0
   38.3554    9.0881    5.8819 C   0  0  1  0  0  0  0  0  0  0  0  0
   39.7752    8.4871    5.7544 C   0  0  1  0  0  0  0  0  0  0  0  0
   40.7491    9.4163    5.0333 C   0  0  0  0  0  0  0  0  0  0  0  0
   37.7514    9.3273    4.5548 N   0  0  0  0  0  0  0  0  0  0  0  0
   40.3197    8.2184    7.0975 O   0  0  0  0  0  0  0  0  0  0  0  0
   37.2991    6.9231    8.8084 O   0  0  0  0  0  0  0  0  0  0  0  0
   36.1739    8.7154    6.7957 O   0  0  0  0  0  0  0  0  0  0  0  0
   42.0056    8.7986    4.9461 O   0  0  0  0  0  0  0  0  0  0  0  0
   40.2080   -2.1097    8.3418 C   0  0  1  0  0  0  0  0  0  0  0  0
   41.5794   -2.2423    7.6435 C   0  0  1  0  0  0  0  0  0  0  0  0
   41.7260   -3.6211    6.9554 C   0  0  2  0  0  0  0  0  0  0  0  0
   41.5649   -4.7420    7.9891 C   0  0  1  0  0  0  0  0  0  0  0  0
   40.1770   -4.6433    8.6722 C   0  0  0  0  0  0  0  0  0  0  0  0
   40.0599   -3.2790    9.3598 C   0  0  2  0  0  0  0  0  0  0  0  0
   41.6951   -6.0571    7.3228 N   0  0  0  0  0  0  0  0  0  0  0  0
   38.7503   -3.2322   10.0045 N   0  0  0  0  0  0  0  0  0  0  0  0
   41.6991   -1.2105    6.6399 O   0  0  0  0  0  0  0  0  0  0  0  0
   43.0309   -3.6995    6.3423 O   0  0  0  0  0  0  0  0  0  0  0  0
  1  2  1  0  0  0  0
  1 12  1  6  0  0  0
  1 13  1  0  0  0  0
  2  3  1  0  0  0  0
  2 10  1  6  0  0  0
  4  3  1  6  0  0  0
  4  5  1  0  0  0  0
  4 14  1  0  0  0  0
  5  6  1  0  0  0  0
  5 13  1  1  0  0  0
  6  7  1  0  0  0  0
  6 15  1  6  0  0  0
  7  8  1  0  0  0  0
  7 11  1  1  0  0  0
  8 14  1  0  0  0  0
  8 16  1  6  0  0  0
  9 11  1  0  0  0  0
 17 16  1  6  0  0  0
 17 18  1  0  0  0  0
 17 24  1  0  0  0  0
 18 19  1  0  0  0  0
 18 25  1  6  0  0  0
 19 20  1  0  0  0  0
 19 26  1  1  0  0  0
 20 21  1  0  0  0  0
 20 23  1  6  0  0  0
 21 22  1  1  0  0  0
 21 24  1  0  0  0  0
 22 27  1  0  0  0  0
 28 12  1  1  0  0  0
 28 29  1  0  0  0  0
 28 33  1  0  0  0  0
 29 30  1  0  0  0  0
 29 36  1  6  0  0  0
 30 31  1  0  0  0  0
 30 37  1  1  0  0  0
 31 32  1  0  0  0  0
 31 34  1  6  0  0  0
 32 33  1  0  0  0  0
 33 35  1  6  0  0  0
M  END
>  <CHROM.1>
-59.69742120,75.34728586,-73.41034006,-78.78570002,-179.43628987,166.63562563
39.68849120,2.80399104,8.00170640,1.33486811,-0.93865190,2.83866432

>  <Name>
1yrj_lig

>  <RI>
0

>  <Rbt.Current_Directory>
/home/itssahil/PROJECTS/Mol_Feturizer/New_Systems/rnas/1yrj

>  <Rbt.Executable>
rbdock ($Id: //depot/dev/client3/rdock/2013.1/src/exe/rbdock.cxx#4 $)

>  <Rbt.Library>
libRbt.so (2013.1, Build901 2013/11/27)

>  <Rbt.Parameter_File>
/export/apps/rDock/src/rDock_2013.1_src/data/scripts/dock_solv.prm

>  <Rbt.Receptor>
prm/pocket_docking_7.prm

>  <SCORE>
-21.625

>  <SCORE.INTER>
-17.7113

>  <SCORE.INTER.CONST>
1

>  <SCORE.INTER.POLAR>
-0.927622

>  <SCORE.INTER.ROT>
6

>  <SCORE.INTER.SOLV>
13.2314

>  <SCORE.INTER.VDW>
-20.726

>  <SCORE.INTER.norm>
-0.478684

>  <SCORE.INTRA>
-3.91365

>  <SCORE.INTRA.DIHEDRAL>
-12.0485

>  <SCORE.INTRA.DIHEDRAL.0>
15.6389

>  <SCORE.INTRA.POLAR>
0

>  <SCORE.INTRA.POLAR.0>
0

>  <SCORE.INTRA.REPUL>
0

>  <SCORE.INTRA.REPUL.0>
0

>  <SCORE.INTRA.SOLV>
2.58947

>  <SCORE.INTRA.SOLV.lig_0>
-90.9181

>  <SCORE.INTRA.VDW>
0.815873

>  <SCORE.INTRA.VDW.0>
-3.14158

>  <SCORE.INTRA.norm>
-0.105774

>  <SCORE.RESTR>
0

>  <SCORE.RESTR.CAVITY>
0

>  <SCORE.RESTR.norm>
0

>  <SCORE.SYSTEM>
0

>  <SCORE.SYSTEM.CONST>
0

>  <SCORE.SYSTEM.DIHEDRAL>
0

>  <SCORE.SYSTEM.SOLV>
0

>  <SCORE.SYSTEM.norm>
0

>  <SCORE.heavy>
37

>  <SCORE.norm>
-0.584458

>  <RMSD>
10.278

$$$$
1yrj_lig
 OpenBabel11021811423D
libRbt.so/2013.1/901 2013/11/27
 37 40  0  0  0  0  0  0  0  0999 V2000
   39.0625   -0.3154    9.7905 C   0  0  1  0  0  0  0  0  0  0  0  0
   37.9927   -0.1897    8.6882 C   0  0  1  0  0  0  0  0  0  0  0  0
   38.3403    0.9153    7.6780 C   0  0  0  0  0  0  0  0  0  0  0  0
   38.5679    2.2595    8.4175 C   0  0  1  0  0  0  0  0  0  0  0  0
   39.6785    2.0997    9.4729 C   0  0  1  0  0  0  0  0  0  0  0  0
   39.9000    3.4903   10.2045 C   0  0  1  0  0  0  0  0  0  0  0  0
   40.2956    4.5602    9.1739 C   0  0  1  0  0  0  0  0  0  0  0  0
   39.1726    4.6464    8.1119 C   0  0  2  0  0  0  0  0  0  0  0  0
   41.7199    5.9139   10.8004 C   0  0  0  0  0  0  0  0  0  0  0  0
   37.7703   -1.4663    7.9898 N   0  0  0  0  0  0  0  0  0  0  0  0
   40.5555    5.8627    9.8620 N   0  0  0  0  0  0  0  0  0  0  0  0
   40.2817   -0.9377    9.3437 O   0  0  0  0  0  0  0  0  0  0  0  0
   39.2903    1.0123   10.3939 O   0  0  0  0  0  0  0  0  0  0  0  0
   38.9445    3.3504    7.4896 O   0  0  0  0  0  0  0  0  0  0  0  0
   38.6881    3.9065   10.7983 O   0  0  0  0  0  0  0  0  0  0  0  0
   39.4889    5.5776    7.0763 O   0  0  0  0  0  0  0  0  0  0  0  0
   38.3749    5.8516    6.1946 C   0  0  2  0  0  0  0  0  0  0  0  0
   38.7941    6.5093    4.8697 C   0  0  1  0  0  0  0  0  0  0  0  0
   39.2963    7.9596    5.0990 C   0  0  2  0  0  0  0  0  0  0  0  0
   38.2203    8.7753    5.7785 C   0  0  1  0  0  0  0  0  0  0  0  0
   37.8418    8.1049    7.1204 C   0  0  1  0  0  0  0  0  0  0  0  0
   36.7222    8.8394    7.8544 C   0  0  0  0  0  0  0  0  0  0  0  0
   38.7288   10.1469    5.9870 N   0  0  0  0  0  0  0  0  0  0  0  0
   37.3880    6.7248    6.8716 O   0  0  0  0  0  0  0  0  0  0  0  0
   39.7892    5.6821    4.2495 O   0  0  0  0  0  0  0  0  0  0  0  0
   39.6072    8.5677    3.8378 O   0  0  0  0  0  0  0  0  0  0  0  0
   36.5187    8.2456    9.1089 O   0  0  0  0  0  0  0  0  0  0  0  0
   40.4930   -2.4430    9.2815 C   0  0  1  0  0  0  0  0  0  0  0  0
   41.0245   -2.7699    7.8685 C   0  0  1  0  0  0  0  0  0  0  0  0
   41.3373   -4.2790    7.7237 C   0  0  2  0  0  0  0  0  0  0  0  0
   42.3722   -4.7023    8.7729 C   0  0  1  0  0  0  0  0  0  0  0  0
   41.8363   -4.4137   10.1986 C   0  0  0  0  0  0  0  0  0  0  0  0
   41.5490   -2.9139   10.3249 C   0  0  2  0  0  0  0  0  0  0  0  0
   42.6583   -6.1480    8.6361 N   0  0  0  0  0  0  0  0  0  0  0  0
   41.0648   -2.6806   11.6828 N   0  0  0  0  0  0  0  0  0  0  0  0
   40.0218   -2.4108    6.8930 O   0  0  0  0  0  0  0  0  0  0  0  0
   41.8521   -4.5229    6.3970 O   0  0  0  0  0  0  0  0  0  0  0  0
  1  2  1  0  0  0  0
  1 12  1  6  0  0  0
  1 13  1  0  0  0  0
  2  3  1  0  0  0  0
  2 10  1  6  0  0  0
  4  3  1  6  0  0  0
  4  5  1  0  0  0  0
  4 14  1  0  0  0  0
  5  6  1  0  0  0  0
  5 13  1  1  0  0  0
  6  7  1  0  0  0  0
  6 15  1  6  0  0  0
  7  8  1  0  0  0  0
  7 11  1  1  0  0  0
  8 14  1  0  0  0  0
  8 16  1  6  0  0  0
  9 11  1  0  0  0  0
 17 16  1  1  0  0  0
 17 18  1  0  0  0  0
 17 24  1  0  0  0  0
 18 19  1  0  0  0  0
 18 25  1  1  0  0  0
 19 20  1  0  0  0  0
 19 26  1  6  0  0  0
 20 21  1  0  0  0  0
 20 23  1  1  0  0  0
 21 22  1  6  0  0  0
 21 24  1  0  0  0  0
 22 27  1  0  0  0  0
 28 12  1  6  0  0  0
 28 29  1  0  0  0  0
 28 33  1  0  0  0  0
 29 30  1  0  0  0  0
 29 36  1  6  0  0  0
 30 31  1  0  0  0  0
 30 37  1  6  0  0  0
 31 32  1  0  0  0  0
 31 34  1  1  0  0  0
 32 33  1  0  0  0  0
 33 35  1  1  0  0  0
M  END
>  <CHROM.1>
-84.27508736,65.17340362,-170.14001150,-163.25427716,-174.76786946,129.29839472
39.58953005,2.44830447,8.09076678,0.36926256,-1.33305192,1.75540876

>  <Name>
1yrj_lig

>  <RI>
0

>  <Rbt.Current_Directory>
/home/itssahil/PROJECTS/Mol_Feturizer/New_Systems/rnas/1yrj

>  <Rbt.Executable>
rbdock ($Id: //depot/dev/client3/rdock/2013.1/src/exe/rbdock.cxx#4 $)

>  <Rbt.Library>
libRbt.so (2013.1, Build901 2013/11/27)

>  <Rbt.Parameter_File>
/export/apps/rDock/src/rDock_2013.1_src/data/scripts/dock_solv.prm

>  <Rbt.Receptor>
prm/pocket_docking_7.prm

>  <SCORE>
-26.4631

>  <SCORE.INTER>
-24.8627

>  <SCORE.INTER.CONST>
1

>  <SCORE.INTER.POLAR>
-2.18719

>  <SCORE.INTER.ROT>
6

>  <SCORE.INTER.SOLV>
14.7561

>  <SCORE.INTER.VDW>
-21.8032

>  <SCORE.INTER.norm>
-0.671965

>  <SCORE.INTRA>
-1.60044

>  <SCORE.INTRA.DIHEDRAL>
-4.38896

>  <SCORE.INTRA.DIHEDRAL.0>
15.6389

>  <SCORE.INTRA.POLAR>
0

>  <SCORE.INTRA.POLAR.0>
0

>  <SCORE.INTRA.REPUL>
0

>  <SCORE.INTRA.REPUL.0>
0

>  <SCORE.INTRA.SOLV>
-0.0104162

>  <SCORE.INTRA.SOLV.lig_0>
-90.9181

>  <SCORE.INTRA.VDW>
0.599245

>  <SCORE.INTRA.VDW.0>
-3.14158

>  <SCORE.INTRA.norm>
-0.0432552

>  <SCORE.RESTR>
0

>  <SCORE.RESTR.CAVITY>
0

>  <SCORE.RESTR.norm>
0

>  <SCORE.SYSTEM>
0

>  <SCORE.SYSTEM.CONST>
0

>  <SCORE.SYSTEM.DIHEDRAL>
0

>  <SCORE.SYSTEM.SOLV>
0

>  <SCORE.SYSTEM.norm>
0

>  <SCORE.heavy>
37

>  <SCORE.norm>
-0.71522

>  <RMSD>
10.282

$$$$
1yrj_lig
 OpenBabel11021811423D
libRbt.so/2013.1/901 2013/11/27
 37 40  0  0  0  0  0  0  0  0999 V2000
   38.6062   -0.5127    9.7418 C   0  0  1  0  0  0  0  0  0  0  0  0
   37.5240   -0.3047    8.6643 C   0  0  1  0  0  0  0  0  0  0  0  0
   37.9492    0.7419    7.6220 C   0  0  0  0  0  0  0  0  0  0  0  0
   38.3256    2.0715    8.3264 C   0  0  1  0  0  0  0  0  0  0  0  0
   39.4438    1.8247    9.3568 C   0  0  1  0  0  0  0  0  0  0  0  0
   39.8183    3.2009   10.0523 C   0  0  1  0  0  0  0  0  0  0  0  0
   40.2874    4.2075    8.9892 C   0  0  1  0  0  0  0  0  0  0  0  0
   39.1495    4.3821    7.9542 C   0  0  2  0  0  0  0  0  0  0  0  0
   39.5892    6.4072   10.0756 C   0  0  0  0  0  0  0  0  0  0  0  0
   37.1606   -1.5667    7.9994 N   0  0  0  0  0  0  0  0  0  0  0  0
   40.6904    5.4914    9.6423 N   0  0  0  0  0  0  0  0  0  0  0  0
   39.7470   -1.2589    9.2780 O   0  0  0  0  0  0  0  0  0  0  0  0
   38.9775    0.7978   10.3104 O   0  0  0  0  0  0  0  0  0  0  0  0
   38.7806    3.1027    7.3660 O   0  0  0  0  0  0  0  0  0  0  0  0
   38.6688    3.7440   10.6673 O   0  0  0  0  0  0  0  0  0  0  0  0
   39.5261    5.2582    6.8912 O   0  0  0  0  0  0  0  0  0  0  0  0
   38.4400    5.5526    5.9816 C   0  0  2  0  0  0  0  0  0  0  0  0
   38.8956    6.2715    4.7013 C   0  0  1  0  0  0  0  0  0  0  0  0
   39.3658    7.7181    5.0086 C   0  0  2  0  0  0  0  0  0  0  0  0
   38.2531    8.4886    5.6816 C   0  0  1  0  0  0  0  0  0  0  0  0
   37.8377    7.7570    6.9799 C   0  0  1  0  0  0  0  0  0  0  0  0
   36.6808    8.4434    7.7025 C   0  0  0  0  0  0  0  0  0  0  0  0
   38.7315    9.8576    5.9652 N   0  0  0  0  0  0  0  0  0  0  0  0
   37.4155    6.3820    6.6578 O   0  0  0  0  0  0  0  0  0  0  0  0
   39.9255    5.4858    4.0839 O   0  0  0  0  0  0  0  0  0  0  0  0
   39.7116    8.3831    3.7858 O   0  0  0  0  0  0  0  0  0  0  0  0
   36.4308    7.7838    8.9150 O   0  0  0  0  0  0  0  0  0  0  0  0
   39.8642   -2.7731    9.3671 C   0  0  1  0  0  0  0  0  0  0  0  0
   39.2535   -3.1979   10.7208 C   0  0  1  0  0  0  0  0  0  0  0  0
   39.2634   -4.7376   10.8805 C   0  0  2  0  0  0  0  0  0  0  0  0
   38.4780   -5.3879    9.7353 C   0  0  1  0  0  0  0  0  0  0  0  0
   39.1028   -4.9996    8.3709 C   0  0  0  0  0  0  0  0  0  0  0  0
   39.0680   -3.4745    8.2270 C   0  0  2  0  0  0  0  0  0  0  0  0
   38.5009   -6.8599    9.8880 N   0  0  0  0  0  0  0  0  0  0  0  0
   39.6469   -3.1509    6.9258 N   0  0  0  0  0  0  0  0  0  0  0  0
   40.0304   -2.6179   11.7913 O   0  0  0  0  0  0  0  0  0  0  0  0
   38.6609   -5.0785   12.1475 O   0  0  0  0  0  0  0  0  0  0  0  0
  1  2  1  0  0  0  0
  1 12  1  6  0  0  0
  1 13  1  0  0  0  0
  2  3  1  0  0  0  0
  2 10  1  6  0  0  0
  4  3  1  6  0  0  0
  4  5  1  0  0  0  0
  4 14  1  0  0  0  0
  5  6  1  0  0  0  0
  5 13  1  1  0  0  0
  6  7  1  0  0  0  0
  6 15  1  6  0  0  0
  7  8  1  0  0  0  0
  7 11  1  1  0  0  0
  8 14  1  0  0  0  0
  8 16  1  6  0  0  0
  9 11  1  0  0  0  0
 17 16  1  1  0  0  0
 17 18  1  0  0  0  0
 17 24  1  0  0  0  0
 18 19  1  0  0  0  0
 18 25  1  1  0  0  0
 19 20  1  0  0  0  0
 19 26  1  6  0  0  0
 20 21  1  0  0  0  0
 20 23  1  1  0  0  0
 21 22  1  6  0  0  0
 21 24  1  0  0  0  0
 22 27  1  0  0  0  0
 28 12  1  6  0  0  0
 28 29  1  0  0  0  0
 28 33  1  0  0  0  0
 29 30  1  0  0  0  0
 29 36  1  1  0  0  0
 30 31  1  0  0  0  0
 30 37  1  1  0  0  0
 31 32  1  0  0  0  0
 31 34  1  1  0  0  0
 32 33  1  0  0  0  0
 33 35  1  6  0  0  0
M  END
>  <CHROM.1>
-90.42401131,-77.63991126,-173.94566292,-169.14916184,-175.53079288,-38.87762712
38.86003954,2.14366567,8.28983403,0.71928681,-1.53019839,1.99419451

>  <Name>
1yrj_lig

>  <RI>
0

>  <Rbt.Current_Directory>
/home/itssahil/PROJECTS/Mol_Feturizer/New_Systems/rnas/1yrj

>  <Rbt.Executable>
rbdock ($Id: //depot/dev/client3/rdock/2013.1/src/exe/rbdock.cxx#4 $)

>  <Rbt.Library>
libRbt.so (2013.1, Build901 2013/11/27)

>  <Rbt.Parameter_File>
/export/apps/rDock/src/rDock_2013.1_src/data/scripts/dock_solv.prm

>  <Rbt.Receptor>
prm/pocket_docking_7.prm

>  <SCORE>
-24.3309

>  <SCORE.INTER>
-23.5492

>  <SCORE.INTER.CONST>
1

>  <SCORE.INTER.POLAR>
-1.56583

>  <SCORE.INTER.ROT>
6

>  <SCORE.INTER.SOLV>
15.4705

>  <SCORE.INTER.VDW>
-23.2369

>  <SCORE.INTER.norm>
-0.636465

>  <SCORE.INTRA>
-0.781677

>  <SCORE.INTRA.DIHEDRAL>
-8.88035

>  <SCORE.INTRA.DIHEDRAL.0>
15.6389

>  <SCORE.INTRA.POLAR>
0

>  <SCORE.INTRA.POLAR.0>
0

>  <SCORE.INTRA.REPUL>
0

>  <SCORE.INTRA.REPUL.0>
0

>  <SCORE.INTRA.SOLV>
2.5274

>  <SCORE.INTRA.SOLV.lig_0>
-90.9181

>  <SCORE.INTRA.VDW>
2.3948

>  <SCORE.INTRA.VDW.0>
-3.14158

>  <SCORE.INTRA.norm>
-0.0211264

>  <SCORE.RESTR>
0

>  <SCORE.RESTR.CAVITY>
0

>  <SCORE.RESTR.norm>
0

>  <SCORE.SYSTEM>
0

>  <SCORE.SYSTEM.CONST>
0

>  <SCORE.SYSTEM.DIHEDRAL>
0

>  <SCORE.SYSTEM.SOLV>
0

>  <SCORE.SYSTEM.norm>
0

>  <SCORE.heavy>
37

>  <SCORE.norm>
-0.657592

>  <RMSD>
10.283

$$$$
1yrj_lig
 OpenBabel11021811423D
libRbt.so/2013.1/901 2013/11/27
 37 40  0  0  0  0  0  0  0  0999 V2000
   39.2367    0.7609    9.3688 C   0  0  1  0  0  0  0  0  0  0  0  0
   38.1047    1.0756    8.3713 C   0  0  1  0  0  0  0  0  0  0  0  0
   38.3753    2.3714    7.5901 C   0  0  0  0  0  0  0  0  0  0  0  0
   38.6198    3.5447    8.5747 C   0  0  1  0  0  0  0  0  0  0  0  0
   39.7904    3.2072    9.5174 C   0  0  1  0  0  0  0  0  0  0  0  0
   40.0275    4.4273   10.5039 C   0  0  1  0  0  0  0  0  0  0  0  0
   40.3455    5.6943    9.6933 C   0  0  1  0  0  0  0  0  0  0  0  0
   39.1634    5.9606    8.7299 C   0  0  2  0  0  0  0  0  0  0  0  0
   42.0310    7.0082   11.0860 C   0  0  0  0  0  0  0  0  0  0  0  0
   37.8666   -0.0396    7.4403 N   0  0  0  0  0  0  0  0  0  0  0  0
   40.6201    6.8379   10.6175 N   0  0  0  0  0  0  0  0  0  0  0  0
   40.4399    0.2772    8.7431 O   0  0  0  0  0  0  0  0  0  0  0  0
   39.4740    1.9455   10.2168 O   0  0  0  0  0  0  0  0  0  0  0  0
   38.9242    4.8108    7.8698 O   0  0  0  0  0  0  0  0  0  0  0  0
   38.8434    4.6798   11.2311 O   0  0  0  0  0  0  0  0  0  0  0  0
   39.4045    7.0904    7.8903 O   0  0  0  0  0  0  0  0  0  0  0  0
   38.4776    8.1782    8.1162 C   0  0  2  0  0  0  0  0  0  0  0  0
   37.0428    7.8595    7.6651 C   0  0  1  0  0  0  0  0  0  0  0  0
   36.9498    7.7665    6.1188 C   0  0  2  0  0  0  0  0  0  0  0  0
   37.4265    9.0588    5.4961 C   0  0  1  0  0  0  0  0  0  0  0  0
   38.8809    9.3361    5.9448 C   0  0  1  0  0  0  0  0  0  0  0  0
   39.4284   10.6528    5.3987 C   0  0  0  0  0  0  0  0  0  0  0  0
   37.3307    8.9381    4.0266 N   0  0  0  0  0  0  0  0  0  0  0  0
   38.9397    9.3993    7.4162 O   0  0  0  0  0  0  0  0  0  0  0  0
   36.6260    6.6460    8.3076 O   0  0  0  0  0  0  0  0  0  0  0  0
   35.5875    7.5435    5.7298 O   0  0  0  0  0  0  0  0  0  0  0  0
   38.7658   11.7250    6.0146 O   0  0  0  0  0  0  0  0  0  0  0  0
   41.6774   -0.1636    9.5103 C   0  0  1  0  0  0  0  0  0  0  0  0
   41.5231   -1.6742    9.7937 C   0  0  1  0  0  0  0  0  0  0  0  0
   42.7702   -2.2380   10.5170 C   0  0  2  0  0  0  0  0  0  0  0  0
   44.0223   -1.9999    9.6646 C   0  0  1  0  0  0  0  0  0  0  0  0
   44.2102   -0.4837    9.4032 C   0  0  0  0  0  0  0  0  0  0  0  0
   42.9732    0.0496    8.6730 C   0  0  2  0  0  0  0  0  0  0  0  0
   45.2118   -2.5312   10.3669 N   0  0  0  0  0  0  0  0  0  0  0  0
   43.1960    1.4723    8.4298 N   0  0  0  0  0  0  0  0  0  0  0  0
   40.3683   -1.8803   10.6362 O   0  0  0  0  0  0  0  0  0  0  0  0
   42.5829   -3.6531   10.7338 O   0  0  0  0  0  0  0  0  0  0  0  0
  1  2  1  0  0  0  0
  1 12  1  6  0  0  0
  1 13  1  0  0  0  0
  2  3  1  0  0  0  0
  2 10  1  6  0  0  0
  4  3  1  6  0  0  0
  4  5  1  0  0  0  0
  4 14  1  0  0  0  0
  5  6  1  0  0  0  0
  5 13  1  1  0  0  0
  6  7  1  0  0  0  0
  6 15  1  6  0  0  0
  7  8  1  0  0  0  0
  7 11  1  1  0  0  0
  8 14  1  0  0  0  0
  8 16  1  6  0  0  0
  9 11  1  0  0  0  0
 17 16  1  6  0  0  0
 17 18  1  0  0  0  0
 17 24  1  0  0  0  0
 18 19  1  0  0  0  0
 18 25  1  1  0  0  0
 19 20  1  0  0  0  0
 19 26  1  1  0  0  0
 20 21  1  0  0  0  0
 20 23  1  6  0  0  0
 21 22  1  6  0  0  0
 21 24  1  0  0  0  0
 22 27  1  0  0  0  0
 28 12  1  6  0  0  0
 28 29  1  0  0  0  0
 28 33  1  0  0  0  0
 29 30  1  0  0  0  0
 29 36  1  1  0  0  0
 30 31  1  0  0  0  0
 30 37  1  6  0  0  0
 31 32  1  0  0  0  0
 31 34  1  1  0  0  0
 32 33  1  0  0  0  0
 33 35  1  1  0  0  0
M  END
>  <CHROM.1>
-177.09631098,87.84555571,-116.02834488,-68.77241612,69.19478312,90.06920807
39.84484192,3.92073819,8.53076688,1.15380009,0.46087740,3.03104028

>  <Name>
1yrj_lig

>  <RI>
224

>  <Rbt.Current_Directory>
/home/itssahil/PROJECTS/Mol_Feturizer/New_Systems/rnas/1yrj

>  <Rbt.Executable>
rbdock ($Id: //depot/dev/client3/rdock/2013.1/src/exe/rbdock.cxx#4 $)

>  <Rbt.Library>
libRbt.so (2013.1, Build901 2013/11/27)

>  <Rbt.Parameter_File>
/export/apps/rDock/src/rDock_2013.1_src/data/scripts/dock_solv.prm

>  <Rbt.Receptor>
prm/pocket_docking_2.prm

>  <SCORE>
-25.0814

>  <SCORE.INTER>
-24.9955

>  <SCORE.INTER.CONST>
1

>  <SCORE.INTER.POLAR>
-2.24648

>  <SCORE.INTER.ROT>
6

>  <SCORE.INTER.SOLV>
20.8643

>  <SCORE.INTER.VDW>
-23.7301

>  <SCORE.INTER.norm>
-0.675553

>  <SCORE.INTRA>
-1.69877

>  <SCORE.INTRA.DIHEDRAL>
-3.58132

>  <SCORE.INTRA.DIHEDRAL.0>
15.6389

>  <SCORE.INTRA.POLAR>
0

>  <SCORE.INTRA.POLAR.0>
0

>  <SCORE.INTRA.REPUL>
0

>  <SCORE.INTRA.REPUL.0>
0

>  <SCORE.INTRA.SOLV>
-1.21098

>  <SCORE.INTRA.SOLV.lig_0>
-90.9181

>  <SCORE.INTRA.VDW>
0.697376

>  <SCORE.INTRA.VDW.0>
-3.14158

>  <SCORE.INTRA.norm>
-0.0459127

>  <SCORE.RESTR>
1.61289

>  <SCORE.RESTR.CAVITY>
1.61289

>  <SCORE.RESTR.norm>
0.0435916

>  <SCORE.SYSTEM>
0

>  <SCORE.SYSTEM.CONST>
0

>  <SCORE.SYSTEM.DIHEDRAL>
0

>  <SCORE.SYSTEM.SOLV>
0

>  <SCORE.SYSTEM.norm>
0

>  <SCORE.heavy>
37

>  <SCORE.norm>
-0.677874

>  <RMSD>
10.284

$$$$
1yrj_lig
 OpenBabel11021811423D
libRbt.so/2013.1/901 2013/11/27
 37 40  0  0  0  0  0  0  0  0999 V2000
   38.4370   -1.0217    9.7047 C   0  0  1  0  0  0  0  0  0  0  0  0
   37.3825   -0.8021    8.6023 C   0  0  1  0  0  0  0  0  0  0  0  0
   37.8425    0.2409    7.5713 C   0  0  0  0  0  0  0  0  0  0  0  0
   38.2154    1.5662    8.2856 C   0  0  1  0  0  0  0  0  0  0  0  0
   39.3066    1.3075    9.3417 C   0  0  1  0  0  0  0  0  0  0  0  0
   39.6783    2.6794   10.0472 C   0  0  1  0  0  0  0  0  0  0  0  0
   40.1822    3.6821    8.9964 C   0  0  1  0  0  0  0  0  0  0  0  0
   39.0707    3.8688    7.9352 C   0  0  2  0  0  0  0  0  0  0  0  0
   41.6500    4.8786   10.7054 C   0  0  0  0  0  0  0  0  0  0  0  0
   37.0223   -2.0600    7.9277 N   0  0  0  0  0  0  0  0  0  0  0  0
   40.5825    4.9614    9.6601 N   0  0  0  0  0  0  0  0  0  0  0  0
   39.5809   -1.7788    9.2671 O   0  0  0  0  0  0  0  0  0  0  0  0
   38.8078    0.2846   10.2831 O   0  0  0  0  0  0  0  0  0  0  0  0
   38.7030    2.5936    7.3372 O   0  0  0  0  0  0  0  0  0  0  0  0
   38.5201    3.2335   10.6356 O   0  0  0  0  0  0  0  0  0  0  0  0
   39.4808    4.7419    6.8821 O   0  0  0  0  0  0  0  0  0  0  0  0
   38.3720    5.3635    6.1910 C   0  0  2  0  0  0  0  0  0  0  0  0
   38.8043    6.2043    4.9785 C   0  0  1  0  0  0  0  0  0  0  0  0
   39.5689    7.4787    5.4250 C   0  0  2  0  0  0  0  0  0  0  0  0
   38.7047    8.2973    6.3566 C   0  0  1  0  0  0  0  0  0  0  0  0
   38.3114    7.4344    7.5789 C   0  0  1  0  0  0  0  0  0  0  0  0
   37.3940    8.1702    8.5529 C   0  0  0  0  0  0  0  0  0  0  0  0
   39.4602    9.4990    6.7672 N   0  0  0  0  0  0  0  0  0  0  0  0
   37.6052    6.2241    7.1217 O   0  0  0  0  0  0  0  0  0  0  0  0
   39.5912    5.3752    4.1111 O   0  0  0  0  0  0  0  0  0  0  0  0
   39.8906    8.2756    4.2768 O   0  0  0  0  0  0  0  0  0  0  0  0
   36.3086    8.7148    7.8507 O   0  0  0  0  0  0  0  0  0  0  0  0
   40.7073   -2.2235   10.1879 C   0  0  1  0  0  0  0  0  0  0  0  0
   40.1634   -3.3899   11.0420 C   0  0  1  0  0  0  0  0  0  0  0  0
   41.2609   -3.9620   11.9716 C   0  0  2  0  0  0  0  0  0  0  0  0
   42.4528   -4.4472   11.1380 C   0  0  1  0  0  0  0  0  0  0  0  0
   43.0324   -3.2770   10.3029 C   0  0  0  0  0  0  0  0  0  0  0  0
   41.9353   -2.7373    9.3793 C   0  0  2  0  0  0  0  0  0  0  0  0
   43.5026   -4.9824   12.0334 N   0  0  0  0  0  0  0  0  0  0  0  0
   42.5237   -1.6519    8.5993 N   0  0  0  0  0  0  0  0  0  0  0  0
   39.0727   -2.9086   11.8572 O   0  0  0  0  0  0  0  0  0  0  0  0
   40.7064   -5.0613   12.7257 O   0  0  0  0  0  0  0  0  0  0  0  0
  1  2  1  0  0  0  0
  1 12  1  6  0  0  0
  1 13  1  0  0  0  0
  2  3  1  0  0  0  0
  2 10  1  6  0  0  0
  4  3  1  6  0  0  0
  4  5  1  0  0  0  0
  4 14  1  0  0  0  0
  5  6  1  0  0  0  0
  5 13  1  1  0  0  0
  6  7  1  0  0  0  0
  6 15  1  6  0  0  0
  7  8  1  0  0  0  0
  7 11  1  1  0  0  0
  8 14  1  0  0  0  0
  8 16  1  6  0  0  0
  9 11  1  0  0  0  0
 17 16  1  1  0  0  0
 17 18  1  0  0  0  0
 17 24  1  0  0  0  0
 18 19  1  0  0  0  0
 18 25  1  6  0  0  0
 19 20  1  0  0  0  0
 19 26  1  6  0  0  0
 20 21  1  0  0  0  0
 20 23  1  1  0  0  0
 21 22  1  1  0  0  0
 21 24  1  0  0  0  0
 22 27  1  0  0  0  0
 28 12  1  6  0  0  0
 28 29  1  0  0  0  0
 28 33  1  0  0  0  0
 29 30  1  0  0  0  0
 29 36  1  1  0  0  0
 30 31  1  0  0  0  0
 30 37  1  6  0  0  0
 31 32  1  0  0  0  0
 31 34  1  1  0  0  0
 32 33  1  0  0  0  0
 33 35  1  1  0  0  0
M  END
>  <CHROM.1>
-175.05558899,58.70222869,-156.57781741,-174.84560995,51.22302399,74.25964477
39.54079006,2.06431900,8.68539857,1.36117353,0.38970951,2.83964142

>  <Name>
1yrj_lig

>  <RI>
0

>  <Rbt.Current_Directory>
/home/itssahil/PROJECTS/Mol_Feturizer/New_Systems/rnas/1yrj

>  <Rbt.Executable>
rbdock ($Id: //depot/dev/client3/rdock/2013.1/src/exe/rbdock.cxx#4 $)

>  <Rbt.Library>
libRbt.so (2013.1, Build901 2013/11/27)

>  <Rbt.Parameter_File>
/export/apps/rDock/src/rDock_2013.1_src/data/scripts/dock_solv.prm

>  <Rbt.Receptor>
prm/pocket_docking_5.prm

>  <SCORE>
-27.9653

>  <SCORE.INTER>
-22.2732

>  <SCORE.INTER.CONST>
1

>  <SCORE.INTER.POLAR>
-1.15345

>  <SCORE.INTER.ROT>
6

>  <SCORE.INTER.SOLV>
15.173

>  <SCORE.INTER.VDW>
-23.6616

>  <SCORE.INTER.norm>
-0.601978

>  <SCORE.INTRA>
-5.69212

>  <SCORE.INTRA.DIHEDRAL>
-11.6748

>  <SCORE.INTRA.DIHEDRAL.0>
15.6389

>  <SCORE.INTRA.POLAR>
0

>  <SCORE.INTRA.POLAR.0>
0

>  <SCORE.INTRA.REPUL>
0

>  <SCORE.INTRA.REPUL.0>
0

>  <SCORE.INTRA.SOLV>
-1.80889

>  <SCORE.INTRA.SOLV.lig_0>
-90.9181

>  <SCORE.INTRA.VDW>
1.04972

>  <SCORE.INTRA.VDW.0>
-3.14158

>  <SCORE.INTRA.norm>
-0.153841

>  <SCORE.RESTR>
0

>  <SCORE.RESTR.CAVITY>
0

>  <SCORE.RESTR.norm>
0

>  <SCORE.SYSTEM>
0

>  <SCORE.SYSTEM.CONST>
0

>  <SCORE.SYSTEM.DIHEDRAL>
0

>  <SCORE.SYSTEM.SOLV>
0

>  <SCORE.SYSTEM.norm>
0

>  <SCORE.heavy>
37

>  <SCORE.norm>
-0.755819

>  <RMSD>
10.285

$$$$
1yrj_lig
 OpenBabel11021811423D
libRbt.so/2013.1/901 2013/11/27
 37 40  0  0  0  0  0  0  0  0999 V2000
   38.7122   -0.4301    9.7249 C   0  0  1  0  0  0  0  0  0  0  0  0
   37.6447   -0.2549    8.6270 C   0  0  1  0  0  0  0  0  0  0  0  0
   38.0542    0.8093    7.5964 C   0  0  0  0  0  0  0  0  0  0  0  0
   38.3713    2.1483    8.3120 C   0  0  1  0  0  0  0  0  0  0  0  0
   39.4770    1.9358    9.3634 C   0  0  1  0  0  0  0  0  0  0  0  0
   39.7908    3.3214   10.0703 C   0  0  1  0  0  0  0  0  0  0  0  0
   40.2459    4.3473    9.0196 C   0  0  1  0  0  0  0  0  0  0  0  0
   39.1232    4.4869    7.9631 C   0  0  2  0  0  0  0  0  0  0  0  0
   41.6694    5.6047   10.7223 C   0  0  0  0  0  0  0  0  0  0  0  0
   37.3374   -1.5262    7.9513 N   0  0  0  0  0  0  0  0  0  0  0  0
   40.5922    5.6417    9.6843 N   0  0  0  0  0  0  0  0  0  0  0  0
   39.8865   -1.1353    9.2812 O   0  0  0  0  0  0  0  0  0  0  0  0
   39.0274    0.8902   10.3046 O   0  0  0  0  0  0  0  0  0  0  0  0
   38.8095    3.1979    7.3639 O   0  0  0  0  0  0  0  0  0  0  0  0
   38.6117    3.8229   10.6643 O   0  0  0  0  0  0  0  0  0  0  0  0
   39.4903    5.3793    6.9102 O   0  0  0  0  0  0  0  0  0  0  0  0
   38.4091    5.6498    5.9876 C   0  0  2  0  0  0  0  0  0  0  0  0
   38.8719    6.3324    4.6901 C   0  0  1  0  0  0  0  0  0  0  0  0
   39.3425    7.7865    4.9597 C   0  0  2  0  0  0  0  0  0  0  0  0
   38.2276    8.5766    5.6057 C   0  0  1  0  0  0  0  0  0  0  0  0
   37.8049    7.8816    6.9216 C   0  0  1  0  0  0  0  0  0  0  0  0
   36.6453    8.5891    7.6192 C   0  0  0  0  0  0  0  0  0  0  0  0
   38.7064    9.9523    5.8537 N   0  0  0  0  0  0  0  0  0  0  0  0
   37.3824    6.4988    6.6355 O   0  0  0  0  0  0  0  0  0  0  0  0
   39.9038    5.5288    4.0998 O   0  0  0  0  0  0  0  0  0  0  0  0
   39.6953    8.4170    3.7208 O   0  0  0  0  0  0  0  0  0  0  0  0
   36.3982    7.9729    8.8550 O   0  0  0  0  0  0  0  0  0  0  0  0
   39.8998   -2.6092    8.9045 C   0  0  1  0  0  0  0  0  0  0  0  0
   41.3210   -2.9359    8.3951 C   0  0  1  0  0  0  0  0  0  0  0  0
   41.4589   -4.4378    8.0467 C   0  0  2  0  0  0  0  0  0  0  0  0
   41.1459   -5.2925    9.2806 C   0  0  1  0  0  0  0  0  0  0  0  0
   39.7079   -5.0016    9.7811 C   0  0  0  0  0  0  0  0  0  0  0  0
   39.5985   -3.5149   10.1352 C   0  0  2  0  0  0  0  0  0  0  0  0
   41.2688   -6.7270    8.9377 N   0  0  0  0  0  0  0  0  0  0  0  0
   38.2394   -3.2854   10.6178 N   0  0  0  0  0  0  0  0  0  0  0  0
   41.5854   -2.1601    7.2059 O   0  0  0  0  0  0  0  0  0  0  0  0
   42.8089   -4.6907    7.6013 O   0  0  0  0  0  0  0  0  0  0  0  0
  1  2  1  0  0  0  0
  1 12  1  6  0  0  0
  1 13  1  0  0  0  0
  2  3  1  0  0  0  0
  2 10  1  6  0  0  0
  4  3  1  6  0  0  0
  4  5  1  0  0  0  0
  4 14  1  0  0  0  0
  5  6  1  0  0  0  0
  5 13  1  1  0  0  0
  6  7  1  0  0  0  0
  6 15  1  6  0  0  0
  7  8  1  0  0  0  0
  7 11  1  1  0  0  0
  8 14  1  0  0  0  0
  8 16  1  6  0  0  0
  9 11  1  0  0  0  0
 17 16  1  1  0  0  0
 17 18  1  0  0  0  0
 17 24  1  0  0  0  0
 18 19  1  0  0  0  0
 18 25  1  1  0  0  0
 19 20  1  0  0  0  0
 19 26  1  6  0  0  0
 20 21  1  0  0  0  0
 20 23  1  1  0  0  0
 21 22  1  6  0  0  0
 21 24  1  0  0  0  0
 22 27  1  0  0  0  0
 28 12  1  1  0  0  0
 28 29  1  0  0  0  0
 28 33  1  0  0  0  0
 29 30  1  0  0  0  0
 29 36  1  6  0  0  0
 30 31  1  0  0  0  0
 30 37  1  1  0  0  0
 31 32  1  0  0  0  0
 31 34  1  6  0  0  0
 32 33  1  0  0  0  0
 33 35  1  6  0  0  0
M  END
>  <CHROM.1>
-68.06156890,58.88456318,-173.40032747,-166.59117695,-174.88111841,176.09727728
39.33804206,2.23425380,8.02275722,1.17433079,-1.15012217,2.55773118

>  <Name>
1yrj_lig

>  <RI>
0

>  <Rbt.Current_Directory>
/home/itssahil/PROJECTS/Mol_Feturizer/New_Systems/rnas/1yrj

>  <Rbt.Executable>
rbdock ($Id: //depot/dev/client3/rdock/2013.1/src/exe/rbdock.cxx#4 $)

>  <Rbt.Library>
libRbt.so (2013.1, Build901 2013/11/27)

>  <Rbt.Parameter_File>
/export/apps/rDock/src/rDock_2013.1_src/data/scripts/dock_solv.prm

>  <Rbt.Receptor>
prm/pocket_docking_8.prm

>  <SCORE>
-27.3599

>  <SCORE.INTER>
-22.0279

>  <SCORE.INTER.CONST>
1

>  <SCORE.INTER.POLAR>
-1.36226

>  <SCORE.INTER.ROT>
6

>  <SCORE.INTER.SOLV>
15.1223

>  <SCORE.INTER.VDW>
-22.7851

>  <SCORE.INTER.norm>
-0.595348

>  <SCORE.INTRA>
-5.33202

>  <SCORE.INTRA.DIHEDRAL>
-13.9825

>  <SCORE.INTRA.DIHEDRAL.0>
15.6389

>  <SCORE.INTRA.POLAR>
0

>  <SCORE.INTRA.POLAR.0>
0

>  <SCORE.INTRA.REPUL>
0

>  <SCORE.INTRA.REPUL.0>
0

>  <SCORE.INTRA.SOLV>
1.08322

>  <SCORE.INTRA.SOLV.lig_0>
-90.9181

>  <SCORE.INTRA.VDW>
1.11763

>  <SCORE.INTRA.VDW.0>
-3.14158

>  <SCORE.INTRA.norm>
-0.144109

>  <SCORE.RESTR>
0

>  <SCORE.RESTR.CAVITY>
0

>  <SCORE.RESTR.norm>
0

>  <SCORE.SYSTEM>
0

>  <SCORE.SYSTEM.CONST>
0

>  <SCORE.SYSTEM.DIHEDRAL>
0

>  <SCORE.SYSTEM.SOLV>
0

>  <SCORE.SYSTEM.norm>
0

>  <SCORE.heavy>
37

>  <SCORE.norm>
-0.739456

>  <RMSD>
10.289

$$$$
1yrj_lig
 OpenBabel11021811423D
libRbt.so/2013.1/901 2013/11/27
 37 40  0  0  0  0  0  0  0  0999 V2000
   38.7139   -0.4199    9.7573 C   0  0  1  0  0  0  0  0  0  0  0  0
   37.6487   -0.2545    8.6558 C   0  0  1  0  0  0  0  0  0  0  0  0
   38.0605    0.8002    7.6163 C   0  0  0  0  0  0  0  0  0  0  0  0
   38.3766    2.1456    8.3203 C   0  0  1  0  0  0  0  0  0  0  0  0
   39.4802    1.9424    9.3757 C   0  0  1  0  0  0  0  0  0  0  0  0
   39.7930    3.3343   10.0705 C   0  0  1  0  0  0  0  0  0  0  0  0
   40.2505    4.3504    9.0114 C   0  0  1  0  0  0  0  0  0  0  0  0
   39.1298    4.4807    7.9515 C   0  0  2  0  0  0  0  0  0  0  0  0
   41.6777    5.6247   10.6984 C   0  0  0  0  0  0  0  0  0  0  0  0
   37.3424   -1.5318    7.9911 N   0  0  0  0  0  0  0  0  0  0  0  0
   40.5958    5.6508    9.6650 N   0  0  0  0  0  0  0  0  0  0  0  0
   39.8889   -1.1294    9.3225 O   0  0  0  0  0  0  0  0  0  0  0  0
   39.0285    0.9056   10.3256 O   0  0  0  0  0  0  0  0  0  0  0  0
   38.8170    3.1864    7.3634 O   0  0  0  0  0  0  0  0  0  0  0  0
   38.6129    3.8416   10.6576 O   0  0  0  0  0  0  0  0  0  0  0  0
   39.4993    5.3633    6.8912 O   0  0  0  0  0  0  0  0  0  0  0  0
   38.4190    5.6282    5.9658 C   0  0  2  0  0  0  0  0  0  0  0  0
   38.8864    6.2816    4.6550 C   0  0  1  0  0  0  0  0  0  0  0  0
   39.3731    7.7353    4.8965 C   0  0  2  0  0  0  0  0  0  0  0  0
   38.2681    8.5492    5.5299 C   0  0  1  0  0  0  0  0  0  0  0  0
   37.8408    7.8834    6.8593 C   0  0  1  0  0  0  0  0  0  0  0  0
   36.6904    8.6162    7.5459 C   0  0  0  0  0  0  0  0  0  0  0  0
   38.7622    9.9241    5.7513 N   0  0  0  0  0  0  0  0  0  0  0  0
   37.4029    6.5001    6.5999 O   0  0  0  0  0  0  0  0  0  0  0  0
   39.9083    5.4561    4.0777 O   0  0  0  0  0  0  0  0  0  0  0  0
   39.7299    8.3389    3.6454 O   0  0  0  0  0  0  0  0  0  0  0  0
   36.4338    8.0204    8.7897 O   0  0  0  0  0  0  0  0  0  0  0  0
   39.9019   -2.6060    8.9563 C   0  0  1  0  0  0  0  0  0  0  0  0
   41.3240   -2.9375    8.4528 C   0  0  1  0  0  0  0  0  0  0  0  0
   41.4616   -4.4420    8.1155 C   0  0  2  0  0  0  0  0  0  0  0  0
   41.1447   -5.2876    9.3548 C   0  0  1  0  0  0  0  0  0  0  0  0
   39.7058   -4.9919    9.8496 C   0  0  0  0  0  0  0  0  0  0  0  0
   39.5968   -3.5026   10.1927 C   0  0  2  0  0  0  0  0  0  0  0  0
   41.2673   -6.7246    9.0224 N   0  0  0  0  0  0  0  0  0  0  0  0
   38.2367   -3.2685   10.6703 N   0  0  0  0  0  0  0  0  0  0  0  0
   41.5921   -2.1705    7.2587 O   0  0  0  0  0  0  0  0  0  0  0  0
   42.8124   -4.6992    7.6753 O   0  0  0  0  0  0  0  0  0  0  0  0
  1  2  1  0  0  0  0
  1 12  1  6  0  0  0
  1 13  1  0  0  0  0
  2  3  1  0  0  0  0
  2 10  1  6  0  0  0
  4  3  1  6  0  0  0
  4  5  1  0  0  0  0
  4 14  1  0  0  0  0
  5  6  1  0  0  0  0
  5 13  1  1  0  0  0
  6  7  1  0  0  0  0
  6 15  1  6  0  0  0
  7  8  1  0  0  0  0
  7 11  1  1  0  0  0
  8 14  1  0  0  0  0
  8 16  1  6  0  0  0
  9 11  1  0  0  0  0
 17 16  1  1  0  0  0
 17 18  1  0  0  0  0
 17 24  1  0  0  0  0
 18 19  1  0  0  0  0
 18 25  1  1  0  0  0
 19 20  1  0  0  0  0
 19 26  1  6  0  0  0
 20 21  1  0  0  0  0
 20 23  1  1  0  0  0
 21 22  1  6  0  0  0
 21 24  1  0  0  0  0
 22 27  1  0  0  0  0
 28 12  1  1  0  0  0
 28 29  1  0  0  0  0
 28 33  1  0  0  0  0
 29 30  1  0  0  0  0
 29 36  1  6  0  0  0
 30 31  1  0  0  0  0
 30 37  1  1  0  0  0
 31 32  1  0  0  0  0
 31 34  1  6  0  0  0
 32 33  1  0  0  0  0
 33 35  1  6  0  0  0
M  END
>  <CHROM.1>
-67.92227827,59.31068734,-173.25993525,-165.81645743,-175.25214504,176.05613935
39.34913871,2.22937308,8.02569853,1.17700598,-1.15349764,2.54971915

>  <Name>
1yrj_lig

>  <RI>
0

>  <Rbt.Current_Directory>
/home/itssahil/PROJECTS/Mol_Feturizer/New_Systems/rnas/1yrj

>  <Rbt.Executable>
rbdock ($Id: //depot/dev/client3/rdock/2013.1/src/exe/rbdock.cxx#4 $)

>  <Rbt.Library>
libRbt.so (2013.1, Build901 2013/11/27)

>  <Rbt.Parameter_File>
/export/apps/rDock/src/rDock_2013.1_src/data/scripts/dock_solv.prm

>  <Rbt.Receptor>
prm/pocket_docking_7.prm

>  <SCORE>
-27.3261

>  <SCORE.INTER>
-22.0162

>  <SCORE.INTER.CONST>
1

>  <SCORE.INTER.POLAR>
-1.33202

>  <SCORE.INTER.ROT>
6

>  <SCORE.INTER.SOLV>
15.2655

>  <SCORE.INTER.VDW>
-22.9259

>  <SCORE.INTER.norm>
-0.595032

>  <SCORE.INTRA>
-5.30988

>  <SCORE.INTRA.DIHEDRAL>
-13.9002

>  <SCORE.INTRA.DIHEDRAL.0>
15.6389

>  <SCORE.INTRA.POLAR>
0

>  <SCORE.INTRA.POLAR.0>
0

>  <SCORE.INTRA.REPUL>
0

>  <SCORE.INTRA.REPUL.0>
0

>  <SCORE.INTRA.SOLV>
1.09074

>  <SCORE.INTRA.SOLV.lig_0>
-90.9181

>  <SCORE.INTRA.VDW>
1.09483

>  <SCORE.INTRA.VDW.0>
-3.14158

>  <SCORE.INTRA.norm>
-0.14351

>  <SCORE.RESTR>
0

>  <SCORE.RESTR.CAVITY>
0

>  <SCORE.RESTR.norm>
0

>  <SCORE.SYSTEM>
0

>  <SCORE.SYSTEM.CONST>
0

>  <SCORE.SYSTEM.DIHEDRAL>
0

>  <SCORE.SYSTEM.SOLV>
0

>  <SCORE.SYSTEM.norm>
0

>  <SCORE.heavy>
37

>  <SCORE.norm>
-0.738542

>  <RMSD>
10.290

$$$$
1yrj_lig
 OpenBabel11021811423D
libRbt.so/2013.1/901 2013/11/27
 37 40  0  0  0  0  0  0  0  0999 V2000
   38.6623   -0.5661    9.7172 C   0  0  1  0  0  0  0  0  0  0  0  0
   37.5687   -0.3406    8.6548 C   0  0  1  0  0  0  0  0  0  0  0  0
   37.9794    0.7291    7.6303 C   0  0  0  0  0  0  0  0  0  0  0  0
   38.3571    2.0455    8.3583 C   0  0  1  0  0  0  0  0  0  0  0  0
   39.4863    1.7824    9.3725 C   0  0  1  0  0  0  0  0  0  0  0  0
   39.8618    3.1456   10.0927 C   0  0  1  0  0  0  0  0  0  0  0  0
   40.3162    4.1759    9.0462 C   0  0  1  0  0  0  0  0  0  0  0  0
   39.1676    4.3669    8.0261 C   0  0  2  0  0  0  0  0  0  0  0  0
   39.6199    6.3268   10.2275 C   0  0  0  0  0  0  0  0  0  0  0  0
   37.2041   -1.5903    7.9674 N   0  0  0  0  0  0  0  0  0  0  0  0
   40.7203    5.4479    9.7217 N   0  0  0  0  0  0  0  0  0  0  0  0
   39.8016   -1.2975    9.2271 O   0  0  0  0  0  0  0  0  0  0  0  0
   39.0336    0.7340   10.3092 O   0  0  0  0  0  0  0  0  0  0  0  0
   38.7983    3.0983    7.4151 O   0  0  0  0  0  0  0  0  0  0  0  0
   38.7161    3.6709   10.7299 O   0  0  0  0  0  0  0  0  0  0  0  0
   39.5301    5.2664    6.9778 O   0  0  0  0  0  0  0  0  0  0  0  0
   38.4389    5.5602    6.0742 C   0  0  2  0  0  0  0  0  0  0  0  0
   38.8881    6.2717    4.7876 C   0  0  1  0  0  0  0  0  0  0  0  0
   39.3649    7.7182    5.0851 C   0  0  2  0  0  0  0  0  0  0  0  0
   38.2592    8.4954    5.7621 C   0  0  1  0  0  0  0  0  0  0  0  0
   37.8503    7.7709    7.0665 C   0  0  1  0  0  0  0  0  0  0  0  0
   36.7004    8.4643    7.7937 C   0  0  0  0  0  0  0  0  0  0  0  0
   38.7438    9.8641    6.0362 N   0  0  0  0  0  0  0  0  0  0  0  0
   37.4215    6.3959    6.7535 O   0  0  0  0  0  0  0  0  0  0  0  0
   39.9113    5.4800    4.1669 O   0  0  0  0  0  0  0  0  0  0  0  0
   39.7046    8.3766    3.8570 O   0  0  0  0  0  0  0  0  0  0  0  0
   36.5158    7.8682    9.0500 O   0  0  0  0  0  0  0  0  0  0  0  0
   39.9406   -2.8100    9.3137 C   0  0  1  0  0  0  0  0  0  0  0  0
   39.3862   -3.2399   10.6899 C   0  0  1  0  0  0  0  0  0  0  0  0
   39.4210   -4.7790   10.8512 C   0  0  2  0  0  0  0  0  0  0  0  0
   38.6015   -5.4410    9.7371 C   0  0  1  0  0  0  0  0  0  0  0  0
   39.1701   -5.0475    8.3498 C   0  0  0  0  0  0  0  0  0  0  0  0
   39.1111   -3.5232    8.2051 C   0  0  2  0  0  0  0  0  0  0  0  0
   38.6482   -6.9123    9.8907 N   0  0  0  0  0  0  0  0  0  0  0  0
   39.6370   -3.1949    6.8828 N   0  0  0  0  0  0  0  0  0  0  0  0
   40.1954   -2.6484   11.7298 O   0  0  0  0  0  0  0  0  0  0  0  0
   38.8705   -5.1250   12.1403 O   0  0  0  0  0  0  0  0  0  0  0  0
  1  2  1  0  0  0  0
  1 12  1  6  0  0  0
  1 13  1  0  0  0  0
  2  3  1  0  0  0  0
  2 10  1  6  0  0  0
  4  3  1  6  0  0  0
  4  5  1  0  0  0  0
  4 14  1  0  0  0  0
  5  6  1  0  0  0  0
  5 13  1  1  0  0  0
  6  7  1  0  0  0  0
  6 15  1  6  0  0  0
  7  8  1  0  0  0  0
  7 11  1  1  0  0  0
  8 14  1  0  0  0  0
  8 16  1  6  0  0  0
  9 11  1  0  0  0  0
 17 16  1  1  0  0  0
 17 18  1  0  0  0  0
 17 24  1  0  0  0  0
 18 19  1  0  0  0  0
 18 25  1  1  0  0  0
 19 20  1  0  0  0  0
 19 26  1  6  0  0  0
 20 21  1  0  0  0  0
 20 23  1  1  0  0  0
 21 22  1  6  0  0  0
 21 24  1  0  0  0  0
 22 27  1  0  0  0  0
 28 12  1  6  0  0  0
 28 29  1  0  0  0  0
 28 33  1  0  0  0  0
 29 30  1  0  0  0  0
 29 36  1  1  0  0  0
 30 31  1  0  0  0  0
 30 37  1  1  0  0  0
 31 32  1  0  0  0  0
 31 34  1  1  0  0  0
 32 33  1  0  0  0  0
 33 35  1  6  0  0  0
M  END
>  <CHROM.1>
-91.94763640,-75.54453399,-174.75698975,-167.50835929,-171.58342683,-39.68497385
38.90908652,2.11988601,8.32417554,0.25043841,-1.52994666,1.53619475

>  <Name>
1yrj_lig

>  <RI>
0

>  <Rbt.Current_Directory>
/home/itssahil/PROJECTS/Mol_Feturizer/New_Systems/rnas/1yrj

>  <Rbt.Executable>
rbdock ($Id: //depot/dev/client3/rdock/2013.1/src/exe/rbdock.cxx#4 $)

>  <Rbt.Library>
libRbt.so (2013.1, Build901 2013/11/27)

>  <Rbt.Parameter_File>
/export/apps/rDock/src/rDock_2013.1_src/data/scripts/dock_solv.prm

>  <Rbt.Receptor>
prm/pocket_docking_7.prm

>  <SCORE>
-24.196

>  <SCORE.INTER>
-23.569

>  <SCORE.INTER.CONST>
1

>  <SCORE.INTER.POLAR>
-1.59877

>  <SCORE.INTER.ROT>
6

>  <SCORE.INTER.SOLV>
14.9387

>  <SCORE.INTER.VDW>
-22.963

>  <SCORE.INTER.norm>
-0.637

>  <SCORE.INTRA>
-0.627009

>  <SCORE.INTRA.DIHEDRAL>
-8.4702

>  <SCORE.INTRA.DIHEDRAL.0>
15.6389

>  <SCORE.INTRA.POLAR>
0

>  <SCORE.INTRA.POLAR.0>
0

>  <SCORE.INTRA.REPUL>
0

>  <SCORE.INTRA.REPUL.0>
0

>  <SCORE.INTRA.SOLV>
2.43474

>  <SCORE.INTRA.SOLV.lig_0>
-90.9181

>  <SCORE.INTRA.VDW>
2.39072

>  <SCORE.INTRA.VDW.0>
-3.14158

>  <SCORE.INTRA.norm>
-0.0169462

>  <SCORE.RESTR>
0

>  <SCORE.RESTR.CAVITY>
0

>  <SCORE.RESTR.norm>
0

>  <SCORE.SYSTEM>
0

>  <SCORE.SYSTEM.CONST>
0

>  <SCORE.SYSTEM.DIHEDRAL>
0

>  <SCORE.SYSTEM.SOLV>
0

>  <SCORE.SYSTEM.norm>
0

>  <SCORE.heavy>
37

>  <SCORE.norm>
-0.653946

>  <RMSD>
10.292

$$$$
1yrj_lig
 OpenBabel11021811423D
libRbt.so/2013.1/901 2013/11/27
 37 40  0  0  0  0  0  0  0  0999 V2000
   38.9508   -0.3440    9.6462 C   0  0  1  0  0  0  0  0  0  0  0  0
   37.8761   -0.1472    8.5592 C   0  0  1  0  0  0  0  0  0  0  0  0
   38.2293    1.0080    7.6089 C   0  0  0  0  0  0  0  0  0  0  0  0
   38.4750    2.3073    8.4196 C   0  0  1  0  0  0  0  0  0  0  0  0
   39.5899    2.0787    9.4577 C   0  0  1  0  0  0  0  0  0  0  0  0
   39.8298    3.4248   10.2630 C   0  0  1  0  0  0  0  0  0  0  0  0
   40.2306    4.5457    9.2902 C   0  0  1  0  0  0  0  0  0  0  0  0
   39.1025    4.7012    8.2416 C   0  0  2  0  0  0  0  0  0  0  0  0
   41.0402    6.9644    9.2641 C   0  0  0  0  0  0  0  0  0  0  0  0
   37.6366   -1.3813    7.7932 N   0  0  0  0  0  0  0  0  0  0  0  0
   40.5078    5.8057   10.0471 N   0  0  0  0  0  0  0  0  0  0  0  0
   40.1609   -0.9529    9.1584 O   0  0  0  0  0  0  0  0  0  0  0  0
   39.1957    0.9463   10.3200 O   0  0  0  0  0  0  0  0  0  0  0  0
   38.8576    3.4436    7.5506 O   0  0  0  0  0  0  0  0  0  0  0  0
   38.6257    3.8198   10.8864 O   0  0  0  0  0  0  0  0  0  0  0  0
   39.4225    5.6846    7.2567 O   0  0  0  0  0  0  0  0  0  0  0  0
   38.3310    5.9586    6.3473 C   0  0  2  0  0  0  0  0  0  0  0  0
   38.7848    6.6051    5.0283 C   0  0  1  0  0  0  0  0  0  0  0  0
   39.2894    8.0543    5.2597 C   0  0  2  0  0  0  0  0  0  0  0  0
   38.2021    8.8802    5.9083 C   0  0  1  0  0  0  0  0  0  0  0  0
   37.7886    8.2208    7.2453 C   0  0  1  0  0  0  0  0  0  0  0  0
   36.6560    8.9661    7.9479 C   0  0  0  0  0  0  0  0  0  0  0  0
   38.7130   10.2505    6.1197 N   0  0  0  0  0  0  0  0  0  0  0  0
   37.3332    6.8415    6.9951 O   0  0  0  0  0  0  0  0  0  0  0  0
   39.7896    5.7686    4.4371 O   0  0  0  0  0  0  0  0  0  0  0  0
   39.6330    8.6523    4.0022 O   0  0  0  0  0  0  0  0  0  0  0  0
   37.1131   10.2258    8.3628 O   0  0  0  0  0  0  0  0  0  0  0  0
   40.2413   -2.3776    8.6309 C   0  0  1  0  0  0  0  0  0  0  0  0
   41.6050   -2.5235    7.9203 C   0  0  1  0  0  0  0  0  0  0  0  0
   41.8145   -3.9672    7.4026 C   0  0  2  0  0  0  0  0  0  0  0  0
   41.7340   -4.9588    8.5694 C   0  0  1  0  0  0  0  0  0  0  0  0
   40.3553   -4.8491    9.2695 C   0  0  0  0  0  0  0  0  0  0  0  0
   40.1760   -3.4183    9.7877 C   0  0  2  0  0  0  0  0  0  0  0  0
   41.9240   -6.3375    8.0660 N   0  0  0  0  0  0  0  0  0  0  0  0
   38.8778   -3.3606   10.4540 N   0  0  0  0  0  0  0  0  0  0  0  0
   41.6496   -1.6188    6.7953 O   0  0  0  0  0  0  0  0  0  0  0  0
   43.1104   -4.0525    6.7717 O   0  0  0  0  0  0  0  0  0  0  0  0
  1  2  1  0  0  0  0
  1 12  1  6  0  0  0
  1 13  1  0  0  0  0
  2  3  1  0  0  0  0
  2 10  1  6  0  0  0
  4  3  1  6  0  0  0
  4  5  1  0  0  0  0
  4 14  1  0  0  0  0
  5  6  1  0  0  0  0
  5 13  1  1  0  0  0
  6  7  1  0  0  0  0
  6 15  1  6  0  0  0
  7  8  1  0  0  0  0
  7 11  1  1  0  0  0
  8 14  1  0  0  0  0
  8 16  1  6  0  0  0
  9 11  1  0  0  0  0
 17 16  1  1  0  0  0
 17 18  1  0  0  0  0
 17 24  1  0  0  0  0
 18 19  1  0  0  0  0
 18 25  1  1  0  0  0
 19 20  1  0  0  0  0
 19 26  1  6  0  0  0
 20 21  1  0  0  0  0
 20 23  1  1  0  0  0
 21 22  1  6  0  0  0
 21 24  1  0  0  0  0
 22 27  1  0  0  0  0
 28 12  1  1  0  0  0
 28 29  1  0  0  0  0
 28 33  1  0  0  0  0
 29 30  1  0  0  0  0
 29 36  1  6  0  0  0
 30 31  1  0  0  0  0
 30 37  1  1  0  0  0
 31 32  1  0  0  0  0
 31 34  1  6  0  0  0
 32 33  1  0  0  0  0
 33 35  1  6  0  0  0
M  END
>  <CHROM.1>
-65.77616534,174.26201441,-173.67288742,-159.66002083,-66.73872969,167.23308770
39.48611985,2.57146976,7.95733055,1.11268722,-1.12803412,2.57328191

>  <Name>
1yrj_lig

>  <RI>
0

>  <Rbt.Current_Directory>
/home/itssahil/PROJECTS/Mol_Feturizer/New_Systems/rnas/1yrj

>  <Rbt.Executable>
rbdock ($Id: //depot/dev/client3/rdock/2013.1/src/exe/rbdock.cxx#4 $)

>  <Rbt.Library>
libRbt.so (2013.1, Build901 2013/11/27)

>  <Rbt.Parameter_File>
/export/apps/rDock/src/rDock_2013.1_src/data/scripts/dock_solv.prm

>  <Rbt.Receptor>
prm/pocket_docking_5.prm

>  <SCORE>
-24.3195

>  <SCORE.INTER>
-19.9583

>  <SCORE.INTER.CONST>
1

>  <SCORE.INTER.POLAR>
-1.40208

>  <SCORE.INTER.ROT>
6

>  <SCORE.INTER.SOLV>
12.294

>  <SCORE.INTER.VDW>
-20.33

>  <SCORE.INTER.norm>
-0.539415

>  <SCORE.INTRA>
-4.3612

>  <SCORE.INTRA.DIHEDRAL>
-12.3614

>  <SCORE.INTRA.DIHEDRAL.0>
15.6389

>  <SCORE.INTRA.POLAR>
0

>  <SCORE.INTRA.POLAR.0>
0

>  <SCORE.INTRA.REPUL>
0

>  <SCORE.INTRA.REPUL.0>
0

>  <SCORE.INTRA.SOLV>
1.86114

>  <SCORE.INTRA.SOLV.lig_0>
-90.9181

>  <SCORE.INTRA.VDW>
0.888902

>  <SCORE.INTRA.VDW.0>
-3.14158

>  <SCORE.INTRA.norm>
-0.11787

>  <SCORE.RESTR>
0

>  <SCORE.RESTR.CAVITY>
0

>  <SCORE.RESTR.norm>
0

>  <SCORE.SYSTEM>
0

>  <SCORE.SYSTEM.CONST>
0

>  <SCORE.SYSTEM.DIHEDRAL>
0

>  <SCORE.SYSTEM.SOLV>
0

>  <SCORE.SYSTEM.norm>
0

>  <SCORE.heavy>
37

>  <SCORE.norm>
-0.657285

>  <RMSD>
10.294

$$$$
1yrj_lig
 OpenBabel11021811423D
libRbt.so/2013.1/901 2013/11/27
 37 40  0  0  0  0  0  0  0  0999 V2000
   37.8876    6.5056    9.7379 C   0  0  1  0  0  0  0  0  0  0  0  0
   38.0981    5.4545    8.6305 C   0  0  1  0  0  0  0  0  0  0  0  0
   39.2014    5.8745    7.6462 C   0  0  0  0  0  0  0  0  0  0  0  0
   38.8860    7.2754    7.0600 C   0  0  1  0  0  0  0  0  0  0  0  0
   38.7343    8.3019    8.1985 C   0  0  1  0  0  0  0  0  0  0  0  0
   38.4255    9.7266    7.5717 C   0  0  1  0  0  0  0  0  0  0  0  0
   39.5712   10.1387    6.6331 C   0  0  1  0  0  0  0  0  0  0  0  0
   39.7136    9.0526    5.5393 C   0  0  2  0  0  0  0  0  0  0  0  0
   39.5656   12.6651    6.9850 C   0  0  0  0  0  0  0  0  0  0  0  0
   38.3908    4.1227    9.1852 N   0  0  0  0  0  0  0  0  0  0  0  0
   39.3121   11.5029    6.0771 N   0  0  0  0  0  0  0  0  0  0  0  0
   38.9342    6.5202   10.7266 O   0  0  0  0  0  0  0  0  0  0  0  0
   37.6772    7.8266    9.1139 O   0  0  0  0  0  0  0  0  0  0  0  0
   39.9416    7.7432    6.1329 O   0  0  0  0  0  0  0  0  0  0  0  0
   37.2500    9.6518    6.7924 O   0  0  0  0  0  0  0  0  0  0  0  0
   40.8017    9.3260    4.6556 O   0  0  0  0  0  0  0  0  0  0  0  0
   40.7450    8.5641    3.4268 C   0  0  2  0  0  0  0  0  0  0  0  0
   41.3520    9.3033    2.2232 C   0  0  1  0  0  0  0  0  0  0  0  0
   40.4743   10.5144    1.8092 C   0  0  2  0  0  0  0  0  0  0  0  0
   39.0715   10.0488    1.4928 C   0  0  1  0  0  0  0  0  0  0  0  0
   38.4781    9.3362    2.7312 C   0  0  1  0  0  0  0  0  0  0  0  0
   37.0744    8.7884    2.4834 C   0  0  0  0  0  0  0  0  0  0  0  0
   38.2604   11.2223    1.1075 N   0  0  0  0  0  0  0  0  0  0  0  0
   39.3429    8.2046    3.1107 O   0  0  0  0  0  0  0  0  0  0  0  0
   42.6908    9.6938    2.5609 O   0  0  0  0  0  0  0  0  0  0  0  0
   41.0278   11.1345    0.6405 O   0  0  0  0  0  0  0  0  0  0  0  0
   37.1352    7.7650    1.5260 O   0  0  0  0  0  0  0  0  0  0  0  0
   38.9042    7.3792   11.9818 C   0  0  1  0  0  0  0  0  0  0  0  0
   37.7870    6.8194   12.8899 C   0  0  1  0  0  0  0  0  0  0  0  0
   37.7189    7.5881   14.2318 C   0  0  2  0  0  0  0  0  0  0  0  0
   39.0664    7.4951   14.9575 C   0  0  1  0  0  0  0  0  0  0  0  0
   40.1922    8.0876   14.0720 C   0  0  0  0  0  0  0  0  0  0  0  0
   40.2526    7.3025   12.7575 C   0  0  2  0  0  0  0  0  0  0  0  0
   38.9977    8.2412   16.2339 N   0  0  0  0  0  0  0  0  0  0  0  0
   41.3334    7.8775   11.9611 N   0  0  0  0  0  0  0  0  0  0  0  0
   36.5177    6.9564   12.2146 O   0  0  0  0  0  0  0  0  0  0  0  0
   36.6781    7.0092   15.0480 O   0  0  0  0  0  0  0  0  0  0  0  0
  1  2  1  0  0  0  0
  1 12  1  1  0  0  0
  1 13  1  0  0  0  0
  2  3  1  0  0  0  0
  2 10  1  1  0  0  0
  4  3  1  1  0  0  0
  4  5  1  0  0  0  0
  4 14  1  0  0  0  0
  5  6  1  0  0  0  0
  5 13  1  1  0  0  0
  6  7  1  0  0  0  0
  6 15  1  6  0  0  0
  7  8  1  0  0  0  0
  7 11  1  6  0  0  0
  8 14  1  0  0  0  0
  8 16  1  6  0  0  0
  9 11  1  0  0  0  0
 17 16  1  1  0  0  0
 17 18  1  0  0  0  0
 17 24  1  0  0  0  0
 18 19  1  0  0  0  0
 18 25  1  1  0  0  0
 19 20  1  0  0  0  0
 19 26  1  6  0  0  0
 20 21  1  0  0  0  0
 20 23  1  1  0  0  0
 21 22  1  6  0  0  0
 21 24  1  0  0  0  0
 22 27  1  0  0  0  0
 28 12  1  6  0  0  0
 28 29  1  0  0  0  0
 28 33  1  0  0  0  0
 29 30  1  0  0  0  0
 29 36  1  6  0  0  0
 30 31  1  0  0  0  0
 30 37  1  1  0  0  0
 31 32  1  0  0  0  0
 31 34  1  1  0  0  0
 32 33  1  0  0  0  0
 33 35  1  6  0  0  0
M  END
>  <CHROM.1>
-174.61288365,76.80062433,-163.80470320,148.70732318,65.82585719,68.54481388
39.05973307,8.41572935,7.52356383,1.75276538,0.94142223,1.65426401

>  <Name>
1yrj_lig

>  <RI>
0

>  <Rbt.Current_Directory>
/home/itssahil/PROJECTS/Mol_Feturizer/New_Systems/rnas/1yrj

>  <Rbt.Executable>
rbdock ($Id: //depot/dev/client3/rdock/2013.1/src/exe/rbdock.cxx#4 $)

>  <Rbt.Library>
libRbt.so (2013.1, Build901 2013/11/27)

>  <Rbt.Parameter_File>
/export/apps/rDock/src/rDock_2013.1_src/data/scripts/dock_solv.prm

>  <Rbt.Receptor>
prm/pocket_docking_8.prm

>  <SCORE>
-25.0549

>  <SCORE.INTER>
-20.5882

>  <SCORE.INTER.CONST>
1

>  <SCORE.INTER.POLAR>
-2.75814

>  <SCORE.INTER.ROT>
6

>  <SCORE.INTER.SOLV>
18.2512

>  <SCORE.INTER.VDW>
-18.2154

>  <SCORE.INTER.norm>
-0.556437

>  <SCORE.INTRA>
-4.46673

>  <SCORE.INTRA.DIHEDRAL>
-9.65116

>  <SCORE.INTRA.DIHEDRAL.0>
15.6389

>  <SCORE.INTRA.POLAR>
0

>  <SCORE.INTRA.POLAR.0>
0

>  <SCORE.INTRA.REPUL>
0

>  <SCORE.INTRA.REPUL.0>
0

>  <SCORE.INTRA.SOLV>
-1.9357

>  <SCORE.INTRA.SOLV.lig_0>
-90.9181

>  <SCORE.INTRA.VDW>
1.3267

>  <SCORE.INTRA.VDW.0>
-3.14158

>  <SCORE.INTRA.norm>
-0.120722

>  <SCORE.RESTR>
0

>  <SCORE.RESTR.CAVITY>
0

>  <SCORE.RESTR.norm>
0

>  <SCORE.SYSTEM>
0

>  <SCORE.SYSTEM.CONST>
0

>  <SCORE.SYSTEM.DIHEDRAL>
0

>  <SCORE.SYSTEM.SOLV>
0

>  <SCORE.SYSTEM.norm>
0

>  <SCORE.heavy>
37

>  <SCORE.norm>
-0.67716

>  <RMSD>
10.294

$$$$
1yrj_lig
 OpenBabel11021811423D
libRbt.so/2013.1/901 2013/11/27
 37 40  0  0  0  0  0  0  0  0999 V2000
   38.7073    5.5738   10.0830 C   0  0  1  0  0  0  0  0  0  0  0  0
   38.6330    4.4772    9.0025 C   0  0  1  0  0  0  0  0  0  0  0  0
   39.1870    4.9649    7.6543 C   0  0  0  0  0  0  0  0  0  0  0  0
   38.4535    6.2590    7.2148 C   0  0  1  0  0  0  0  0  0  0  0  0
   38.5970    7.3418    8.3010 C   0  0  1  0  0  0  0  0  0  0  0  0
   37.8501    8.6570    7.8213 C   0  0  1  0  0  0  0  0  0  0  0  0
   38.4615    9.1463    6.4984 C   0  0  1  0  0  0  0  0  0  0  0  0
   38.3362    8.0070    5.4579 C   0  0  2  0  0  0  0  0  0  0  0  0
   38.6897   11.5530    5.6844 C   0  0  0  0  0  0  0  0  0  0  0  0
   39.3228    3.2458    9.4207 N   0  0  0  0  0  0  0  0  0  0  0  0
   37.7966   10.4142    6.0650 N   0  0  0  0  0  0  0  0  0  0  0  0
   40.0394    5.8091   10.5763 O   0  0  0  0  0  0  0  0  0  0  0  0
   38.0670    6.8003    9.5688 O   0  0  0  0  0  0  0  0  0  0  0  0
   38.9789    6.7919    5.9371 O   0  0  0  0  0  0  0  0  0  0  0  0
   36.4917    8.3611    7.5724 O   0  0  0  0  0  0  0  0  0  0  0  0
   38.9383    8.3558    4.2107 O   0  0  0  0  0  0  0  0  0  0  0  0
   38.0317    9.0314    3.3078 C   0  0  2  0  0  0  0  0  0  0  0  0
   37.6813    8.2009    2.0623 C   0  0  1  0  0  0  0  0  0  0  0  0
   38.9085    8.0543    1.1238 C   0  0  2  0  0  0  0  0  0  0  0  0
   39.4167    9.4206    0.7241 C   0  0  1  0  0  0  0  0  0  0  0  0
   39.7881   10.2196    1.9957 C   0  0  1  0  0  0  0  0  0  0  0  0
   40.2676   11.6360    1.6862 C   0  0  0  0  0  0  0  0  0  0  0  0
   40.5854    9.2483   -0.1635 N   0  0  0  0  0  0  0  0  0  0  0  0
   38.6092   10.3249    2.8741 O   0  0  0  0  0  0  0  0  0  0  0  0
   37.1738    6.9302    2.4944 O   0  0  0  0  0  0  0  0  0  0  0  0
   38.5278    7.3404   -0.0605 O   0  0  0  0  0  0  0  0  0  0  0  0
   39.1682   12.5071    1.6668 O   0  0  0  0  0  0  0  0  0  0  0  0
   40.4152    6.9696   11.4854 C   0  0  1  0  0  0  0  0  0  0  0  0
   39.7347    6.7182   12.8491 C   0  0  1  0  0  0  0  0  0  0  0  0
   40.1115    7.8161   13.8733 C   0  0  2  0  0  0  0  0  0  0  0  0
   41.6329    7.8598   14.0582 C   0  0  1  0  0  0  0  0  0  0  0  0
   42.3277    8.1482   12.7029 C   0  0  0  0  0  0  0  0  0  0  0  0
   41.9546    7.0421   11.7104 C   0  0  2  0  0  0  0  0  0  0  0  0
   41.9868    8.9186   15.0299 N   0  0  0  0  0  0  0  0  0  0  0  0
   42.6407    7.3392   10.4558 N   0  0  0  0  0  0  0  0  0  0  0  0
   38.3017    6.7267   12.6696 O   0  0  0  0  0  0  0  0  0  0  0  0
   39.4701    7.5187   15.1322 O   0  0  0  0  0  0  0  0  0  0  0  0
  1  2  1  0  0  0  0
  1 12  1  6  0  0  0
  1 13  1  0  0  0  0
  2  3  1  0  0  0  0
  2 10  1  1  0  0  0
  4  3  1  1  0  0  0
  4  5  1  0  0  0  0
  4 14  1  0  0  0  0
  5  6  1  0  0  0  0
  5 13  1  1  0  0  0
  6  7  1  0  0  0  0
  6 15  1  6  0  0  0
  7  8  1  0  0  0  0
  7 11  1  6  0  0  0
  8 14  1  0  0  0  0
  8 16  1  6  0  0  0
  9 11  1  0  0  0  0
 17 16  1  1  0  0  0
 17 18  1  0  0  0  0
 17 24  1  0  0  0  0
 18 19  1  0  0  0  0
 18 25  1  1  0  0  0
 19 20  1  0  0  0  0
 19 26  1  6  0  0  0
 20 21  1  0  0  0  0
 20 23  1  6  0  0  0
 21 22  1  6  0  0  0
 21 24  1  0  0  0  0
 22 27  1  0  0  0  0
 28 12  1  6  0  0  0
 28 29  1  0  0  0  0
 28 33  1  0  0  0  0
 29 30  1  0  0  0  0
 29 36  1  6  0  0  0
 30 31  1  0  0  0  0
 30 37  1  1  0  0  0
 31 32  1  0  0  0  0
 31 34  1  1  0  0  0
 32 33  1  0  0  0  0
 33 35  1  6  0  0  0
M  END
>  <CHROM.1>
170.50856593,130.44228186,-88.60586010,-112.51291936,89.48431705,68.07428929
39.24735774,7.95412324,7.22506019,1.22719611,1.17336029,2.10644989

>  <Name>
1yrj_lig

>  <RI>
0

>  <Rbt.Current_Directory>
/home/itssahil/PROJECTS/Mol_Feturizer/New_Systems/rnas/1yrj

>  <Rbt.Executable>
rbdock ($Id: //depot/dev/client3/rdock/2013.1/src/exe/rbdock.cxx#4 $)

>  <Rbt.Library>
libRbt.so (2013.1, Build901 2013/11/27)

>  <Rbt.Parameter_File>
/export/apps/rDock/src/rDock_2013.1_src/data/scripts/dock_solv.prm

>  <Rbt.Receptor>
prm/pocket_docking_6.prm

>  <SCORE>
-12.0865

>  <SCORE.INTER>
-11.0023

>  <SCORE.INTER.CONST>
1

>  <SCORE.INTER.POLAR>
-1.41717

>  <SCORE.INTER.ROT>
6

>  <SCORE.INTER.SOLV>
18.3753

>  <SCORE.INTER.VDW>
-16.3361

>  <SCORE.INTER.norm>
-0.29736

>  <SCORE.INTRA>
-1.14364

>  <SCORE.INTRA.DIHEDRAL>
-0.88045

>  <SCORE.INTRA.DIHEDRAL.0>
15.6389

>  <SCORE.INTRA.POLAR>
0

>  <SCORE.INTRA.POLAR.0>
0

>  <SCORE.INTRA.REPUL>
0

>  <SCORE.INTRA.REPUL.0>
0

>  <SCORE.INTRA.SOLV>
-1.63955

>  <SCORE.INTRA.SOLV.lig_0>
-90.9181

>  <SCORE.INTRA.VDW>
0.116363

>  <SCORE.INTRA.VDW.0>
-3.14158

>  <SCORE.INTRA.norm>
-0.0309092

>  <SCORE.RESTR>
0.0594677

>  <SCORE.RESTR.CAVITY>
0.0594677

>  <SCORE.RESTR.norm>
0.00160723

>  <SCORE.SYSTEM>
0

>  <SCORE.SYSTEM.CONST>
0

>  <SCORE.SYSTEM.DIHEDRAL>
0

>  <SCORE.SYSTEM.SOLV>
0

>  <SCORE.SYSTEM.norm>
0

>  <SCORE.heavy>
37

>  <SCORE.norm>
-0.326662

>  <RMSD>
10.296

$$$$
1yrj_lig
 OpenBabel11021811423D
libRbt.so/2013.1/901 2013/11/27
 37 40  0  0  0  0  0  0  0  0999 V2000
   39.2689    0.8600    9.3768 C   0  0  1  0  0  0  0  0  0  0  0  0
   38.1482    1.1752    8.3668 C   0  0  1  0  0  0  0  0  0  0  0  0
   38.4141    2.4854    7.6085 C   0  0  0  0  0  0  0  0  0  0  0  0
   38.6290    3.6472    8.6134 C   0  0  1  0  0  0  0  0  0  0  0  0
   39.7895    3.3106    9.5689 C   0  0  1  0  0  0  0  0  0  0  0  0
   39.9962    4.5191   10.5763 C   0  0  1  0  0  0  0  0  0  0  0  0
   40.3104    5.8015    9.7889 C   0  0  1  0  0  0  0  0  0  0  0  0
   39.1397    6.0671    8.8115 C   0  0  2  0  0  0  0  0  0  0  0  0
   41.6487    7.8927   10.3741 C   0  0  0  0  0  0  0  0  0  0  0  0
   37.9382    0.0707    7.4164 N   0  0  0  0  0  0  0  0  0  0  0  0
   40.5566    6.9350   10.7334 N   0  0  0  0  0  0  0  0  0  0  0  0
   40.4874    0.4004    8.7626 O   0  0  0  0  0  0  0  0  0  0  0  0
   39.4785    2.0350   10.2452 O   0  0  0  0  0  0  0  0  0  0  0  0
   38.9280    4.9271    7.9314 O   0  0  0  0  0  0  0  0  0  0  0  0
   38.7983    4.7463   11.2889 O   0  0  0  0  0  0  0  0  0  0  0  0
   39.3791    7.2119    7.9919 O   0  0  0  0  0  0  0  0  0  0  0  0
   38.4171    8.2730    8.1976 C   0  0  2  0  0  0  0  0  0  0  0  0
   36.9981    7.9072    7.7324 C   0  0  1  0  0  0  0  0  0  0  0  0
   36.9265    7.7988    6.1860 C   0  0  2  0  0  0  0  0  0  0  0  0
   37.3713    9.0997    5.5579 C   0  0  1  0  0  0  0  0  0  0  0  0
   38.8112    9.4246    6.0211 C   0  0  1  0  0  0  0  0  0  0  0  0
   39.3252   10.7527    5.4701 C   0  0  0  0  0  0  0  0  0  0  0  0
   37.2968    8.9640    4.0884 N   0  0  0  0  0  0  0  0  0  0  0  0
   38.8505    9.5017    7.4925 O   0  0  0  0  0  0  0  0  0  0  0  0
   36.6104    6.6871    8.3805 O   0  0  0  0  0  0  0  0  0  0  0  0
   35.5763    7.5314    5.7830 O   0  0  0  0  0  0  0  0  0  0  0  0
   38.6593   11.8109    6.1063 O   0  0  0  0  0  0  0  0  0  0  0  0
   41.7057   -0.0707    9.5423 C   0  0  1  0  0  0  0  0  0  0  0  0
   41.5204   -1.5812    9.8071 C   0  0  1  0  0  0  0  0  0  0  0  0
   42.7467   -2.1750   10.5418 C   0  0  2  0  0  0  0  0  0  0  0  0
   44.0149   -1.9506    9.7098 C   0  0  1  0  0  0  0  0  0  0  0  0
   44.2337   -0.4353    9.4674 C   0  0  0  0  0  0  0  0  0  0  0  0
   43.0169    0.1278    8.7256 C   0  0  2  0  0  0  0  0  0  0  0  0
   45.1846   -2.5107   10.4229 N   0  0  0  0  0  0  0  0  0  0  0  0
   43.2686    1.5488    8.5010 N   0  0  0  0  0  0  0  0  0  0  0  0
   40.3502   -1.7753   10.6310 O   0  0  0  0  0  0  0  0  0  0  0  0
   42.5311   -3.5887   10.7407 O   0  0  0  0  0  0  0  0  0  0  0  0
  1  2  1  0  0  0  0
  1 12  1  6  0  0  0
  1 13  1  0  0  0  0
  2  3  1  0  0  0  0
  2 10  1  6  0  0  0
  4  3  1  6  0  0  0
  4  5  1  0  0  0  0
  4 14  1  0  0  0  0
  5  6  1  0  0  0  0
  5 13  1  1  0  0  0
  6  7  1  0  0  0  0
  6 15  1  6  0  0  0
  7  8  1  0  0  0  0
  7 11  1  1  0  0  0
  8 14  1  0  0  0  0
  8 16  1  6  0  0  0
  9 11  1  0  0  0  0
 17 16  1  6  0  0  0
 17 18  1  0  0  0  0
 17 24  1  0  0  0  0
 18 19  1  0  0  0  0
 18 25  1  1  0  0  0
 19 20  1  0  0  0  0
 19 26  1  1  0  0  0
 20 21  1  0  0  0  0
 20 23  1  6  0  0  0
 21 22  1  6  0  0  0
 21 24  1  0  0  0  0
 22 27  1  0  0  0  0
 28 12  1  6  0  0  0
 28 29  1  0  0  0  0
 28 33  1  0  0  0  0
 29 30  1  0  0  0  0
 29 36  1  1  0  0  0
 30 31  1  0  0  0  0
 30 37  1  6  0  0  0
 31 32  1  0  0  0  0
 31 34  1  1  0  0  0
 32 33  1  0  0  0  0
 33 35  1  1  0  0  0
M  END
>  <CHROM.1>
-175.41837005,141.00592229,-117.34800066,-67.10455500,71.44268321,88.05417886
39.81845387,4.02402318,8.56069445,1.15525078,0.44587249,3.03305677

>  <Name>
1yrj_lig

>  <RI>
224

>  <Rbt.Current_Directory>
/home/itssahil/PROJECTS/Mol_Feturizer/New_Systems/rnas/1yrj

>  <Rbt.Executable>
rbdock ($Id: //depot/dev/client3/rdock/2013.1/src/exe/rbdock.cxx#4 $)

>  <Rbt.Library>
libRbt.so (2013.1, Build901 2013/11/27)

>  <Rbt.Parameter_File>
/export/apps/rDock/src/rDock_2013.1_src/data/scripts/dock_solv.prm

>  <Rbt.Receptor>
prm/pocket_docking_2.prm

>  <SCORE>
-24.1016

>  <SCORE.INTER>
-24.2084

>  <SCORE.INTER.CONST>
1

>  <SCORE.INTER.POLAR>
-2.23211

>  <SCORE.INTER.ROT>
6

>  <SCORE.INTER.SOLV>
21.2132

>  <SCORE.INTER.VDW>
-23.3696

>  <SCORE.INTER.norm>
-0.654282

>  <SCORE.INTRA>
-1.78604

>  <SCORE.INTRA.DIHEDRAL>
-3.48322

>  <SCORE.INTRA.DIHEDRAL.0>
15.6389

>  <SCORE.INTRA.POLAR>
0

>  <SCORE.INTRA.POLAR.0>
0

>  <SCORE.INTRA.REPUL>
0

>  <SCORE.INTRA.REPUL.0>
0

>  <SCORE.INTRA.SOLV>
-1.25323

>  <SCORE.INTRA.SOLV.lig_0>
-90.9181

>  <SCORE.INTRA.VDW>
0.582183

>  <SCORE.INTRA.VDW.0>
-3.14158

>  <SCORE.INTRA.norm>
-0.0482715

>  <SCORE.RESTR>
1.89287

>  <SCORE.RESTR.CAVITY>
1.89287

>  <SCORE.RESTR.norm>
0.0511585

>  <SCORE.SYSTEM>
0

>  <SCORE.SYSTEM.CONST>
0

>  <SCORE.SYSTEM.DIHEDRAL>
0

>  <SCORE.SYSTEM.SOLV>
0

>  <SCORE.SYSTEM.norm>
0

>  <SCORE.heavy>
37

>  <SCORE.norm>
-0.651394

>  <RMSD>
10.297

$$$$
1yrj_lig
 OpenBabel11021811423D
libRbt.so/2013.1/901 2013/11/27
 37 40  0  0  0  0  0  0  0  0999 V2000
   38.5172    5.7369    9.7492 C   0  0  1  0  0  0  0  0  0  0  0  0
   38.2367    5.0187    8.4148 C   0  0  1  0  0  0  0  0  0  0  0  0
   38.8901    5.7435    7.2273 C   0  0  0  0  0  0  0  0  0  0  0  0
   38.4336    7.2254    7.1923 C   0  0  1  0  0  0  0  0  0  0  0  0
   38.7792    7.9157    8.5254 C   0  0  1  0  0  0  0  0  0  0  0  0
   38.3141    9.4313    8.4582 C   0  0  1  0  0  0  0  0  0  0  0  0
   39.0240   10.1395    7.2928 C   0  0  1  0  0  0  0  0  0  0  0  0
   38.6846    9.3798    5.9874 C   0  0  2  0  0  0  0  0  0  0  0  0
   39.6807   12.5617    6.8368 C   0  0  0  0  0  0  0  0  0  0  0  0
   38.6631    3.6101    8.4484 N   0  0  0  0  0  0  0  0  0  0  0  0
   38.6295   11.5818    7.2535 N   0  0  0  0  0  0  0  0  0  0  0  0
   39.8645    5.5631   10.2265 O   0  0  0  0  0  0  0  0  0  0  0  0
   38.1393    7.1579    9.6197 O   0  0  0  0  0  0  0  0  0  0  0  0
   39.0674    7.9789    6.0863 O   0  0  0  0  0  0  0  0  0  0  0  0
   36.9266    9.4855    8.2004 O   0  0  0  0  0  0  0  0  0  0  0  0
   39.3566    9.9366    4.8569 O   0  0  0  0  0  0  0  0  0  0  0  0
   38.5334    9.9809    3.6678 C   0  0  2  0  0  0  0  0  0  0  0  0
   38.5554    8.6714    2.8626 C   0  0  1  0  0  0  0  0  0  0  0  0
   39.9408    8.4440    2.2014 C   0  0  2  0  0  0  0  0  0  0  0  0
   40.2862    9.6178    1.3138 C   0  0  1  0  0  0  0  0  0  0  0  0
   40.2848   10.9143    2.1579 C   0  0  1  0  0  0  0  0  0  0  0  0
   40.5778   12.1619    1.3276 C   0  0  0  0  0  0  0  0  0  0  0  0
   41.6097    9.3746    0.7035 N   0  0  0  0  0  0  0  0  0  0  0  0
   38.9639   11.0918    2.7873 O   0  0  0  0  0  0  0  0  0  0  0  0
   38.1893    7.5957    3.7390 O   0  0  0  0  0  0  0  0  0  0  0  0
   39.9034    7.2558    1.3990 O   0  0  0  0  0  0  0  0  0  0  0  0
   40.6459   13.2795    2.1727 O   0  0  0  0  0  0  0  0  0  0  0  0
   40.3924    6.1699   11.5178 C   0  0  1  0  0  0  0  0  0  0  0  0
   41.7511    6.8273   11.1896 C   0  0  1  0  0  0  0  0  0  0  0  0
   42.3442    7.5363   12.4313 C   0  0  2  0  0  0  0  0  0  0  0  0
   41.3673    8.6020   12.9422 C   0  0  1  0  0  0  0  0  0  0  0  0
   40.0102    7.9501   13.3106 C   0  0  0  0  0  0  0  0  0  0  0  0
   39.4340    7.2689   12.0648 C   0  0  2  0  0  0  0  0  0  0  0  0
   41.9355    9.2680   14.1355 N   0  0  0  0  0  0  0  0  0  0  0  0
   38.1516    6.6842   12.4473 N   0  0  0  0  0  0  0  0  0  0  0  0
   42.6760    5.8066   10.7553 O   0  0  0  0  0  0  0  0  0  0  0  0
   43.5969    8.1520   12.0622 O   0  0  0  0  0  0  0  0  0  0  0  0
  1  2  1  0  0  0  0
  1 12  1  6  0  0  0
  1 13  1  0  0  0  0
  2  3  1  0  0  0  0
  2 10  1  1  0  0  0
  4  3  1  1  0  0  0
  4  5  1  0  0  0  0
  4 14  1  0  0  0  0
  5  6  1  0  0  0  0
  5 13  1  1  0  0  0
  6  7  1  0  0  0  0
  6 15  1  6  0  0  0
  7  8  1  0  0  0  0
  7 11  1  6  0  0  0
  8 14  1  0  0  0  0
  8 16  1  6  0  0  0
  9 11  1  0  0  0  0
 17 16  1  1  0  0  0
 17 18  1  0  0  0  0
 17 24  1  0  0  0  0
 18 19  1  0  0  0  0
 18 25  1  1  0  0  0
 19 20  1  0  0  0  0
 19 26  1  6  0  0  0
 20 21  1  0  0  0  0
 20 23  1  1  0  0  0
 21 22  1  6  0  0  0
 21 24  1  0  0  0  0
 22 27  1  0  0  0  0
 28 12  1  6  0  0  0
 28 29  1  0  0  0  0
 28 33  1  0  0  0  0
 29 30  1  0  0  0  0
 29 36  1  1  0  0  0
 30 31  1  0  0  0  0
 30 37  1  6  0  0  0
 31 32  1  0  0  0  0
 31 34  1  1  0  0  0
 32 33  1  0  0  0  0
 33 35  1  1  0  0  0
M  END
>  <CHROM.1>
179.98539226,144.52055537,-140.25733914,-85.43360183,-176.16900615,-132.60202520
39.69168044,8.42752857,7.29903242,1.35848893,1.19576727,2.09380521

>  <Name>
1yrj_lig

>  <RI>
0

>  <Rbt.Current_Directory>
/home/itssahil/PROJECTS/Mol_Feturizer/New_Systems/rnas/1yrj

>  <Rbt.Executable>
rbdock ($Id: //depot/dev/client3/rdock/2013.1/src/exe/rbdock.cxx#4 $)

>  <Rbt.Library>
libRbt.so (2013.1, Build901 2013/11/27)

>  <Rbt.Parameter_File>
/export/apps/rDock/src/rDock_2013.1_src/data/scripts/dock_solv.prm

>  <Rbt.Receptor>
prm/pocket_docking_7.prm

>  <SCORE>
-17.7467

>  <SCORE.INTER>
-18.2921

>  <SCORE.INTER.CONST>
1

>  <SCORE.INTER.POLAR>
-0.916515

>  <SCORE.INTER.ROT>
6

>  <SCORE.INTER.SOLV>
17.5949

>  <SCORE.INTER.VDW>
-22.6047

>  <SCORE.INTER.norm>
-0.494381

>  <SCORE.INTRA>
0.545439

>  <SCORE.INTRA.DIHEDRAL>
-0.202614

>  <SCORE.INTRA.DIHEDRAL.0>
15.6389

>  <SCORE.INTRA.POLAR>
0

>  <SCORE.INTRA.POLAR.0>
0

>  <SCORE.INTRA.REPUL>
0

>  <SCORE.INTRA.REPUL.0>
0

>  <SCORE.INTRA.SOLV>
-0.204223

>  <SCORE.INTRA.SOLV.lig_0>
-90.9181

>  <SCORE.INTRA.VDW>
0.748857

>  <SCORE.INTRA.VDW.0>
-3.14158

>  <SCORE.INTRA.norm>
0.0147416

>  <SCORE.RESTR>
0

>  <SCORE.RESTR.CAVITY>
0

>  <SCORE.RESTR.norm>
0

>  <SCORE.SYSTEM>
0

>  <SCORE.SYSTEM.CONST>
0

>  <SCORE.SYSTEM.DIHEDRAL>
0

>  <SCORE.SYSTEM.SOLV>
0

>  <SCORE.SYSTEM.norm>
0

>  <SCORE.heavy>
37

>  <SCORE.norm>
-0.47964

>  <RMSD>
10.299

$$$$
1yrj_lig
 OpenBabel11021811423D
libRbt.so/2013.1/901 2013/11/27
 37 40  0  0  0  0  0  0  0  0999 V2000
   38.7350   -0.5920    9.5083 C   0  0  1  0  0  0  0  0  0  0  0  0
   37.6900   -0.3725    8.3969 C   0  0  1  0  0  0  0  0  0  0  0  0
   38.1173    0.7359    7.4216 C   0  0  0  0  0  0  0  0  0  0  0  0
   38.4150    2.0438    8.2004 C   0  0  1  0  0  0  0  0  0  0  0  0
   39.4993    1.7891    9.2646 C   0  0  1  0  0  0  0  0  0  0  0  0
   39.7938    3.1438   10.0367 C   0  0  1  0  0  0  0  0  0  0  0  0
   40.2672    4.2149    9.0407 C   0  0  1  0  0  0  0  0  0  0  0  0
   39.1662    4.3971    7.9679 C   0  0  2  0  0  0  0  0  0  0  0  0
   41.6326    5.3962   10.8426 C   0  0  0  0  0  0  0  0  0  0  0  0
   37.4011   -1.6143    7.6610 N   0  0  0  0  0  0  0  0  0  0  0  0
   40.5953    5.4805    9.7674 N   0  0  0  0  0  0  0  0  0  0  0  0
   39.9206   -1.2747    9.0595 O   0  0  0  0  0  0  0  0  0  0  0  0
   39.0338    0.7029   10.1506 O   0  0  0  0  0  0  0  0  0  0  0  0
   38.8693    3.1342    7.3075 O   0  0  0  0  0  0  0  0  0  0  0  0
   38.6009    3.6165   10.6268 O   0  0  0  0  0  0  0  0  0  0  0  0
   39.5522    5.3346    6.9622 O   0  0  0  0  0  0  0  0  0  0  0  0
   38.4494    5.7679    6.1316 C   0  0  2  0  0  0  0  0  0  0  0  0
   38.8989    6.4261    4.8170 C   0  0  1  0  0  0  0  0  0  0  0  0
   39.5709    7.8000    5.0799 C   0  0  2  0  0  0  0  0  0  0  0  0
   38.6175    8.7046    5.8266 C   0  0  1  0  0  0  0  0  0  0  0  0
   38.2075    8.0284    7.1563 C   0  0  1  0  0  0  0  0  0  0  0  0
   37.2032    8.8552    7.9561 C   0  0  0  0  0  0  0  0  0  0  0  0
   39.2861   10.0004    6.0658 N   0  0  0  0  0  0  0  0  0  0  0  0
   37.5909    6.7196    6.8747 O   0  0  0  0  0  0  0  0  0  0  0  0
   39.7726    5.5170    4.1320 O   0  0  0  0  0  0  0  0  0  0  0  0
   39.9092    8.4187    3.8310 O   0  0  0  0  0  0  0  0  0  0  0  0
   36.0605    9.0844    7.1753 O   0  0  0  0  0  0  0  0  0  0  0  0
   41.0089   -1.7873    9.9909 C   0  0  1  0  0  0  0  0  0  0  0  0
   40.4092   -2.9690   10.7845 C   0  0  1  0  0  0  0  0  0  0  0  0
   41.4648   -3.6083   11.7191 C   0  0  2  0  0  0  0  0  0  0  0  0
   42.6642   -4.0963   10.8980 C   0  0  1  0  0  0  0  0  0  0  0  0
   43.2991   -2.9126   10.1243 C   0  0  0  0  0  0  0  0  0  0  0  0
   42.2429   -2.3058    9.1947 C   0  0  2  0  0  0  0  0  0  0  0  0
   43.6740   -4.6961   11.7985 N   0  0  0  0  0  0  0  0  0  0  0  0
   42.8827   -1.2091    8.4730 N   0  0  0  0  0  0  0  0  0  0  0  0
   39.3112   -2.4873   11.5897 O   0  0  0  0  0  0  0  0  0  0  0  0
   40.8591   -4.7188   12.4152 O   0  0  0  0  0  0  0  0  0  0  0  0
  1  2  1  0  0  0  0
  1 12  1  6  0  0  0
  1 13  1  0  0  0  0
  2  3  1  0  0  0  0
  2 10  1  6  0  0  0
  4  3  1  6  0  0  0
  4  5  1  0  0  0  0
  4 14  1  0  0  0  0
  5  6  1  0  0  0  0
  5 13  1  1  0  0  0
  6  7  1  0  0  0  0
  6 15  1  6  0  0  0
  7  8  1  0  0  0  0
  7 11  1  1  0  0  0
  8 14  1  0  0  0  0
  8 16  1  6  0  0  0
  9 11  1  0  0  0  0
 17 16  1  1  0  0  0
 17 18  1  0  0  0  0
 17 24  1  0  0  0  0
 18 19  1  0  0  0  0
 18 25  1  1  0  0  0
 19 20  1  0  0  0  0
 19 26  1  6  0  0  0
 20 21  1  0  0  0  0
 20 23  1  1  0  0  0
 21 22  1  6  0  0  0
 21 24  1  0  0  0  0
 22 27  1  0  0  0  0
 28 12  1  6  0  0  0
 28 29  1  0  0  0  0
 28 33  1  0  0  0  0
 29 30  1  0  0  0  0
 29 36  1  1  0  0  0
 30 31  1  0  0  0  0
 30 37  1  6  0  0  0
 31 32  1  0  0  0  0
 31 34  1  1  0  0  0
 32 33  1  0  0  0  0
 33 35  1  1  0  0  0
M  END
>  <CHROM.1>
-170.92246717,57.77648045,-166.19525240,-162.80431958,57.81401375,69.21072689
39.66988545,2.49273035,8.48597396,1.33270699,0.37135704,2.84081999

>  <Name>
1yrj_lig

>  <RI>
0

>  <Rbt.Current_Directory>
/home/itssahil/PROJECTS/Mol_Feturizer/New_Systems/rnas/1yrj

>  <Rbt.Executable>
rbdock ($Id: //depot/dev/client3/rdock/2013.1/src/exe/rbdock.cxx#4 $)

>  <Rbt.Library>
libRbt.so (2013.1, Build901 2013/11/27)

>  <Rbt.Parameter_File>
/export/apps/rDock/src/rDock_2013.1_src/data/scripts/dock_solv.prm

>  <Rbt.Receptor>
prm/pocket_docking_7.prm

>  <SCORE>
-28.9638

>  <SCORE.INTER>
-22.9659

>  <SCORE.INTER.CONST>
1

>  <SCORE.INTER.POLAR>
-1.22951

>  <SCORE.INTER.ROT>
6

>  <SCORE.INTER.SOLV>
14.5373

>  <SCORE.INTER.VDW>
-23.658

>  <SCORE.INTER.norm>
-0.620699

>  <SCORE.INTRA>
-5.99793

>  <SCORE.INTRA.DIHEDRAL>
-12.449

>  <SCORE.INTRA.DIHEDRAL.0>
15.6389

>  <SCORE.INTRA.POLAR>
0

>  <SCORE.INTRA.POLAR.0>
0

>  <SCORE.INTRA.REPUL>
0

>  <SCORE.INTRA.REPUL.0>
0

>  <SCORE.INTRA.SOLV>
-2.15708

>  <SCORE.INTRA.SOLV.lig_0>
-90.9181

>  <SCORE.INTRA.VDW>
1.30511

>  <SCORE.INTRA.VDW.0>
-3.14158

>  <SCORE.INTRA.norm>
-0.162106

>  <SCORE.RESTR>
0

>  <SCORE.RESTR.CAVITY>
0

>  <SCORE.RESTR.norm>
0

>  <SCORE.SYSTEM>
0

>  <SCORE.SYSTEM.CONST>
0

>  <SCORE.SYSTEM.DIHEDRAL>
0

>  <SCORE.SYSTEM.SOLV>
0

>  <SCORE.SYSTEM.norm>
0

>  <SCORE.heavy>
37

>  <SCORE.norm>
-0.782805

>  <RMSD>
10.299

$$$$
1yrj_lig
 OpenBabel11021811423D
libRbt.so/2013.1/901 2013/11/27
 37 40  0  0  0  0  0  0  0  0999 V2000
   39.5654    0.3199    9.5847 C   0  0  1  0  0  0  0  0  0  0  0  0
   38.3070    0.2918    8.6954 C   0  0  1  0  0  0  0  0  0  0  0  0
   38.2907    1.4554    7.6913 C   0  0  0  0  0  0  0  0  0  0  0  0
   38.4384    2.8058    8.4398 C   0  0  1  0  0  0  0  0  0  0  0  0
   39.7333    2.8077    9.2743 C   0  0  1  0  0  0  0  0  0  0  0  0
   39.8664    4.2030   10.0182 C   0  0  1  0  0  0  0  0  0  0  0  0
   39.8985    5.3400    8.9840 C   0  0  1  0  0  0  0  0  0  0  0  0
   38.6018    5.2636    8.1420 C   0  0  2  0  0  0  0  0  0  0  0  0
   41.4396    6.9669   10.2026 C   0  0  0  0  0  0  0  0  0  0  0  0
   38.1614   -0.9917    7.9894 N   0  0  0  0  0  0  0  0  0  0  0  0
   40.0747    6.6552    9.6744 N   0  0  0  0  0  0  0  0  0  0  0  0
   40.7645   -0.0913    8.9017 O   0  0  0  0  0  0  0  0  0  0  0  0
   39.6912    1.6564   10.1985 O   0  0  0  0  0  0  0  0  0  0  0  0
   38.4674    3.9587    7.5110 O   0  0  0  0  0  0  0  0  0  0  0  0
   38.7329    4.4095   10.8350 O   0  0  0  0  0  0  0  0  0  0  0  0
   38.5773    6.2511    7.1105 O   0  0  0  0  0  0  0  0  0  0  0  0
   37.2608    6.8064    6.8824 C   0  0  2  0  0  0  0  0  0  0  0  0
   37.2551    7.9648    5.8717 C   0  0  1  0  0  0  0  0  0  0  0  0
   37.9599    9.2190    6.4536 C   0  0  2  0  0  0  0  0  0  0  0  0
   37.2874    9.6360    7.7414 C   0  0  1  0  0  0  0  0  0  0  0  0
   37.3355    8.4609    8.7466 C   0  0  1  0  0  0  0  0  0  0  0  0
   36.6327    8.7796   10.0644 C   0  0  0  0  0  0  0  0  0  0  0  0
   37.9821   10.8270    8.2725 N   0  0  0  0  0  0  0  0  0  0  0  0
   36.6764    7.2811    8.1583 O   0  0  0  0  0  0  0  0  0  0  0  0
   37.8721    7.5094    4.6588 O   0  0  0  0  0  0  0  0  0  0  0  0
   37.8706   10.3011    5.5166 O   0  0  0  0  0  0  0  0  0  0  0  0
   37.2942    9.8400   10.7014 O   0  0  0  0  0  0  0  0  0  0  0  0
   41.1232   -1.5417    8.6154 C   0  0  1  0  0  0  0  0  0  0  0  0
   42.0509   -1.5459    7.3804 C   0  0  1  0  0  0  0  0  0  0  0  0
   42.5299   -2.9792    7.0452 C   0  0  2  0  0  0  0  0  0  0  0  0
   43.2705   -3.5783    8.2467 C   0  0  1  0  0  0  0  0  0  0  0  0
   42.3386   -3.6145    9.4849 C   0  0  0  0  0  0  0  0  0  0  0  0
   41.8901   -2.1855    9.8084 C   0  0  2  0  0  0  0  0  0  0  0  0
   43.7158   -4.9522    7.9234 N   0  0  0  0  0  0  0  0  0  0  0  0
   41.0313   -2.2596   10.9873 N   0  0  0  0  0  0  0  0  0  0  0  0
   41.3268   -1.0238    6.2451 O   0  0  0  0  0  0  0  0  0  0  0  0
   43.4103   -2.9209    5.9023 O   0  0  0  0  0  0  0  0  0  0  0  0
  1  2  1  0  0  0  0
  1 12  1  6  0  0  0
  1 13  1  0  0  0  0
  2  3  1  0  0  0  0
  2 10  1  6  0  0  0
  4  3  1  6  0  0  0
  4  5  1  0  0  0  0
  4 14  1  0  0  0  0
  5  6  1  0  0  0  0
  5 13  1  1  0  0  0
  6  7  1  0  0  0  0
  6 15  1  1  0  0  0
  7  8  1  0  0  0  0
  7 11  1  1  0  0  0
  8 14  1  0  0  0  0
  8 16  1  6  0  0  0
  9 11  1  0  0  0  0
 17 16  1  1  0  0  0
 17 18  1  0  0  0  0
 17 24  1  0  0  0  0
 18 19  1  0  0  0  0
 18 25  1  6  0  0  0
 19 20  1  0  0  0  0
 19 26  1  6  0  0  0
 20 21  1  0  0  0  0
 20 23  1  1  0  0  0
 21 22  1  1  0  0  0
 21 24  1  0  0  0  0
 22 27  1  0  0  0  0
 28 12  1  1  0  0  0
 28 29  1  0  0  0  0
 28 33  1  0  0  0  0
 29 30  1  0  0  0  0
 29 36  1  6  0  0  0
 30 31  1  0  0  0  0
 30 37  1  6  0  0  0
 31 32  1  0  0  0  0
 31 34  1  6  0  0  0
 32 33  1  0  0  0  0
 33 35  1  1  0  0  0
M  END
>  <CHROM.1>
-78.06347212,74.79425544,-143.10124702,174.33992159,-63.08685480,154.49577144
39.52031168,3.33675981,8.30784942,0.05317825,-1.21475670,1.59352623

>  <Name>
1yrj_lig

>  <RI>
0

>  <Rbt.Current_Directory>
/home/itssahil/PROJECTS/Mol_Feturizer/New_Systems/rnas/1yrj

>  <Rbt.Executable>
rbdock ($Id: //depot/dev/client3/rdock/2013.1/src/exe/rbdock.cxx#4 $)

>  <Rbt.Library>
libRbt.so (2013.1, Build901 2013/11/27)

>  <Rbt.Parameter_File>
/export/apps/rDock/src/rDock_2013.1_src/data/scripts/dock_solv.prm

>  <Rbt.Receptor>
prm/pocket_docking_4.prm

>  <SCORE>
-25.579

>  <SCORE.INTER>
-23.2238

>  <SCORE.INTER.CONST>
1

>  <SCORE.INTER.POLAR>
-1.65781

>  <SCORE.INTER.ROT>
6

>  <SCORE.INTER.SOLV>
13.3427

>  <SCORE.INTER.VDW>
-22.0041

>  <SCORE.INTER.norm>
-0.62767

>  <SCORE.INTRA>
-2.3552

>  <SCORE.INTRA.DIHEDRAL>
-6.09383

>  <SCORE.INTRA.DIHEDRAL.0>
15.6389

>  <SCORE.INTRA.POLAR>
0

>  <SCORE.INTRA.POLAR.0>
0

>  <SCORE.INTRA.REPUL>
0

>  <SCORE.INTRA.REPUL.0>
0

>  <SCORE.INTRA.SOLV>
1.50234

>  <SCORE.INTRA.SOLV.lig_0>
-90.9181

>  <SCORE.INTRA.VDW>
-0.0594545

>  <SCORE.INTRA.VDW.0>
-3.14158

>  <SCORE.INTRA.norm>
-0.0636541

>  <SCORE.RESTR>
0

>  <SCORE.RESTR.CAVITY>
0

>  <SCORE.RESTR.norm>
0

>  <SCORE.SYSTEM>
0

>  <SCORE.SYSTEM.CONST>
0

>  <SCORE.SYSTEM.DIHEDRAL>
0

>  <SCORE.SYSTEM.SOLV>
0

>  <SCORE.SYSTEM.norm>
0

>  <SCORE.heavy>
37

>  <SCORE.norm>
-0.691324

>  <RMSD>
10.300

$$$$
1yrj_lig
 OpenBabel11021811423D
libRbt.so/2013.1/901 2013/11/27
 37 40  0  0  0  0  0  0  0  0999 V2000
   39.6749    0.3854    9.5580 C   0  0  1  0  0  0  0  0  0  0  0  0
   38.3521    0.3332    8.7688 C   0  0  1  0  0  0  0  0  0  0  0  0
   38.2667    1.4554    7.7220 C   0  0  0  0  0  0  0  0  0  0  0  0
   38.4797    2.8335    8.4011 C   0  0  1  0  0  0  0  0  0  0  0  0
   39.8344    2.8568    9.1340 C   0  0  1  0  0  0  0  0  0  0  0  0
   40.0328    4.2797    9.8078 C   0  0  1  0  0  0  0  0  0  0  0  0
   39.9931    5.3737    8.7284 C   0  0  1  0  0  0  0  0  0  0  0  0
   38.6355    5.2756    7.9912 C   0  0  2  0  0  0  0  0  0  0  0  0
   40.9136    7.7420    8.5034 C   0  0  0  0  0  0  0  0  0  0  0  0
   38.1449   -0.9763    8.1291 N   0  0  0  0  0  0  0  0  0  0  0  0
   40.2299    6.7140    9.3489 N   0  0  0  0  0  0  0  0  0  0  0  0
   40.8157   -0.0645    8.8034 O   0  0  0  0  0  0  0  0  0  0  0  0
   39.8556    1.7443   10.1052 O   0  0  0  0  0  0  0  0  0  0  0  0
   38.4451    3.9476    7.4263 O   0  0  0  0  0  0  0  0  0  0  0  0
   38.9663    4.5298   10.6992 O   0  0  0  0  0  0  0  0  0  0  0  0
   38.5387    6.2208    6.9250 O   0  0  0  0  0  0  0  0  0  0  0  0
   37.2099    6.7717    6.7688 C   0  0  2  0  0  0  0  0  0  0  0  0
   37.1451    7.9289    5.7586 C   0  0  1  0  0  0  0  0  0  0  0  0
   37.8768    9.1859    6.2997 C   0  0  2  0  0  0  0  0  0  0  0  0
   37.2745    9.6024    7.6220 C   0  0  1  0  0  0  0  0  0  0  0  0
   37.3814    8.4288    8.6243 C   0  0  1  0  0  0  0  0  0  0  0  0
   36.7510    8.7469    9.9783 C   0  0  0  0  0  0  0  0  0  0  0  0
   37.9936   10.7963    8.1130 N   0  0  0  0  0  0  0  0  0  0  0  0
   36.6948    7.2462    8.0743 O   0  0  0  0  0  0  0  0  0  0  0  0
   37.6961    7.4739    4.5142 O   0  0  0  0  0  0  0  0  0  0  0  0
   37.7328   10.2666    5.3678 O   0  0  0  0  0  0  0  0  0  0  0  0
   37.4563    9.7959   10.5866 O   0  0  0  0  0  0  0  0  0  0  0  0
   41.1391   -1.5285    8.5456 C   0  0  1  0  0  0  0  0  0  0  0  0
   41.9226   -1.5942    7.2159 C   0  0  1  0  0  0  0  0  0  0  0  0
   42.3601   -3.0440    6.8953 C   0  0  2  0  0  0  0  0  0  0  0  0
   43.2303   -3.5921    8.0325 C   0  0  1  0  0  0  0  0  0  0  0  0
   42.4431   -3.5664    9.3676 C   0  0  0  0  0  0  0  0  0  0  0  0
   42.0346   -2.1216    9.6734 C   0  0  2  0  0  0  0  0  0  0  0  0
   43.6357   -4.9818    7.7248 N   0  0  0  0  0  0  0  0  0  0  0  0
   41.3133   -2.1371   10.9432 N   0  0  0  0  0  0  0  0  0  0  0  0
   41.0761   -1.1202    6.1461 O   0  0  0  0  0  0  0  0  0  0  0  0
   43.1068   -3.0428    5.6596 O   0  0  0  0  0  0  0  0  0  0  0  0
  1  2  1  0  0  0  0
  1 12  1  6  0  0  0
  1 13  1  0  0  0  0
  2  3  1  0  0  0  0
  2 10  1  6  0  0  0
  4  3  1  6  0  0  0
  4  5  1  0  0  0  0
  4 14  1  0  0  0  0
  5  6  1  0  0  0  0
  5 13  1  1  0  0  0
  6  7  1  0  0  0  0
  6 15  1  1  0  0  0
  7  8  1  0  0  0  0
  7 11  1  1  0  0  0
  8 14  1  0  0  0  0
  8 16  1  6  0  0  0
  9 11  1  0  0  0  0
 17 16  1  1  0  0  0
 17 18  1  0  0  0  0
 17 24  1  0  0  0  0
 18 19  1  0  0  0  0
 18 25  1  6  0  0  0
 19 20  1  0  0  0  0
 19 26  1  6  0  0  0
 20 21  1  0  0  0  0
 20 23  1  1  0  0  0
 21 22  1  1  0  0  0
 21 24  1  0  0  0  0
 22 27  1  0  0  0  0
 28 12  1  1  0  0  0
 28 29  1  0  0  0  0
 28 33  1  0  0  0  0
 29 30  1  0  0  0  0
 29 36  1  6  0  0  0
 30 31  1  0  0  0  0
 30 37  1  6  0  0  0
 31 32  1  0  0  0  0
 31 34  1  6  0  0  0
 32 33  1  0  0  0  0
 33 35  1  1  0  0  0
M  END
>  <CHROM.1>
-77.80330875,149.09860131,-143.52016562,171.87861509,-64.03193462,152.25566567
39.51585384,3.35989118,8.14288644,0.08108326,-1.21857063,1.61599392

>  <Name>
1yrj_lig

>  <RI>
0

>  <Rbt.Current_Directory>
/home/itssahil/PROJECTS/Mol_Feturizer/New_Systems/rnas/1yrj

>  <Rbt.Executable>
rbdock ($Id: //depot/dev/client3/rdock/2013.1/src/exe/rbdock.cxx#4 $)

>  <Rbt.Library>
libRbt.so (2013.1, Build901 2013/11/27)

>  <Rbt.Parameter_File>
/export/apps/rDock/src/rDock_2013.1_src/data/scripts/dock_solv.prm

>  <Rbt.Receptor>
prm/pocket_docking_7.prm

>  <SCORE>
-25.8367

>  <SCORE.INTER>
-23.4199

>  <SCORE.INTER.CONST>
1

>  <SCORE.INTER.POLAR>
-1.80346

>  <SCORE.INTER.ROT>
6

>  <SCORE.INTER.SOLV>
13.0918

>  <SCORE.INTER.VDW>
-21.5657

>  <SCORE.INTER.norm>
-0.632971

>  <SCORE.INTRA>
-2.41683

>  <SCORE.INTRA.DIHEDRAL>
-5.14866

>  <SCORE.INTRA.DIHEDRAL.0>
15.6389

>  <SCORE.INTRA.POLAR>
0

>  <SCORE.INTRA.POLAR.0>
0

>  <SCORE.INTRA.REPUL>
0

>  <SCORE.INTRA.REPUL.0>
0

>  <SCORE.INTRA.SOLV>
1.88757

>  <SCORE.INTRA.SOLV.lig_0>
-90.9181

>  <SCORE.INTRA.VDW>
-0.786285

>  <SCORE.INTRA.VDW.0>
-3.14158

>  <SCORE.INTRA.norm>
-0.0653197

>  <SCORE.RESTR>
0

>  <SCORE.RESTR.CAVITY>
0

>  <SCORE.RESTR.norm>
0

>  <SCORE.SYSTEM>
0

>  <SCORE.SYSTEM.CONST>
0

>  <SCORE.SYSTEM.DIHEDRAL>
0

>  <SCORE.SYSTEM.SOLV>
0

>  <SCORE.SYSTEM.norm>
0

>  <SCORE.heavy>
37

>  <SCORE.norm>
-0.69829

>  <RMSD>
10.302

$$$$
1yrj_lig
 OpenBabel11021811423D
libRbt.so/2013.1/901 2013/11/27
 37 40  0  0  0  0  0  0  0  0999 V2000
   39.3225    0.8211    9.4181 C   0  0  1  0  0  0  0  0  0  0  0  0
   38.2036    1.1119    8.3987 C   0  0  1  0  0  0  0  0  0  0  0  0
   38.4634    2.4116    7.6204 C   0  0  0  0  0  0  0  0  0  0  0  0
   38.6660    3.5909    8.6072 C   0  0  1  0  0  0  0  0  0  0  0  0
   39.8250    3.2781    9.5726 C   0  0  1  0  0  0  0  0  0  0  0  0
   40.0192    4.5041   10.5611 C   0  0  1  0  0  0  0  0  0  0  0  0
   40.3276    5.7758    9.7543 C   0  0  1  0  0  0  0  0  0  0  0  0
   39.1589    6.0173    8.7682 C   0  0  2  0  0  0  0  0  0  0  0  0
   41.9326    7.0570   11.2672 C   0  0  0  0  0  0  0  0  0  0  0  0
   38.0052   -0.0092    7.4655 N   0  0  0  0  0  0  0  0  0  0  0  0
   40.5620    6.9261   10.6813 N   0  0  0  0  0  0  0  0  0  0  0  0
   40.5466    0.3603    8.8161 O   0  0  0  0  0  0  0  0  0  0  0  0
   39.5203    2.0114   10.2682 O   0  0  0  0  0  0  0  0  0  0  0  0
   38.9588    4.8617    7.9058 O   0  0  0  0  0  0  0  0  0  0  0  0
   38.8169    4.7342   11.2653 O   0  0  0  0  0  0  0  0  0  0  0  0
   39.3936    7.1504    7.9311 O   0  0  0  0  0  0  0  0  0  0  0  0
   38.4748    8.2412    8.1755 C   0  0  2  0  0  0  0  0  0  0  0  0
   37.0256    7.9178    7.7770 C   0  0  1  0  0  0  0  0  0  0  0  0
   36.8802    7.8066    6.2360 C   0  0  2  0  0  0  0  0  0  0  0  0
   37.3355    9.0912    5.5823 C   0  0  1  0  0  0  0  0  0  0  0  0
   38.8043    9.3732    5.9781 C   0  0  1  0  0  0  0  0  0  0  0  0
   39.3330   10.6831    5.3982 C   0  0  0  0  0  0  0  0  0  0  0  0
   37.1899    8.9532    4.1184 N   0  0  0  0  0  0  0  0  0  0  0  0
   38.9129    9.4538    7.4458 O   0  0  0  0  0  0  0  0  0  0  0  0
   36.6308    6.7122    8.4477 O   0  0  0  0  0  0  0  0  0  0  0  0
   35.5055    7.5795    5.8961 O   0  0  0  0  0  0  0  0  0  0  0  0
   38.6350   11.7598    5.9652 O   0  0  0  0  0  0  0  0  0  0  0  0
   41.7649   -0.0900    9.6082 C   0  0  1  0  0  0  0  0  0  0  0  0
   41.5842   -1.5952    9.9046 C   0  0  1  0  0  0  0  0  0  0  0  0
   42.8109   -2.1691   10.6542 C   0  0  2  0  0  0  0  0  0  0  0  0
   44.0801   -1.9581    9.8202 C   0  0  1  0  0  0  0  0  0  0  0  0
   44.2943   -0.4475    9.5461 C   0  0  0  0  0  0  0  0  0  0  0  0
   43.0772    0.0956    8.7901 C   0  0  2  0  0  0  0  0  0  0  0  0
   45.2502   -2.4989   10.5474 N   0  0  0  0  0  0  0  0  0  0  0  0
   43.3245    1.5123    8.5359 N   0  0  0  0  0  0  0  0  0  0  0  0
   40.4129   -1.7757   10.7301 O   0  0  0  0  0  0  0  0  0  0  0  0
   42.5997   -3.5790   10.8826 O   0  0  0  0  0  0  0  0  0  0  0  0
  1  2  1  0  0  0  0
  1 12  1  6  0  0  0
  1 13  1  0  0  0  0
  2  3  1  0  0  0  0
  2 10  1  6  0  0  0
  4  3  1  6  0  0  0
  4  5  1  0  0  0  0
  4 14  1  0  0  0  0
  5  6  1  0  0  0  0
  5 13  1  1  0  0  0
  6  7  1  0  0  0  0
  6 15  1  6  0  0  0
  7  8  1  0  0  0  0
  7 11  1  1  0  0  0
  8 14  1  0  0  0  0
  8 16  1  6  0  0  0
  9 11  1  0  0  0  0
 17 16  1  6  0  0  0
 17 18  1  0  0  0  0
 17 24  1  0  0  0  0
 18 19  1  0  0  0  0
 18 25  1  1  0  0  0
 19 20  1  0  0  0  0
 19 26  1  1  0  0  0
 20 21  1  0  0  0  0
 20 23  1  6  0  0  0
 21 22  1  6  0  0  0
 21 24  1  0  0  0  0
 22 27  1  0  0  0  0
 28 12  1  6  0  0  0
 28 29  1  0  0  0  0
 28 33  1  0  0  0  0
 29 30  1  0  0  0  0
 29 36  1  1  0  0  0
 30 31  1  0  0  0  0
 30 37  1  6  0  0  0
 31 32  1  0  0  0  0
 31 34  1  1  0  0  0
 32 33  1  0  0  0  0
 33 35  1  1  0  0  0
M  END
>  <CHROM.1>
-175.39541377,82.82334831,-113.65843595,-67.24381707,65.66820136,87.66787760
39.85436785,3.97543161,8.60983833,1.13540135,0.47992816,3.04259990

>  <Name>
1yrj_lig

>  <RI>
0

>  <Rbt.Current_Directory>
/home/itssahil/PROJECTS/Mol_Feturizer/New_Systems/rnas/1yrj

>  <Rbt.Executable>
rbdock ($Id: //depot/dev/client3/rdock/2013.1/src/exe/rbdock.cxx#4 $)

>  <Rbt.Library>
libRbt.so (2013.1, Build901 2013/11/27)

>  <Rbt.Parameter_File>
/export/apps/rDock/src/rDock_2013.1_src/data/scripts/dock_solv.prm

>  <Rbt.Receptor>
prm/pocket_docking_5.prm

>  <SCORE>
-28.0115

>  <SCORE.INTER>
-26.0204

>  <SCORE.INTER.CONST>
1

>  <SCORE.INTER.POLAR>
-2.40106

>  <SCORE.INTER.ROT>
6

>  <SCORE.INTER.SOLV>
21.2885

>  <SCORE.INTER.VDW>
-24.0395

>  <SCORE.INTER.norm>
-0.703253

>  <SCORE.INTRA>
-1.99112

>  <SCORE.INTRA.DIHEDRAL>
-4.54383

>  <SCORE.INTRA.DIHEDRAL.0>
15.6389

>  <SCORE.INTRA.POLAR>
0

>  <SCORE.INTRA.POLAR.0>
0

>  <SCORE.INTRA.REPUL>
0

>  <SCORE.INTRA.REPUL.0>
0

>  <SCORE.INTRA.SOLV>
-1.226

>  <SCORE.INTRA.SOLV.lig_0>
-90.9181

>  <SCORE.INTRA.VDW>
0.893796

>  <SCORE.INTRA.VDW.0>
-3.14158

>  <SCORE.INTRA.norm>
-0.0538141

>  <SCORE.RESTR>
0

>  <SCORE.RESTR.CAVITY>
0

>  <SCORE.RESTR.norm>
0

>  <SCORE.SYSTEM>
0

>  <SCORE.SYSTEM.CONST>
0

>  <SCORE.SYSTEM.DIHEDRAL>
0

>  <SCORE.SYSTEM.SOLV>
0

>  <SCORE.SYSTEM.norm>
0

>  <SCORE.heavy>
37

>  <SCORE.norm>
-0.757067

>  <RMSD>
10.307

$$$$
1yrj_lig
 OpenBabel11021811423D
libRbt.so/2013.1/901 2013/11/27
 37 40  0  0  0  0  0  0  0  0999 V2000
   39.9178    1.2006    9.8504 C   0  0  1  0  0  0  0  0  0  0  0  0
   38.5579    1.4229    9.1599 C   0  0  1  0  0  0  0  0  0  0  0  0
   38.5731    2.6647    8.2543 C   0  0  0  0  0  0  0  0  0  0  0  0
   39.0187    3.9092    9.0656 C   0  0  1  0  0  0  0  0  0  0  0  0
   40.4028    3.6610    9.6948 C   0  0  1  0  0  0  0  0  0  0  0  0
   40.8400    4.9522   10.5070 C   0  0  1  0  0  0  0  0  0  0  0  0
   40.8945    6.1641    9.5626 C   0  0  1  0  0  0  0  0  0  0  0  0
   39.4967    6.3396    8.9210 C   0  0  2  0  0  0  0  0  0  0  0  0
   40.3626    8.0294   11.2191 C   0  0  0  0  0  0  0  0  0  0  0  0
   38.1301    0.2402    8.3948 N   0  0  0  0  0  0  0  0  0  0  0  0
   41.3548    7.3753   10.3099 N   0  0  0  0  0  0  0  0  0  0  0  0
   40.9377    0.6959    8.9682 O   0  0  0  0  0  0  0  0  0  0  0  0
   40.3212    2.4465   10.5312 O   0  0  0  0  0  0  0  0  0  0  0  0
   39.0871    5.1274    8.2267 O   0  0  0  0  0  0  0  0  0  0  0  0
   39.8729    5.2339   11.4968 O   0  0  0  0  0  0  0  0  0  0  0  0
   39.4744    7.4111    7.9772 O   0  0  0  0  0  0  0  0  0  0  0  0
   38.4227    8.3725    8.2292 C   0  0  2  0  0  0  0  0  0  0  0  0
   37.0421    7.9077    7.7378 C   0  0  1  0  0  0  0  0  0  0  0  0
   36.9829    7.8704    6.1876 C   0  0  2  0  0  0  0  0  0  0  0  0
   37.3132    9.2348    5.6272 C   0  0  1  0  0  0  0  0  0  0  0  0
   38.7182    9.6609    6.1147 C   0  0  1  0  0  0  0  0  0  0  0  0
   39.1148   11.0547    5.6331 C   0  0  0  0  0  0  0  0  0  0  0  0
   37.2534    9.1664    4.1523 N   0  0  0  0  0  0  0  0  0  0  0  0
   38.7480    9.6680    7.5883 O   0  0  0  0  0  0  0  0  0  0  0  0
   36.7617    6.6276    8.3225 O   0  0  0  0  0  0  0  0  0  0  0  0
   35.6621    7.5063    5.7636 O   0  0  0  0  0  0  0  0  0  0  0  0
   40.2602   11.4786    6.3233 O   0  0  0  0  0  0  0  0  0  0  0  0
   42.2353    0.0616    9.4459 C   0  0  1  0  0  0  0  0  0  0  0  0
   41.9523   -1.4403    9.6699 C   0  0  1  0  0  0  0  0  0  0  0  0
   43.2355   -2.1940   10.0960 C   0  0  2  0  0  0  0  0  0  0  0  0
   44.3198   -2.0293    9.0245 C   0  0  1  0  0  0  0  0  0  0  0  0
   44.6405   -0.5272    8.8155 C   0  0  0  0  0  0  0  0  0  0  0  0
   43.3619    0.1956    8.3790 C   0  0  2  0  0  0  0  0  0  0  0  0
   45.5470   -2.7428    9.4433 N   0  0  0  0  0  0  0  0  0  0  0  0
   43.7085    1.5997    8.1757 N   0  0  0  0  0  0  0  0  0  0  0  0
   40.9648   -1.5833   10.7141 O   0  0  0  0  0  0  0  0  0  0  0  0
   42.9194   -3.5924   10.2669 O   0  0  0  0  0  0  0  0  0  0  0  0
  1  2  1  0  0  0  0
  1 12  1  6  0  0  0
  1 13  1  0  0  0  0
  2  3  1  0  0  0  0
  2 10  1  6  0  0  0
  4  3  1  6  0  0  0
  4  5  1  0  0  0  0
  4 14  1  0  0  0  0
  5  6  1  0  0  0  0
  5 13  1  1  0  0  0
  6  7  1  0  0  0  0
  6 15  1  1  0  0  0
  7  8  1  0  0  0  0
  7 11  1  1  0  0  0
  8 14  1  0  0  0  0
  8 16  1  6  0  0  0
  9 11  1  0  0  0  0
 17 16  1  6  0  0  0
 17 18  1  0  0  0  0
 17 24  1  0  0  0  0
 18 19  1  0  0  0  0
 18 25  1  1  0  0  0
 19 20  1  0  0  0  0
 19 26  1  1  0  0  0
 20 21  1  0  0  0  0
 20 23  1  6  0  0  0
 21 22  1  1  0  0  0
 21 24  1  0  0  0  0
 22 27  1  0  0  0  0
 28 12  1  6  0  0  0
 28 29  1  0  0  0  0
 28 33  1  0  0  0  0
 29 30  1  0  0  0  0
 29 36  1  1  0  0  0
 30 31  1  0  0  0  0
 30 37  1  6  0  0  0
 31 32  1  0  0  0  0
 31 34  1  1  0  0  0
 32 33  1  0  0  0  0
 33 35  1  1  0  0  0
M  END
>  <CHROM.1>
-163.69668315,-75.65953507,-126.92933712,-79.20136617,168.17285407,86.95038024
40.14781895,4.17778127,8.59964381,1.14518372,0.34470569,3.03606136

>  <Name>
1yrj_lig

>  <RI>
224

>  <Rbt.Current_Directory>
/home/itssahil/PROJECTS/Mol_Feturizer/New_Systems/rnas/1yrj

>  <Rbt.Executable>
rbdock ($Id: //depot/dev/client3/rdock/2013.1/src/exe/rbdock.cxx#4 $)

>  <Rbt.Library>
libRbt.so (2013.1, Build901 2013/11/27)

>  <Rbt.Parameter_File>
/export/apps/rDock/src/rDock_2013.1_src/data/scripts/dock_solv.prm

>  <Rbt.Receptor>
prm/pocket_docking_2.prm

>  <SCORE>
-20.4752

>  <SCORE.INTER>
-21.6339

>  <SCORE.INTER.CONST>
1

>  <SCORE.INTER.POLAR>
-1.84542

>  <SCORE.INTER.ROT>
6

>  <SCORE.INTER.SOLV>
19.9055

>  <SCORE.INTER.VDW>
-22.5064

>  <SCORE.INTER.norm>
-0.584701

>  <SCORE.INTRA>
0.351531

>  <SCORE.INTRA.DIHEDRAL>
-2.01926

>  <SCORE.INTRA.DIHEDRAL.0>
15.6389

>  <SCORE.INTRA.POLAR>
0

>  <SCORE.INTRA.POLAR.0>
0

>  <SCORE.INTRA.REPUL>
0

>  <SCORE.INTRA.REPUL.0>
0

>  <SCORE.INTRA.SOLV>
-1.40821

>  <SCORE.INTRA.SOLV.lig_0>
-90.9181

>  <SCORE.INTRA.VDW>
2.06527

>  <SCORE.INTRA.VDW.0>
-3.14158

>  <SCORE.INTRA.norm>
0.00950084

>  <SCORE.RESTR>
0.807214

>  <SCORE.RESTR.CAVITY>
0.807214

>  <SCORE.RESTR.norm>
0.0218166

>  <SCORE.SYSTEM>
0

>  <SCORE.SYSTEM.CONST>
0

>  <SCORE.SYSTEM.DIHEDRAL>
0

>  <SCORE.SYSTEM.SOLV>
0

>  <SCORE.SYSTEM.norm>
0

>  <SCORE.heavy>
37

>  <SCORE.norm>
-0.553384

>  <RMSD>
10.308

$$$$
1yrj_lig
 OpenBabel11021811423D
libRbt.so/2013.1/901 2013/11/27
 37 40  0  0  0  0  0  0  0  0999 V2000
   39.6773    0.3714    9.5305 C   0  0  1  0  0  0  0  0  0  0  0  0
   38.3622    0.3421    8.7275 C   0  0  1  0  0  0  0  0  0  0  0  0
   38.2951    1.4824    7.6991 C   0  0  0  0  0  0  0  0  0  0  0  0
   38.5109    2.8473    8.4036 C   0  0  1  0  0  0  0  0  0  0  0  0
   39.8584    2.8484    9.1502 C   0  0  1  0  0  0  0  0  0  0  0  0
   40.0600    4.2583    9.8500 C   0  0  1  0  0  0  0  0  0  0  0  0
   40.0388    5.3706    8.7891 C   0  0  1  0  0  0  0  0  0  0  0  0
   38.6880    5.2948    8.0368 C   0  0  2  0  0  0  0  0  0  0  0  0
   40.9428    7.7484    8.6004 C   0  0  0  0  0  0  0  0  0  0  0  0
   38.1522   -0.9549    8.0636 N   0  0  0  0  0  0  0  0  0  0  0  0
   40.2787    6.6985    9.4345 N   0  0  0  0  0  0  0  0  0  0  0  0
   40.8224   -0.0738    8.7797 O   0  0  0  0  0  0  0  0  0  0  0  0
   39.8621    1.7195   10.1025 O   0  0  0  0  0  0  0  0  0  0  0  0
   38.4939    3.9779    7.4476 O   0  0  0  0  0  0  0  0  0  0  0  0
   38.9863    4.5009   10.7349 O   0  0  0  0  0  0  0  0  0  0  0  0
   38.6085    6.2585    6.9859 O   0  0  0  0  0  0  0  0  0  0  0  0
   37.2809    6.8073    6.8132 C   0  0  2  0  0  0  0  0  0  0  0  0
   37.2243    7.9552    5.7921 C   0  0  1  0  0  0  0  0  0  0  0  0
   37.9507    9.2175    6.3280 C   0  0  2  0  0  0  0  0  0  0  0  0
   37.3368    9.6457    7.6412 C   0  0  1  0  0  0  0  0  0  0  0  0
   37.4356    8.4813    8.6550 C   0  0  1  0  0  0  0  0  0  0  0  0
   36.7933    8.8114   10.0005 C   0  0  0  0  0  0  0  0  0  0  0  0
   38.0511   10.8444    8.1274 N   0  0  0  0  0  0  0  0  0  0  0  0
   36.7543    7.2934    8.1099 O   0  0  0  0  0  0  0  0  0  0  0  0
   37.7862    7.4892    4.5567 O   0  0  0  0  0  0  0  0  0  0  0  0
   37.8142   10.2896    5.3851 O   0  0  0  0  0  0  0  0  0  0  0  0
   37.5056    9.8522   10.6148 O   0  0  0  0  0  0  0  0  0  0  0  0
   41.1524   -1.5365    8.5225 C   0  0  1  0  0  0  0  0  0  0  0  0
   42.0262   -1.5889    7.2498 C   0  0  1  0  0  0  0  0  0  0  0  0
   42.4743   -3.0374    6.9380 C   0  0  2  0  0  0  0  0  0  0  0  0
   43.2591   -3.6096    8.1244 C   0  0  1  0  0  0  0  0  0  0  0  0
   42.3810   -3.5972    9.4017 C   0  0  0  0  0  0  0  0  0  0  0  0
   41.9626   -2.1538    9.7006 C   0  0  2  0  0  0  0  0  0  0  0  0
   43.6748   -4.9979    7.8242 N   0  0  0  0  0  0  0  0  0  0  0  0
   41.1545   -2.1821   10.9168 N   0  0  0  0  0  0  0  0  0  0  0  0
   41.2598   -1.0920    6.1310 O   0  0  0  0  0  0  0  0  0  0  0  0
   43.3054   -3.0241    5.7574 O   0  0  0  0  0  0  0  0  0  0  0  0
  1  2  1  0  0  0  0
  1 12  1  6  0  0  0
  1 13  1  0  0  0  0
  2  3  1  0  0  0  0
  2 10  1  6  0  0  0
  4  3  1  6  0  0  0
  4  5  1  0  0  0  0
  4 14  1  0  0  0  0
  5  6  1  0  0  0  0
  5 13  1  1  0  0  0
  6  7  1  0  0  0  0
  6 15  1  1  0  0  0
  7  8  1  0  0  0  0
  7 11  1  1  0  0  0
  8 14  1  0  0  0  0
  8 16  1  6  0  0  0
  9 11  1  0  0  0  0
 17 16  1  1  0  0  0
 17 18  1  0  0  0  0
 17 24  1  0  0  0  0
 18 19  1  0  0  0  0
 18 25  1  6  0  0  0
 19 20  1  0  0  0  0
 19 26  1  6  0  0  0
 20 21  1  0  0  0  0
 20 23  1  1  0  0  0
 21 22  1  1  0  0  0
 21 24  1  0  0  0  0
 22 27  1  0  0  0  0
 28 12  1  1  0  0  0
 28 29  1  0  0  0  0
 28 33  1  0  0  0  0
 29 30  1  0  0  0  0
 29 36  1  6  0  0  0
 30 31  1  0  0  0  0
 30 37  1  6  0  0  0
 31 32  1  0  0  0  0
 31 34  1  6  0  0  0
 32 33  1  0  0  0  0
 33 35  1  1  0  0  0
M  END
>  <CHROM.1>
-78.99941336,150.80194103,-144.36355880,173.56227087,-64.94755935,156.20126939
39.55951703,3.37085684,8.16913128,0.15938721,-1.21820444,1.70054726

>  <Name>
1yrj_lig

>  <RI>
0

>  <Rbt.Current_Directory>
/home/itssahil/PROJECTS/Mol_Feturizer/New_Systems/rnas/1yrj

>  <Rbt.Executable>
rbdock ($Id: //depot/dev/client3/rdock/2013.1/src/exe/rbdock.cxx#4 $)

>  <Rbt.Library>
libRbt.so (2013.1, Build901 2013/11/27)

>  <Rbt.Parameter_File>
/export/apps/rDock/src/rDock_2013.1_src/data/scripts/dock_solv.prm

>  <Rbt.Receptor>
prm/pocket_docking_7.prm

>  <SCORE>
-25.7807

>  <SCORE.INTER>
-22.9711

>  <SCORE.INTER.CONST>
1

>  <SCORE.INTER.POLAR>
-1.72947

>  <SCORE.INTER.ROT>
6

>  <SCORE.INTER.SOLV>
12.8419

>  <SCORE.INTER.VDW>
-21.4298

>  <SCORE.INTER.norm>
-0.62084

>  <SCORE.INTRA>
-2.80962

>  <SCORE.INTRA.DIHEDRAL>
-5.98191

>  <SCORE.INTRA.DIHEDRAL.0>
15.6389

>  <SCORE.INTRA.POLAR>
0

>  <SCORE.INTRA.POLAR.0>
0

>  <SCORE.INTRA.REPUL>
0

>  <SCORE.INTRA.REPUL.0>
0

>  <SCORE.INTRA.SOLV>
1.84868

>  <SCORE.INTRA.SOLV.lig_0>
-90.9181

>  <SCORE.INTRA.VDW>
-0.743005

>  <SCORE.INTRA.VDW.0>
-3.14158

>  <SCORE.INTRA.norm>
-0.0759356

>  <SCORE.RESTR>
0

>  <SCORE.RESTR.CAVITY>
0

>  <SCORE.RESTR.norm>
0

>  <SCORE.SYSTEM>
0

>  <SCORE.SYSTEM.CONST>
0

>  <SCORE.SYSTEM.DIHEDRAL>
0

>  <SCORE.SYSTEM.SOLV>
0

>  <SCORE.SYSTEM.norm>
0

>  <SCORE.heavy>
37

>  <SCORE.norm>
-0.696775

>  <RMSD>
10.309

$$$$
1yrj_lig
 OpenBabel11021811423D
libRbt.so/2013.1/901 2013/11/27
 37 40  0  0  0  0  0  0  0  0999 V2000
   39.9021    0.0616    9.4070 C   0  0  1  0  0  0  0  0  0  0  0  0
   38.5918    0.0505    8.5955 C   0  0  1  0  0  0  0  0  0  0  0  0
   38.4953    1.2580    7.6495 C   0  0  0  0  0  0  0  0  0  0  0  0
   38.6676    2.5755    8.4496 C   0  0  1  0  0  0  0  0  0  0  0  0
   40.0112    2.5635    9.2030 C   0  0  1  0  0  0  0  0  0  0  0  0
   40.1679    3.9258   10.0015 C   0  0  1  0  0  0  0  0  0  0  0  0
   40.1183    5.1091    9.0213 C   0  0  1  0  0  0  0  0  0  0  0  0
   38.7735    5.0469    8.2570 C   0  0  2  0  0  0  0  0  0  0  0  0
   41.6481    6.6073   10.4075 C   0  0  0  0  0  0  0  0  0  0  0  0
   38.4232   -1.2021    7.8408 N   0  0  0  0  0  0  0  0  0  0  0  0
   40.3159    6.3946    9.7600 N   0  0  0  0  0  0  0  0  0  0  0  0
   41.0631   -0.2959    8.6340 O   0  0  0  0  0  0  0  0  0  0  0  0
   40.0443    1.3708   10.0735 O   0  0  0  0  0  0  0  0  0  0  0  0
   38.6212    3.7697    7.5753 O   0  0  0  0  0  0  0  0  0  0  0  0
   39.0838    4.0739   10.8944 O   0  0  0  0  0  0  0  0  0  0  0  0
   38.6700    6.0796    7.2760 O   0  0  0  0  0  0  0  0  0  0  0  0
   37.3264    6.5964    7.1301 C   0  0  2  0  0  0  0  0  0  0  0  0
   37.1895    7.6258    5.9965 C   0  0  1  0  0  0  0  0  0  0  0  0
   37.9298    8.9444    6.3453 C   0  0  2  0  0  0  0  0  0  0  0  0
   37.3932    9.5083    7.6410 C   0  0  1  0  0  0  0  0  0  0  0  0
   37.5720    8.4620    8.7664 C   0  0  1  0  0  0  0  0  0  0  0  0
   37.0106    8.9317   10.1066 C   0  0  0  0  0  0  0  0  0  0  0  0
   38.1192   10.7581    7.9482 N   0  0  0  0  0  0  0  0  0  0  0  0
   36.8751    7.2167    8.3975 O   0  0  0  0  0  0  0  0  0  0  0  0
   37.6796    7.0324    4.7854 O   0  0  0  0  0  0  0  0  0  0  0  0
   37.7191    9.9064    5.3027 O   0  0  0  0  0  0  0  0  0  0  0  0
   37.7332   10.0496   10.5492 O   0  0  0  0  0  0  0  0  0  0  0  0
   41.9863   -1.4557    8.9759 C   0  0  1  0  0  0  0  0  0  0  0  0
   42.9296   -1.6574    7.7695 C   0  0  1  0  0  0  0  0  0  0  0  0
   43.9598   -2.7791    8.0462 C   0  0  2  0  0  0  0  0  0  0  0  0
   44.7848   -2.4368    9.2925 C   0  0  1  0  0  0  0  0  0  0  0  0
   43.8534   -2.2677   10.5199 C   0  0  0  0  0  0  0  0  0  0  0  0
   42.8536   -1.1430   10.2311 C   0  0  2  0  0  0  0  0  0  0  0  0
   45.7598   -3.5182    9.5576 N   0  0  0  0  0  0  0  0  0  0  0  0
   42.0086   -1.0030   11.4140 N   0  0  0  0  0  0  0  0  0  0  0  0
   42.1452   -2.0258    6.6141 O   0  0  0  0  0  0  0  0  0  0  0  0
   44.8282   -2.9073    6.8999 O   0  0  0  0  0  0  0  0  0  0  0  0
  1  2  1  0  0  0  0
  1 12  1  6  0  0  0
  1 13  1  0  0  0  0
  2  3  1  0  0  0  0
  2 10  1  6  0  0  0
  4  3  1  6  0  0  0
  4  5  1  0  0  0  0
  4 14  1  0  0  0  0
  5  6  1  0  0  0  0
  5 13  1  1  0  0  0
  6  7  1  0  0  0  0
  6 15  1  1  0  0  0
  7  8  1  0  0  0  0
  7 11  1  1  0  0  0
  8 14  1  0  0  0  0
  8 16  1  6  0  0  0
  9 11  1  0  0  0  0
 17 16  1  1  0  0  0
 17 18  1  0  0  0  0
 17 24  1  0  0  0  0
 18 19  1  0  0  0  0
 18 25  1  6  0  0  0
 19 20  1  0  0  0  0
 19 26  1  6  0  0  0
 20 21  1  0  0  0  0
 20 23  1  1  0  0  0
 21 22  1  1  0  0  0
 21 24  1  0  0  0  0
 22 27  1  0  0  0  0
 28 12  1  6  0  0  0
 28 29  1  0  0  0  0
 28 33  1  0  0  0  0
 29 30  1  0  0  0  0
 29 36  1  6  0  0  0
 30 31  1  0  0  0  0
 30 37  1  6  0  0  0
 31 32  1  0  0  0  0
 31 34  1  1  0  0  0
 32 33  1  0  0  0  0
 33 35  1  1  0  0  0
M  END
>  <CHROM.1>
-122.19043344,65.25858230,-144.59899922,-175.29785744,-64.14888644,169.49298079
39.98866560,3.32297740,8.50404131,0.64700787,0.98273217,-2.40508974

>  <Name>
1yrj_lig

>  <RI>
0

>  <Rbt.Current_Directory>
/home/itssahil/PROJECTS/Mol_Feturizer/New_Systems/rnas/1yrj

>  <Rbt.Executable>
rbdock ($Id: //depot/dev/client3/rdock/2013.1/src/exe/rbdock.cxx#4 $)

>  <Rbt.Library>
libRbt.so (2013.1, Build901 2013/11/27)

>  <Rbt.Parameter_File>
/export/apps/rDock/src/rDock_2013.1_src/data/scripts/dock_solv.prm

>  <Rbt.Receptor>
prm/pocket_docking_3.prm

>  <SCORE>
-20.8928

>  <SCORE.INTER>
-20.2356

>  <SCORE.INTER.CONST>
1

>  <SCORE.INTER.POLAR>
-1.54201

>  <SCORE.INTER.ROT>
6

>  <SCORE.INTER.SOLV>
13.5688

>  <SCORE.INTER.VDW>
-20.4733

>  <SCORE.INTER.norm>
-0.546909

>  <SCORE.INTRA>
-0.957412

>  <SCORE.INTRA.DIHEDRAL>
-3.18182

>  <SCORE.INTRA.DIHEDRAL.0>
15.6389

>  <SCORE.INTRA.POLAR>
0

>  <SCORE.INTRA.POLAR.0>
0

>  <SCORE.INTRA.REPUL>
0

>  <SCORE.INTRA.REPUL.0>
0

>  <SCORE.INTRA.SOLV>
0.48783

>  <SCORE.INTRA.SOLV.lig_0>
-90.9181

>  <SCORE.INTRA.VDW>
0.389584

>  <SCORE.INTRA.VDW.0>
-3.14158

>  <SCORE.INTRA.norm>
-0.025876

>  <SCORE.RESTR>
0.300213

>  <SCORE.RESTR.CAVITY>
0.300213

>  <SCORE.RESTR.norm>
0.00811386

>  <SCORE.SYSTEM>
0

>  <SCORE.SYSTEM.CONST>
0

>  <SCORE.SYSTEM.DIHEDRAL>
0

>  <SCORE.SYSTEM.SOLV>
0

>  <SCORE.SYSTEM.norm>
0

>  <SCORE.heavy>
37

>  <SCORE.norm>
-0.564671

>  <RMSD>
10.317

$$$$
1yrj_lig
 OpenBabel11021811423D
libRbt.so/2013.1/901 2013/11/27
 37 40  0  0  0  0  0  0  0  0999 V2000
   39.2598    0.0544    9.8146 C   0  0  1  0  0  0  0  0  0  0  0  0
   38.1778    0.0656    8.7171 C   0  0  1  0  0  0  0  0  0  0  0  0
   38.4667    1.1242    7.6408 C   0  0  0  0  0  0  0  0  0  0  0  0
   38.6363    2.5186    8.2983 C   0  0  1  0  0  0  0  0  0  0  0  0
   39.7603    2.4726    9.3508 C   0  0  1  0  0  0  0  0  0  0  0  0
   39.9216    3.9125    9.9977 C   0  0  1  0  0  0  0  0  0  0  0  0
   40.2599    4.9371    8.9027 C   0  0  1  0  0  0  0  0  0  0  0  0
   39.1269    4.9088    7.8482 C   0  0  2  0  0  0  0  0  0  0  0  0
   41.0086    7.3590    8.6192 C   0  0  0  0  0  0  0  0  0  0  0  0
   38.0106   -1.2587    8.0965 N   0  0  0  0  0  0  0  0  0  0  0  0
   40.4634    6.2884    9.5111 N   0  0  0  0  0  0  0  0  0  0  0  0
   40.5036   -0.5361    9.3934 O   0  0  0  0  0  0  0  0  0  0  0  0
   39.4295    1.4244   10.3372 O   0  0  0  0  0  0  0  0  0  0  0  0
   38.9554    3.5693    7.3048 O   0  0  0  0  0  0  0  0  0  0  0  0
   38.6956    4.3064   10.5777 O   0  0  0  0  0  0  0  0  0  0  0  0
   39.3924    5.7911    6.7571 O   0  0  0  0  0  0  0  0  0  0  0  0
   38.2293    6.0512    5.9366 C   0  0  2  0  0  0  0  0  0  0  0  0
   38.5642    6.7524    4.6100 C   0  0  1  0  0  0  0  0  0  0  0  0
   39.0335    8.2118    4.8512 C   0  0  2  0  0  0  0  0  0  0  0  0
   37.9678    8.9776    5.6012 C   0  0  1  0  0  0  0  0  0  0  0  0
   37.6748    8.2646    6.9425 C   0  0  1  0  0  0  0  0  0  0  0  0
   36.5707    8.9466    7.7472 C   0  0  0  0  0  0  0  0  0  0  0  0
   38.4448   10.3591    5.8194 N   0  0  0  0  0  0  0  0  0  0  0  0
   37.2508    6.8773    6.6814 O   0  0  0  0  0  0  0  0  0  0  0  0
   39.5523    5.9712    3.9227 O   0  0  0  0  0  0  0  0  0  0  0  0
   39.2647    8.8586    3.5921 O   0  0  0  0  0  0  0  0  0  0  0  0
   37.0673   10.1319    8.3097 O   0  0  0  0  0  0  0  0  0  0  0  0
   40.7232   -2.0336    9.2396 C   0  0  1  0  0  0  0  0  0  0  0  0
   41.3597   -2.2600    7.8505 C   0  0  1  0  0  0  0  0  0  0  0  0
   41.6867   -3.7556    7.6218 C   0  0  2  0  0  0  0  0  0  0  0  0
   42.6414   -4.2556    8.7125 C   0  0  1  0  0  0  0  0  0  0  0  0
   41.9996   -4.0684   10.1111 C   0  0  0  0  0  0  0  0  0  0  0  0
   41.6995   -2.5808   10.3226 C   0  0  2  0  0  0  0  0  0  0  0  0
   42.9409   -5.6885    8.4944 N   0  0  0  0  0  0  0  0  0  0  0  0
   41.1145   -2.4440   11.6537 N   0  0  0  0  0  0  0  0  0  0  0  0
   40.4318   -1.8293    6.8309 O   0  0  0  0  0  0  0  0  0  0  0  0
   42.2999   -3.9053    6.3233 O   0  0  0  0  0  0  0  0  0  0  0  0
  1  2  1  0  0  0  0
  1 12  1  6  0  0  0
  1 13  1  0  0  0  0
  2  3  1  0  0  0  0
  2 10  1  6  0  0  0
  4  3  1  6  0  0  0
  4  5  1  0  0  0  0
  4 14  1  0  0  0  0
  5  6  1  0  0  0  0
  5 13  1  1  0  0  0
  6  7  1  0  0  0  0
  6 15  1  6  0  0  0
  7  8  1  0  0  0  0
  7 11  1  1  0  0  0
  8 14  1  0  0  0  0
  8 16  1  6  0  0  0
  9 11  1  0  0  0  0
 17 16  1  1  0  0  0
 17 18  1  0  0  0  0
 17 24  1  0  0  0  0
 18 19  1  0  0  0  0
 18 25  1  1  0  0  0
 19 20  1  0  0  0  0
 19 26  1  6  0  0  0
 20 21  1  0  0  0  0
 20 23  1  1  0  0  0
 21 22  1  6  0  0  0
 21 24  1  0  0  0  0
 22 27  1  0  0  0  0
 28 12  1  1  0  0  0
 28 29  1  0  0  0  0
 28 33  1  0  0  0  0
 29 30  1  0  0  0  0
 29 36  1  6  0  0  0
 30 31  1  0  0  0  0
 30 37  1  6  0  0  0
 31 32  1  0  0  0  0
 31 34  1  6  0  0  0
 32 33  1  0  0  0  0
 33 35  1  1  0  0  0
M  END
>  <CHROM.1>
-75.74070753,170.69427996,-165.16121510,-167.99175603,-74.11687991,130.47588031
39.62635849,2.85423845,7.87588402,0.57699836,-1.27035357,1.95312547

>  <Name>
1yrj_lig

>  <RI>
0

>  <Rbt.Current_Directory>
/home/itssahil/PROJECTS/Mol_Feturizer/New_Systems/rnas/1yrj

>  <Rbt.Executable>
rbdock ($Id: //depot/dev/client3/rdock/2013.1/src/exe/rbdock.cxx#4 $)

>  <Rbt.Library>
libRbt.so (2013.1, Build901 2013/11/27)

>  <Rbt.Parameter_File>
/export/apps/rDock/src/rDock_2013.1_src/data/scripts/dock_solv.prm

>  <Rbt.Receptor>
prm/pocket_docking_4.prm

>  <SCORE>
-24.2344

>  <SCORE.INTER>
-22.3016

>  <SCORE.INTER.CONST>
1

>  <SCORE.INTER.POLAR>
-2.17323

>  <SCORE.INTER.ROT>
6

>  <SCORE.INTER.SOLV>
14.7314

>  <SCORE.INTER.VDW>
-20.1341

>  <SCORE.INTER.norm>
-0.602745

>  <SCORE.INTRA>
-1.93284

>  <SCORE.INTRA.DIHEDRAL>
-5.26708

>  <SCORE.INTRA.DIHEDRAL.0>
15.6389

>  <SCORE.INTRA.POLAR>
0

>  <SCORE.INTRA.POLAR.0>
0

>  <SCORE.INTRA.REPUL>
0

>  <SCORE.INTRA.REPUL.0>
0

>  <SCORE.INTRA.SOLV>
1.18972

>  <SCORE.INTRA.SOLV.lig_0>
-90.9181

>  <SCORE.INTRA.VDW>
0.105845

>  <SCORE.INTRA.VDW.0>
-3.14158

>  <SCORE.INTRA.norm>
-0.0522388

>  <SCORE.RESTR>
0

>  <SCORE.RESTR.CAVITY>
0

>  <SCORE.RESTR.norm>
0

>  <SCORE.SYSTEM>
0

>  <SCORE.SYSTEM.CONST>
0

>  <SCORE.SYSTEM.DIHEDRAL>
0

>  <SCORE.SYSTEM.SOLV>
0

>  <SCORE.SYSTEM.norm>
0

>  <SCORE.heavy>
37

>  <SCORE.norm>
-0.654984

>  <RMSD>
10.317

$$$$
1yrj_lig
 OpenBabel11021811423D
libRbt.so/2013.1/901 2013/11/27
 37 40  0  0  0  0  0  0  0  0999 V2000
   39.5449    0.3346    9.5110 C   0  0  1  0  0  0  0  0  0  0  0  0
   38.2212    0.3427    8.7216 C   0  0  1  0  0  0  0  0  0  0  0  0
   38.1741    1.4873    7.6969 C   0  0  0  0  0  0  0  0  0  0  0  0
   38.4336    2.8439    8.4025 C   0  0  1  0  0  0  0  0  0  0  0  0
   39.7882    2.8070    9.1351 C   0  0  1  0  0  0  0  0  0  0  0  0
   40.0347    4.2090    9.8363 C   0  0  1  0  0  0  0  0  0  0  0  0
   40.0324    5.3244    8.7785 C   0  0  1  0  0  0  0  0  0  0  0  0
   38.6723    5.2868    8.0401 C   0  0  2  0  0  0  0  0  0  0  0  0
   40.9586    7.6923    8.5736 C   0  0  0  0  0  0  0  0  0  0  0  0
   37.9698   -0.9464    8.0567 N   0  0  0  0  0  0  0  0  0  0  0  0
   40.3144    6.6436    9.4247 N   0  0  0  0  0  0  0  0  0  0  0  0
   40.6699   -0.1390    8.7473 O   0  0  0  0  0  0  0  0  0  0  0  0
   39.7715    1.6757   10.0844 O   0  0  0  0  0  0  0  0  0  0  0  0
   38.4371    3.9773    7.4495 O   0  0  0  0  0  0  0  0  0  0  0  0
   38.9771    4.4777   10.7329 O   0  0  0  0  0  0  0  0  0  0  0  0
   38.6079    6.2553    6.9925 O   0  0  0  0  0  0  0  0  0  0  0  0
   37.2853    6.8133    6.8110 C   0  0  2  0  0  0  0  0  0  0  0  0
   37.2414    7.9537    5.7808 C   0  0  1  0  0  0  0  0  0  0  0  0
   37.9761    9.2143    6.3095 C   0  0  2  0  0  0  0  0  0  0  0  0
   37.3611    9.6575    7.6172 C   0  0  1  0  0  0  0  0  0  0  0  0
   37.4471    8.5002    8.6403 C   0  0  1  0  0  0  0  0  0  0  0  0
   36.8029    8.8458    9.9810 C   0  0  0  0  0  0  0  0  0  0  0  0
   38.0833   10.8541    8.0967 N   0  0  0  0  0  0  0  0  0  0  0  0
   36.7582    7.3136    8.1020 O   0  0  0  0  0  0  0  0  0  0  0  0
   37.8039    7.4737    4.5510 O   0  0  0  0  0  0  0  0  0  0  0  0
   37.8515   10.2801    5.3579 O   0  0  0  0  0  0  0  0  0  0  0  0
   37.5320    9.8732   10.5980 O   0  0  0  0  0  0  0  0  0  0  0  0
   40.9733   -1.6101    8.5062 C   0  0  1  0  0  0  0  0  0  0  0  0
   41.7720   -1.6998    7.1871 C   0  0  1  0  0  0  0  0  0  0  0  0
   42.1904   -3.1591    6.8845 C   0  0  2  0  0  0  0  0  0  0  0  0
   43.0377   -3.7107    8.0372 C   0  0  1  0  0  0  0  0  0  0  0  0
   42.2345   -3.6610    9.3620 C   0  0  0  0  0  0  0  0  0  0  0  0
   41.8452   -2.2073    9.6502 C   0  0  2  0  0  0  0  0  0  0  0  0
   43.4248   -5.1094    7.7465 N   0  0  0  0  0  0  0  0  0  0  0  0
   41.1081   -2.2002   10.9110 N   0  0  0  0  0  0  0  0  0  0  0  0
   40.9464   -1.2221    6.1026 O   0  0  0  0  0  0  0  0  0  0  0  0
   42.9523   -3.1806    5.6582 O   0  0  0  0  0  0  0  0  0  0  0  0
  1  2  1  0  0  0  0
  1 12  1  6  0  0  0
  1 13  1  0  0  0  0
  2  3  1  0  0  0  0
  2 10  1  6  0  0  0
  4  3  1  6  0  0  0
  4  5  1  0  0  0  0
  4 14  1  0  0  0  0
  5  6  1  0  0  0  0
  5 13  1  1  0  0  0
  6  7  1  0  0  0  0
  6 15  1  1  0  0  0
  7  8  1  0  0  0  0
  7 11  1  1  0  0  0
  8 14  1  0  0  0  0
  8 16  1  6  0  0  0
  9 11  1  0  0  0  0
 17 16  1  1  0  0  0
 17 18  1  0  0  0  0
 17 24  1  0  0  0  0
 18 19  1  0  0  0  0
 18 25  1  6  0  0  0
 19 20  1  0  0  0  0
 19 26  1  6  0  0  0
 20 21  1  0  0  0  0
 20 23  1  1  0  0  0
 21 22  1  1  0  0  0
 21 24  1  0  0  0  0
 22 27  1  0  0  0  0
 28 12  1  1  0  0  0
 28 29  1  0  0  0  0
 28 33  1  0  0  0  0
 29 30  1  0  0  0  0
 29 36  1  6  0  0  0
 30 31  1  0  0  0  0
 30 37  1  6  0  0  0
 31 32  1  0  0  0  0
 31 34  1  6  0  0  0
 32 33  1  0  0  0  0
 33 35  1  1  0  0  0
M  END
>  <CHROM.1>
-80.26586246,152.67975480,-145.94938233,174.29860161,-65.74123574,153.82297556
39.47912675,3.33653483,8.14621927,0.08008889,-1.24252451,1.61923762

>  <Name>
1yrj_lig

>  <RI>
0

>  <Rbt.Current_Directory>
/home/itssahil/PROJECTS/Mol_Feturizer/New_Systems/rnas/1yrj

>  <Rbt.Executable>
rbdock ($Id: //depot/dev/client3/rdock/2013.1/src/exe/rbdock.cxx#4 $)

>  <Rbt.Library>
libRbt.so (2013.1, Build901 2013/11/27)

>  <Rbt.Parameter_File>
/export/apps/rDock/src/rDock_2013.1_src/data/scripts/dock_solv.prm

>  <Rbt.Receptor>
prm/pocket_docking_5.prm

>  <SCORE>
-25.8138

>  <SCORE.INTER>
-23.0817

>  <SCORE.INTER.CONST>
1

>  <SCORE.INTER.POLAR>
-1.71737

>  <SCORE.INTER.ROT>
6

>  <SCORE.INTER.SOLV>
12.8899

>  <SCORE.INTER.VDW>
-21.5598

>  <SCORE.INTER.norm>
-0.623829

>  <SCORE.INTRA>
-2.7321

>  <SCORE.INTRA.DIHEDRAL>
-5.70961

>  <SCORE.INTRA.DIHEDRAL.0>
15.6389

>  <SCORE.INTRA.POLAR>
0

>  <SCORE.INTRA.POLAR.0>
0

>  <SCORE.INTRA.REPUL>
0

>  <SCORE.INTRA.REPUL.0>
0

>  <SCORE.INTRA.SOLV>
1.63682

>  <SCORE.INTRA.SOLV.lig_0>
-90.9181

>  <SCORE.INTRA.VDW>
-0.695699

>  <SCORE.INTRA.VDW.0>
-3.14158

>  <SCORE.INTRA.norm>
-0.0738404

>  <SCORE.RESTR>
0

>  <SCORE.RESTR.CAVITY>
0

>  <SCORE.RESTR.norm>
0

>  <SCORE.SYSTEM>
0

>  <SCORE.SYSTEM.CONST>
0

>  <SCORE.SYSTEM.DIHEDRAL>
0

>  <SCORE.SYSTEM.SOLV>
0

>  <SCORE.SYSTEM.norm>
0

>  <SCORE.heavy>
37

>  <SCORE.norm>
-0.697669

>  <RMSD>
10.317

$$$$
1yrj_lig
 OpenBabel11021811423D
libRbt.so/2013.1/901 2013/11/27
 37 40  0  0  0  0  0  0  0  0999 V2000
   39.5269    0.2972    9.4223 C   0  0  1  0  0  0  0  0  0  0  0  0
   38.2062    0.3265    8.6283 C   0  0  1  0  0  0  0  0  0  0  0  0
   38.1677    1.4911    7.6261 C   0  0  0  0  0  0  0  0  0  0  0  0
   38.4303    2.8325    8.3592 C   0  0  1  0  0  0  0  0  0  0  0  0
   39.7820    2.7754    9.0958 C   0  0  1  0  0  0  0  0  0  0  0  0
   40.0318    4.1623    9.8253 C   0  0  1  0  0  0  0  0  0  0  0  0
   40.0380    5.2984    8.7895 C   0  0  1  0  0  0  0  0  0  0  0  0
   38.6806    5.2810    8.0456 C   0  0  2  0  0  0  0  0  0  0  0  0
   41.0327    7.6433    8.6538 C   0  0  0  0  0  0  0  0  0  0  0  0
   37.9518   -0.9482    7.9373 N   0  0  0  0  0  0  0  0  0  0  0  0
   40.3231    6.6034    9.4626 N   0  0  0  0  0  0  0  0  0  0  0  0
   40.6527   -0.1661    8.6534 O   0  0  0  0  0  0  0  0  0  0  0  0
   39.7570    1.6258   10.0227 O   0  0  0  0  0  0  0  0  0  0  0  0
   38.4420    3.9843    7.4286 O   0  0  0  0  0  0  0  0  0  0  0  0
   38.9720    4.4179   10.7231 O   0  0  0  0  0  0  0  0  0  0  0  0
   38.6241    6.2701    7.0170 O   0  0  0  0  0  0  0  0  0  0  0  0
   37.2971    6.8111    6.8170 C   0  0  2  0  0  0  0  0  0  0  0  0
   37.2583    7.9730    5.8109 C   0  0  1  0  0  0  0  0  0  0  0  0
   37.9601    9.2331    6.3836 C   0  0  2  0  0  0  0  0  0  0  0  0
   37.3083    9.6377    7.6860 C   0  0  1  0  0  0  0  0  0  0  0  0
   37.3897    8.4598    8.6856 C   0  0  1  0  0  0  0  0  0  0  0  0
   36.7095    8.7656   10.0181 C   0  0  0  0  0  0  0  0  0  0  0  0
   37.9999   10.8348    8.2078 N   0  0  0  0  0  0  0  0  0  0  0  0
   36.7326    7.2746    8.1059 O   0  0  0  0  0  0  0  0  0  0  0  0
   37.8563    7.5290    4.5844 O   0  0  0  0  0  0  0  0  0  0  0  0
   37.8400   10.3174    5.4526 O   0  0  0  0  0  0  0  0  0  0  0  0
   37.3859    9.8153   10.6572 O   0  0  0  0  0  0  0  0  0  0  0  0
   40.9760   -1.6345    8.4220 C   0  0  1  0  0  0  0  0  0  0  0  0
   40.3983   -2.4218    9.6189 C   0  0  1  0  0  0  0  0  0  0  0  0
   40.6172   -3.9443    9.4452 C   0  0  2  0  0  0  0  0  0  0  0  0
   39.9563   -4.4237    8.1473 C   0  0  1  0  0  0  0  0  0  0  0  0
   40.5532   -3.6676    6.9329 C   0  0  0  0  0  0  0  0  0  0  0  0
   40.3113   -2.1658    7.1175 C   0  0  2  0  0  0  0  0  0  0  0  0
   40.1789   -5.8775    7.9819 N   0  0  0  0  0  0  0  0  0  0  0  0
   40.8703   -1.4921    5.9485 N   0  0  0  0  0  0  0  0  0  0  0  0
   41.0623   -1.9951   10.8284 O   0  0  0  0  0  0  0  0  0  0  0  0
   40.0381   -4.6303   10.5760 O   0  0  0  0  0  0  0  0  0  0  0  0
  1  2  1  0  0  0  0
  1 12  1  6  0  0  0
  1 13  1  0  0  0  0
  2  3  1  0  0  0  0
  2 10  1  6  0  0  0
  4  3  1  6  0  0  0
  4  5  1  0  0  0  0
  4 14  1  0  0  0  0
  5  6  1  0  0  0  0
  5 13  1  1  0  0  0
  6  7  1  0  0  0  0
  6 15  1  1  0  0  0
  7  8  1  0  0  0  0
  7 11  1  1  0  0  0
  8 14  1  0  0  0  0
  8 16  1  6  0  0  0
  9 11  1  0  0  0  0
 17 16  1  1  0  0  0
 17 18  1  0  0  0  0
 17 24  1  0  0  0  0
 18 19  1  0  0  0  0
 18 25  1  6  0  0  0
 19 20  1  0  0  0  0
 19 26  1  6  0  0  0
 20 21  1  0  0  0  0
 20 23  1  1  0  0  0
 21 22  1  1  0  0  0
 21 24  1  0  0  0  0
 22 27  1  0  0  0  0
 28 12  1  1  0  0  0
 28 29  1  0  0  0  0
 28 33  1  0  0  0  0
 29 30  1  0  0  0  0
 29 36  1  1  0  0  0
 30 31  1  0  0  0  0
 30 37  1  1  0  0  0
 31 32  1  0  0  0  0
 31 34  1  6  0  0  0
 32 33  1  0  0  0  0
 33 35  1  6  0  0  0
M  END
>  <CHROM.1>
-82.31061936,149.88875842,-147.53112316,174.23613801,-64.14388430,-27.01281116
39.05742542,3.19858100,8.31313094,-0.68792112,-1.31448647,0.78572427

>  <Name>
1yrj_lig

>  <RI>
0

>  <Rbt.Current_Directory>
/home/itssahil/PROJECTS/Mol_Feturizer/New_Systems/rnas/1yrj

>  <Rbt.Executable>
rbdock ($Id: //depot/dev/client3/rdock/2013.1/src/exe/rbdock.cxx#4 $)

>  <Rbt.Library>
libRbt.so (2013.1, Build901 2013/11/27)

>  <Rbt.Parameter_File>
/export/apps/rDock/src/rDock_2013.1_src/data/scripts/dock_solv.prm

>  <Rbt.Receptor>
prm/pocket_docking_4.prm

>  <SCORE>
-20.4732

>  <SCORE.INTER>
-20.4658

>  <SCORE.INTER.CONST>
1

>  <SCORE.INTER.POLAR>
-1.25917

>  <SCORE.INTER.ROT>
6

>  <SCORE.INTER.SOLV>
12.1154

>  <SCORE.INTER.VDW>
-21.0851

>  <SCORE.INTER.norm>
-0.553129

>  <SCORE.INTRA>
-0.00742084

>  <SCORE.INTRA.DIHEDRAL>
-4.35427

>  <SCORE.INTRA.DIHEDRAL.0>
15.6389

>  <SCORE.INTRA.POLAR>
0

>  <SCORE.INTRA.POLAR.0>
0

>  <SCORE.INTRA.REPUL>
0

>  <SCORE.INTRA.REPUL.0>
0

>  <SCORE.INTRA.SOLV>
4.11596

>  <SCORE.INTRA.SOLV.lig_0>
-90.9181

>  <SCORE.INTRA.VDW>
0.111737

>  <SCORE.INTRA.VDW.0>
-3.14158

>  <SCORE.INTRA.norm>
-0.000200563

>  <SCORE.RESTR>
0

>  <SCORE.RESTR.CAVITY>
0

>  <SCORE.RESTR.norm>
0

>  <SCORE.SYSTEM>
0

>  <SCORE.SYSTEM.CONST>
0

>  <SCORE.SYSTEM.DIHEDRAL>
0

>  <SCORE.SYSTEM.SOLV>
0

>  <SCORE.SYSTEM.norm>
0

>  <SCORE.heavy>
37

>  <SCORE.norm>
-0.55333

>  <RMSD>
10.322

$$$$
1yrj_lig
 OpenBabel11021811423D
libRbt.so/2013.1/901 2013/11/27
 37 40  0  0  0  0  0  0  0  0999 V2000
   39.5420    0.1246    9.2569 C   0  0  1  0  0  0  0  0  0  0  0  0
   38.2803    0.3238    8.3943 C   0  0  1  0  0  0  0  0  0  0  0  0
   38.3582    1.6100    7.5565 C   0  0  0  0  0  0  0  0  0  0  0  0
   38.6264    2.8291    8.4772 C   0  0  1  0  0  0  0  0  0  0  0  0
   39.9217    2.6082    9.2813 C   0  0  1  0  0  0  0  0  0  0  0  0
   40.1792    3.8735   10.2037 C   0  0  1  0  0  0  0  0  0  0  0  0
   40.3028    5.1334    9.3316 C   0  0  1  0  0  0  0  0  0  0  0  0
   38.9991    5.2819    8.5101 C   0  0  2  0  0  0  0  0  0  0  0  0
   41.8870    6.3128   10.9459 C   0  0  0  0  0  0  0  0  0  0  0  0
   38.0203   -0.8351    7.5247 N   0  0  0  0  0  0  0  0  0  0  0  0
   40.5959    6.3232   10.1895 N   0  0  0  0  0  0  0  0  0  0  0  0
   40.6969   -0.2901    8.5036 O   0  0  0  0  0  0  0  0  0  0  0  0
   39.7862    1.3500   10.0427 O   0  0  0  0  0  0  0  0  0  0  0  0
   38.7490    4.0907    7.7117 O   0  0  0  0  0  0  0  0  0  0  0  0
   39.0727    4.0624   11.0608 O   0  0  0  0  0  0  0  0  0  0  0  0
   39.0536    6.3986    7.6216 O   0  0  0  0  0  0  0  0  0  0  0  0
   37.7469    6.8797    7.2280 C   0  0  2  0  0  0  0  0  0  0  0  0
   37.7216    7.4878    5.8162 C   0  0  1  0  0  0  0  0  0  0  0  0
   38.5071    8.8253    5.7685 C   0  0  2  0  0  0  0  0  0  0  0  0
   37.9316    9.7960    6.7741 C   0  0  1  0  0  0  0  0  0  0  0  0
   37.9984    9.1681    8.1864 C   0  0  1  0  0  0  0  0  0  0  0  0
   37.3910   10.0650    9.2628 C   0  0  0  0  0  0  0  0  0  0  0  0
   38.7017   11.0554    6.7084 N   0  0  0  0  0  0  0  0  0  0  0  0
   37.2608    7.8920    8.1943 O   0  0  0  0  0  0  0  0  0  0  0  0
   38.2448    6.5181    4.8970 O   0  0  0  0  0  0  0  0  0  0  0  0
   38.4000    9.4014    4.4595 O   0  0  0  0  0  0  0  0  0  0  0  0
   36.0667   10.3750    8.9192 O   0  0  0  0  0  0  0  0  0  0  0  0
   42.0023   -0.7495    9.1355 C   0  0  1  0  0  0  0  0  0  0  0  0
   41.7084   -2.0724    9.8767 C   0  0  1  0  0  0  0  0  0  0  0  0
   42.9960   -2.6613   10.5023 C   0  0  2  0  0  0  0  0  0  0  0  0
   44.0443   -2.9057    9.4103 C   0  0  1  0  0  0  0  0  0  0  0  0
   44.3765   -1.5783    8.6820 C   0  0  0  0  0  0  0  0  0  0  0  0
   43.0926   -1.0220    8.0573 C   0  0  2  0  0  0  0  0  0  0  0  0
   45.2763   -3.4581   10.0165 N   0  0  0  0  0  0  0  0  0  0  0  0
   43.4495    0.2149    7.3677 N   0  0  0  0  0  0  0  0  0  0  0  0
   40.7561   -1.8196   10.9328 O   0  0  0  0  0  0  0  0  0  0  0  0
   42.6685   -3.9050   11.1586 O   0  0  0  0  0  0  0  0  0  0  0  0
  1  2  1  0  0  0  0
  1 12  1  6  0  0  0
  1 13  1  0  0  0  0
  2  3  1  0  0  0  0
  2 10  1  6  0  0  0
  4  3  1  6  0  0  0
  4  5  1  0  0  0  0
  4 14  1  0  0  0  0
  5  6  1  0  0  0  0
  5 13  1  1  0  0  0
  6  7  1  0  0  0  0
  6 15  1  1  0  0  0
  7  8  1  0  0  0  0
  7 11  1  1  0  0  0
  8 14  1  0  0  0  0
  8 16  1  6  0  0  0
  9 11  1  0  0  0  0
 17 16  1  1  0  0  0
 17 18  1  0  0  0  0
 17 24  1  0  0  0  0
 18 19  1  0  0  0  0
 18 25  1  6  0  0  0
 19 20  1  0  0  0  0
 19 26  1  6  0  0  0
 20 21  1  0  0  0  0
 20 23  1  1  0  0  0
 21 22  1  1  0  0  0
 21 24  1  0  0  0  0
 22 27  1  0  0  0  0
 28 12  1  6  0  0  0
 28 29  1  0  0  0  0
 28 33  1  0  0  0  0
 29 30  1  0  0  0  0
 29 36  1  1  0  0  0
 30 31  1  0  0  0  0
 30 37  1  6  0  0  0
 31 32  1  0  0  0  0
 31 34  1  1  0  0  0
 32 33  1  0  0  0  0
 33 35  1  1  0  0  0
M  END
>  <CHROM.1>
-170.66205736,63.14594118,-157.82764342,-149.06280531,56.24017303,66.09466785
39.92692939,3.46438831,8.54449992,0.80942213,0.99614740,-2.67667171

>  <Name>
1yrj_lig

>  <RI>
0

>  <Rbt.Current_Directory>
/home/itssahil/PROJECTS/Mol_Feturizer/New_Systems/rnas/1yrj

>  <Rbt.Executable>
rbdock ($Id: //depot/dev/client3/rdock/2013.1/src/exe/rbdock.cxx#4 $)

>  <Rbt.Library>
libRbt.so (2013.1, Build901 2013/11/27)

>  <Rbt.Parameter_File>
/export/apps/rDock/src/rDock_2013.1_src/data/scripts/dock_solv.prm

>  <Rbt.Receptor>
prm/pocket_docking_4.prm

>  <SCORE>
-24.2152

>  <SCORE.INTER>
-19.7773

>  <SCORE.INTER.CONST>
1

>  <SCORE.INTER.POLAR>
-1.04853

>  <SCORE.INTER.ROT>
6

>  <SCORE.INTER.SOLV>
13.3952

>  <SCORE.INTER.VDW>
-21.7549

>  <SCORE.INTER.norm>
-0.534522

>  <SCORE.INTRA>
-4.43794

>  <SCORE.INTRA.DIHEDRAL>
-8.95669

>  <SCORE.INTRA.DIHEDRAL.0>
15.6389

>  <SCORE.INTRA.POLAR>
0

>  <SCORE.INTRA.POLAR.0>
0

>  <SCORE.INTRA.REPUL>
0

>  <SCORE.INTRA.REPUL.0>
0

>  <SCORE.INTRA.SOLV>
-2.04246

>  <SCORE.INTRA.SOLV.lig_0>
-90.9181

>  <SCORE.INTRA.VDW>
1.06164

>  <SCORE.INTRA.VDW.0>
-3.14158

>  <SCORE.INTRA.norm>
-0.119944

>  <SCORE.RESTR>
0

>  <SCORE.RESTR.CAVITY>
0

>  <SCORE.RESTR.norm>
0

>  <SCORE.SYSTEM>
0

>  <SCORE.SYSTEM.CONST>
0

>  <SCORE.SYSTEM.DIHEDRAL>
0

>  <SCORE.SYSTEM.SOLV>
0

>  <SCORE.SYSTEM.norm>
0

>  <SCORE.heavy>
37

>  <SCORE.norm>
-0.654466

>  <RMSD>
10.322

$$$$
1yrj_lig
 OpenBabel11021811423D
libRbt.so/2013.1/901 2013/11/27
 37 40  0  0  0  0  0  0  0  0999 V2000
   39.2322   -0.0189    9.8066 C   0  0  1  0  0  0  0  0  0  0  0  0
   38.1493   -0.0254    8.7099 C   0  0  1  0  0  0  0  0  0  0  0  0
   38.4329    1.0213    7.6207 C   0  0  0  0  0  0  0  0  0  0  0  0
   38.5974    2.4243    8.2612 C   0  0  1  0  0  0  0  0  0  0  0  0
   39.7224    2.3955    9.3131 C   0  0  1  0  0  0  0  0  0  0  0  0
   39.8783    3.8438    9.9425 C   0  0  1  0  0  0  0  0  0  0  0  0
   40.2115    4.8565    8.8349 C   0  0  1  0  0  0  0  0  0  0  0  0
   39.0778    4.8108    7.7818 C   0  0  2  0  0  0  0  0  0  0  0  0
   40.9044    7.2897    8.5094 C   0  0  0  0  0  0  0  0  0  0  0  0
   37.9870   -1.3578    8.1055 N   0  0  0  0  0  0  0  0  0  0  0  0
   40.4100    6.2158    9.4267 N   0  0  0  0  0  0  0  0  0  0  0  0
   40.4781   -0.6094    9.3914 O   0  0  0  0  0  0  0  0  0  0  0  0
   39.3967    1.3580   10.3125 O   0  0  0  0  0  0  0  0  0  0  0  0
   38.9113    3.4641    7.2548 O   0  0  0  0  0  0  0  0  0  0  0  0
   38.6512    4.2397   10.5187 O   0  0  0  0  0  0  0  0  0  0  0  0
   39.3388    5.6809    6.6798 O   0  0  0  0  0  0  0  0  0  0  0  0
   38.1796    5.9079    5.8441 C   0  0  2  0  0  0  0  0  0  0  0  0
   38.5193    6.5669    4.4973 C   0  0  1  0  0  0  0  0  0  0  0  0
   38.9800    8.0358    4.6932 C   0  0  2  0  0  0  0  0  0  0  0  0
   37.9059    8.8204    5.4111 C   0  0  1  0  0  0  0  0  0  0  0  0
   37.6080    8.1503    6.7733 C   0  0  1  0  0  0  0  0  0  0  0  0
   36.4954    8.8528    7.5483 C   0  0  0  0  0  0  0  0  0  0  0  0
   38.3746   10.2107    5.5867 N   0  0  0  0  0  0  0  0  0  0  0  0
   37.1924    6.7531    6.5554 O   0  0  0  0  0  0  0  0  0  0  0  0
   39.5156    5.7686    3.8421 O   0  0  0  0  0  0  0  0  0  0  0  0
   39.2159    8.6421    3.4150 O   0  0  0  0  0  0  0  0  0  0  0  0
   37.0031   10.0194    8.1391 O   0  0  0  0  0  0  0  0  0  0  0  0
   40.7007   -2.1073    9.2461 C   0  0  1  0  0  0  0  0  0  0  0  0
   41.3455   -2.3393    7.8618 C   0  0  1  0  0  0  0  0  0  0  0  0
   41.6760   -3.8356    7.6422 C   0  0  2  0  0  0  0  0  0  0  0  0
   42.6251   -4.3289    8.7407 C   0  0  1  0  0  0  0  0  0  0  0  0
   41.9751   -4.1359   10.1347 C   0  0  0  0  0  0  0  0  0  0  0  0
   41.6717   -2.6478   10.3373 C   0  0  2  0  0  0  0  0  0  0  0  0
   42.9280   -5.7624    8.5312 N   0  0  0  0  0  0  0  0  0  0  0  0
   41.0788   -2.5055   11.6644 N   0  0  0  0  0  0  0  0  0  0  0  0
   40.4228   -1.9149    6.8349 O   0  0  0  0  0  0  0  0  0  0  0  0
   42.2968   -3.9905    6.3479 O   0  0  0  0  0  0  0  0  0  0  0  0
  1  2  1  0  0  0  0
  1 12  1  6  0  0  0
  1 13  1  0  0  0  0
  2  3  1  0  0  0  0
  2 10  1  6  0  0  0
  4  3  1  6  0  0  0
  4  5  1  0  0  0  0
  4 14  1  0  0  0  0
  5  6  1  0  0  0  0
  5 13  1  1  0  0  0
  6  7  1  0  0  0  0
  6 15  1  6  0  0  0
  7  8  1  0  0  0  0
  7 11  1  1  0  0  0
  8 14  1  0  0  0  0
  8 16  1  6  0  0  0
  9 11  1  0  0  0  0
 17 16  1  1  0  0  0
 17 18  1  0  0  0  0
 17 24  1  0  0  0  0
 18 19  1  0  0  0  0
 18 25  1  1  0  0  0
 19 20  1  0  0  0  0
 19 26  1  6  0  0  0
 20 21  1  0  0  0  0
 20 23  1  1  0  0  0
 21 22  1  6  0  0  0
 21 24  1  0  0  0  0
 22 27  1  0  0  0  0
 28 12  1  1  0  0  0
 28 29  1  0  0  0  0
 28 33  1  0  0  0  0
 29 30  1  0  0  0  0
 29 36  1  6  0  0  0
 30 31  1  0  0  0  0
 30 37  1  6  0  0  0
 31 32  1  0  0  0  0
 31 34  1  6  0  0  0
 32 33  1  0  0  0  0
 33 35  1  1  0  0  0
M  END
>  <CHROM.1>
-75.29005060,172.78755157,-166.16374165,-166.73902481,-77.50110108,130.67016301
39.58580240,2.75192478,7.81516032,0.58037406,-1.26471993,1.94189489

>  <Name>
1yrj_lig

>  <RI>
0

>  <Rbt.Current_Directory>
/home/itssahil/PROJECTS/Mol_Feturizer/New_Systems/rnas/1yrj

>  <Rbt.Executable>
rbdock ($Id: //depot/dev/client3/rdock/2013.1/src/exe/rbdock.cxx#4 $)

>  <Rbt.Library>
libRbt.so (2013.1, Build901 2013/11/27)

>  <Rbt.Parameter_File>
/export/apps/rDock/src/rDock_2013.1_src/data/scripts/dock_solv.prm

>  <Rbt.Receptor>
prm/pocket_docking_4.prm

>  <SCORE>
-24.1462

>  <SCORE.INTER>
-22.4107

>  <SCORE.INTER.CONST>
1

>  <SCORE.INTER.POLAR>
-2.11197

>  <SCORE.INTER.ROT>
6

>  <SCORE.INTER.SOLV>
15.1838

>  <SCORE.INTER.VDW>
-20.5619

>  <SCORE.INTER.norm>
-0.605696

>  <SCORE.INTRA>
-1.73547

>  <SCORE.INTRA.DIHEDRAL>
-5.01541

>  <SCORE.INTRA.DIHEDRAL.0>
15.6389

>  <SCORE.INTRA.POLAR>
0

>  <SCORE.INTRA.POLAR.0>
0

>  <SCORE.INTRA.REPUL>
0

>  <SCORE.INTRA.REPUL.0>
0

>  <SCORE.INTRA.SOLV>
1.14298

>  <SCORE.INTRA.SOLV.lig_0>
-90.9181

>  <SCORE.INTRA.VDW>
0.200743

>  <SCORE.INTRA.VDW.0>
-3.14158

>  <SCORE.INTRA.norm>
-0.0469047

>  <SCORE.RESTR>
0

>  <SCORE.RESTR.CAVITY>
0

>  <SCORE.RESTR.norm>
0

>  <SCORE.SYSTEM>
0

>  <SCORE.SYSTEM.CONST>
0

>  <SCORE.SYSTEM.DIHEDRAL>
0

>  <SCORE.SYSTEM.SOLV>
0

>  <SCORE.SYSTEM.norm>
0

>  <SCORE.heavy>
37

>  <SCORE.norm>
-0.652601

>  <RMSD>
10.326

$$$$
1yrj_lig
 OpenBabel11021811423D
libRbt.so/2013.1/901 2013/11/27
 37 40  0  0  0  0  0  0  0  0999 V2000
   39.0661   -0.2157    9.7728 C   0  0  1  0  0  0  0  0  0  0  0  0
   37.9985   -0.0828    8.6691 C   0  0  1  0  0  0  0  0  0  0  0  0
   38.3447    1.0333    7.6707 C   0  0  0  0  0  0  0  0  0  0  0  0
   38.5657    2.3710    8.4240 C   0  0  1  0  0  0  0  0  0  0  0  0
   39.6743    2.2046    9.4806 C   0  0  1  0  0  0  0  0  0  0  0  0
   39.8891    3.5887   10.2264 C   0  0  1  0  0  0  0  0  0  0  0  0
   40.2834    4.6702    9.2074 C   0  0  1  0  0  0  0  0  0  0  0  0
   39.1627    4.7629    8.1436 C   0  0  2  0  0  0  0  0  0  0  0  0
   41.7434    6.0360   10.7915 C   0  0  0  0  0  0  0  0  0  0  0  0
   37.7824   -1.3532    7.9576 N   0  0  0  0  0  0  0  0  0  0  0  0
   40.5370    5.9666    9.9090 N   0  0  0  0  0  0  0  0  0  0  0  0
   40.2885   -0.8292    9.3229 O   0  0  0  0  0  0  0  0  0  0  0  0
   39.2877    1.1068   10.3898 O   0  0  0  0  0  0  0  0  0  0  0  0
   38.9407    3.4723    7.5079 O   0  0  0  0  0  0  0  0  0  0  0  0
   38.6742    3.9947   10.8213 O   0  0  0  0  0  0  0  0  0  0  0  0
   39.4782    5.7053    7.1180 O   0  0  0  0  0  0  0  0  0  0  0  0
   38.3755    5.9589    6.2163 C   0  0  2  0  0  0  0  0  0  0  0  0
   38.8088    6.6070    4.8912 C   0  0  1  0  0  0  0  0  0  0  0  0
   39.2930    8.0647    5.1129 C   0  0  2  0  0  0  0  0  0  0  0  0
   38.1984    8.8765    5.7669 C   0  0  1  0  0  0  0  0  0  0  0  0
   37.8056    8.2162    7.1097 C   0  0  1  0  0  0  0  0  0  0  0  0
   36.6673    8.9470    7.8184 C   0  0  0  0  0  0  0  0  0  0  0  0
   38.6899   10.2552    5.9689 N   0  0  0  0  0  0  0  0  0  0  0  0
   37.3694    6.8292    6.8685 O   0  0  0  0  0  0  0  0  0  0  0  0
   39.8217    5.7836    4.2953 O   0  0  0  0  0  0  0  0  0  0  0  0
   39.6175    8.6627    3.8504 O   0  0  0  0  0  0  0  0  0  0  0  0
   37.1329   10.1789    8.3015 O   0  0  0  0  0  0  0  0  0  0  0  0
   40.4992   -2.3330    9.2296 C   0  0  1  0  0  0  0  0  0  0  0  0
   41.0299   -2.6309    7.8099 C   0  0  1  0  0  0  0  0  0  0  0  0
   41.3421   -4.1368    7.6339 C   0  0  2  0  0  0  0  0  0  0  0  0
   42.3772   -4.5821    8.6737 C   0  0  1  0  0  0  0  0  0  0  0  0
   41.8422   -4.3227   10.1052 C   0  0  0  0  0  0  0  0  0  0  0  0
   41.5555   -2.8257   10.2625 C   0  0  2  0  0  0  0  0  0  0  0  0
   42.6627   -6.0247    8.5070 N   0  0  0  0  0  0  0  0  0  0  0  0
   41.0719   -2.6202   11.6252 N   0  0  0  0  0  0  0  0  0  0  0  0
   40.0270   -2.2514    6.8424 O   0  0  0  0  0  0  0  0  0  0  0  0
   41.8562   -4.3536    6.3022 O   0  0  0  0  0  0  0  0  0  0  0  0
  1  2  1  0  0  0  0
  1 12  1  6  0  0  0
  1 13  1  0  0  0  0
  2  3  1  0  0  0  0
  2 10  1  6  0  0  0
  4  3  1  6  0  0  0
  4  5  1  0  0  0  0
  4 14  1  0  0  0  0
  5  6  1  0  0  0  0
  5 13  1  1  0  0  0
  6  7  1  0  0  0  0
  6 15  1  6  0  0  0
  7  8  1  0  0  0  0
  7 11  1  1  0  0  0
  8 14  1  0  0  0  0
  8 16  1  6  0  0  0
  9 11  1  0  0  0  0
 17 16  1  1  0  0  0
 17 18  1  0  0  0  0
 17 24  1  0  0  0  0
 18 19  1  0  0  0  0
 18 25  1  1  0  0  0
 19 20  1  0  0  0  0
 19 26  1  6  0  0  0
 20 21  1  0  0  0  0
 20 23  1  1  0  0  0
 21 22  1  6  0  0  0
 21 24  1  0  0  0  0
 22 27  1  0  0  0  0
 28 12  1  6  0  0  0
 28 29  1  0  0  0  0
 28 33  1  0  0  0  0
 29 30  1  0  0  0  0
 29 36  1  6  0  0  0
 30 31  1  0  0  0  0
 30 37  1  6  0  0  0
 31 32  1  0  0  0  0
 31 34  1  1  0  0  0
 32 33  1  0  0  0  0
 33 35  1  1  0  0  0
M  END
>  <CHROM.1>
-83.46651868,68.51324821,-171.59652233,-162.15208869,-70.56722750,128.77969125
39.60593921,2.61497526,8.04964648,0.21463013,-1.34837402,1.60337220

>  <Name>
1yrj_lig

>  <RI>
0

>  <Rbt.Current_Directory>
/home/itssahil/PROJECTS/Mol_Feturizer/New_Systems/rnas/1yrj

>  <Rbt.Executable>
rbdock ($Id: //depot/dev/client3/rdock/2013.1/src/exe/rbdock.cxx#4 $)

>  <Rbt.Library>
libRbt.so (2013.1, Build901 2013/11/27)

>  <Rbt.Parameter_File>
/export/apps/rDock/src/rDock_2013.1_src/data/scripts/dock_solv.prm

>  <Rbt.Receptor>
prm/pocket_docking_7.prm

>  <SCORE>
-26.1755

>  <SCORE.INTER>
-25.2316

>  <SCORE.INTER.CONST>
1

>  <SCORE.INTER.POLAR>
-2.22097

>  <SCORE.INTER.ROT>
6

>  <SCORE.INTER.SOLV>
14.5539

>  <SCORE.INTER.VDW>
-21.8691

>  <SCORE.INTER.norm>
-0.681936

>  <SCORE.INTRA>
-0.943851

>  <SCORE.INTRA.DIHEDRAL>
-4.12304

>  <SCORE.INTRA.DIHEDRAL.0>
15.6389

>  <SCORE.INTRA.POLAR>
0

>  <SCORE.INTRA.POLAR.0>
0

>  <SCORE.INTRA.REPUL>
0

>  <SCORE.INTRA.REPUL.0>
0

>  <SCORE.INTRA.SOLV>
0.980604

>  <SCORE.INTRA.SOLV.lig_0>
-90.9181

>  <SCORE.INTRA.VDW>
0.627367

>  <SCORE.INTRA.VDW.0>
-3.14158

>  <SCORE.INTRA.norm>
-0.0255095

>  <SCORE.RESTR>
0

>  <SCORE.RESTR.CAVITY>
0

>  <SCORE.RESTR.norm>
0

>  <SCORE.SYSTEM>
0

>  <SCORE.SYSTEM.CONST>
0

>  <SCORE.SYSTEM.DIHEDRAL>
0

>  <SCORE.SYSTEM.SOLV>
0

>  <SCORE.SYSTEM.norm>
0

>  <SCORE.heavy>
37

>  <SCORE.norm>
-0.707445

>  <RMSD>
10.327

$$$$
1yrj_lig
 OpenBabel11021811423D
libRbt.so/2013.1/901 2013/11/27
 37 40  0  0  0  0  0  0  0  0999 V2000
   38.3825    5.8001    9.0063 C   0  0  1  0  0  0  0  0  0  0  0  0
   38.5342    4.9633    7.7209 C   0  0  1  0  0  0  0  0  0  0  0  0
   39.4513    5.6505    6.6966 C   0  0  0  0  0  0  0  0  0  0  0  0
   38.9344    7.0816    6.3960 C   0  0  1  0  0  0  0  0  0  0  0  0
   38.8470    7.8960    7.7006 C   0  0  1  0  0  0  0  0  0  0  0  0
   38.3289    9.3575    7.3635 C   0  0  1  0  0  0  0  0  0  0  0  0
   39.2948   10.0346    6.3775 C   0  0  1  0  0  0  0  0  0  0  0  0
   39.3844    9.1537    5.1076 C   0  0  2  0  0  0  0  0  0  0  0  0
   39.4235   12.5194    6.9395 C   0  0  0  0  0  0  0  0  0  0  0  0
   39.0183    3.6024    8.0050 N   0  0  0  0  0  0  0  0  0  0  0  0
   38.8408   11.4312    6.0935 N   0  0  0  0  0  0  0  0  0  0  0  0
   39.5481    5.7772    9.8513 O   0  0  0  0  0  0  0  0  0  0  0  0
   37.9712    7.1703    8.6427 O   0  0  0  0  0  0  0  0  0  0  0  0
   39.8079    7.8016    5.4413 O   0  0  0  0  0  0  0  0  0  0  0  0
   37.0701    9.2745    6.7287 O   0  0  0  0  0  0  0  0  0  0  0  0
   40.3133    9.6797    4.1589 O   0  0  0  0  0  0  0  0  0  0  0  0
   40.4339    8.8681    2.9671 C   0  0  2  0  0  0  0  0  0  0  0  0
   41.2600    9.5365    1.8561 C   0  0  1  0  0  0  0  0  0  0  0  0
   40.5091   10.7548    1.2560 C   0  0  2  0  0  0  0  0  0  0  0  0
   39.1623   10.3189    0.7258 C   0  0  1  0  0  0  0  0  0  0  0  0
   38.3449    9.6782    1.8725 C   0  0  1  0  0  0  0  0  0  0  0  0
   36.9828    9.1632    1.4129 C   0  0  0  0  0  0  0  0  0  0  0  0
   38.4709   11.4989    0.1665 N   0  0  0  0  0  0  0  0  0  0  0  0
   39.0918    8.5381    2.4335 O   0  0  0  0  0  0  0  0  0  0  0  0
   42.5374    9.9002    2.3992 O   0  0  0  0  0  0  0  0  0  0  0  0
   41.2722   11.3074    0.1747 O   0  0  0  0  0  0  0  0  0  0  0  0
   37.1644    8.1047    0.5104 O   0  0  0  0  0  0  0  0  0  0  0  0
   39.5821    6.3359   11.2659 C   0  0  1  0  0  0  0  0  0  0  0  0
   40.9980    6.9094   11.4948 C   0  0  1  0  0  0  0  0  0  0  0  0
   41.1165    7.5664   12.8914 C   0  0  2  0  0  0  0  0  0  0  0  0
   40.0790    8.6865   13.0328 C   0  0  1  0  0  0  0  0  0  0  0  0
   38.6496    8.1180   12.8419 C   0  0  0  0  0  0  0  0  0  0  0  0
   38.5499    7.4877   11.4488 C   0  0  2  0  0  0  0  0  0  0  0  0
   40.1903    9.3028   14.3739 N   0  0  0  0  0  0  0  0  0  0  0  0
   37.1880    6.9813   11.3012 N   0  0  0  0  0  0  0  0  0  0  0  0
   41.9611    5.8367   11.4062 O   0  0  0  0  0  0  0  0  0  0  0  0
   42.4475    8.1054   13.0413 O   0  0  0  0  0  0  0  0  0  0  0  0
  1  2  1  0  0  0  0
  1 12  1  6  0  0  0
  1 13  1  0  0  0  0
  2  3  1  0  0  0  0
  2 10  1  1  0  0  0
  4  3  1  1  0  0  0
  4  5  1  0  0  0  0
  4 14  1  0  0  0  0
  5  6  1  0  0  0  0
  5 13  1  1  0  0  0
  6  7  1  0  0  0  0
  6 15  1  6  0  0  0
  7  8  1  0  0  0  0
  7 11  1  6  0  0  0
  8 14  1  0  0  0  0
  8 16  1  6  0  0  0
  9 11  1  0  0  0  0
 17 16  1  1  0  0  0
 17 18  1  0  0  0  0
 17 24  1  0  0  0  0
 18 19  1  0  0  0  0
 18 25  1  1  0  0  0
 19 20  1  0  0  0  0
 19 26  1  6  0  0  0
 20 21  1  0  0  0  0
 20 23  1  1  0  0  0
 21 22  1  6  0  0  0
 21 24  1  0  0  0  0
 22 27  1  0  0  0  0
 28 12  1  6  0  0  0
 28 29  1  0  0  0  0
 28 33  1  0  0  0  0
 29 30  1  0  0  0  0
 29 36  1  1  0  0  0
 30 31  1  0  0  0  0
 30 37  1  6  0  0  0
 31 32  1  0  0  0  0
 31 34  1  1  0  0  0
 32 33  1  0  0  0  0
 33 35  1  1  0  0  0
M  END
>  <CHROM.1>
-170.10084995,93.22248361,179.19527661,171.03505335,65.40519304,-146.16168963
39.45410160,8.39280351,6.74354060,1.47631382,1.11632232,1.92168127

>  <Name>
1yrj_lig

>  <RI>
0

>  <Rbt.Current_Directory>
/home/itssahil/PROJECTS/Mol_Feturizer/New_Systems/rnas/1yrj

>  <Rbt.Executable>
rbdock ($Id: //depot/dev/client3/rdock/2013.1/src/exe/rbdock.cxx#4 $)

>  <Rbt.Library>
libRbt.so (2013.1, Build901 2013/11/27)

>  <Rbt.Parameter_File>
/export/apps/rDock/src/rDock_2013.1_src/data/scripts/dock_solv.prm

>  <Rbt.Receptor>
prm/pocket_docking_7.prm

>  <SCORE>
-16.5616

>  <SCORE.INTER>
-13.1194

>  <SCORE.INTER.CONST>
1

>  <SCORE.INTER.POLAR>
-1.18684

>  <SCORE.INTER.ROT>
6

>  <SCORE.INTER.SOLV>
17.0959

>  <SCORE.INTER.VDW>
-18.0887

>  <SCORE.INTER.norm>
-0.354578

>  <SCORE.INTRA>
-3.45114

>  <SCORE.INTRA.DIHEDRAL>
-9.55316

>  <SCORE.INTRA.DIHEDRAL.0>
15.6389

>  <SCORE.INTRA.POLAR>
0

>  <SCORE.INTRA.POLAR.0>
0

>  <SCORE.INTRA.REPUL>
0

>  <SCORE.INTRA.REPUL.0>
0

>  <SCORE.INTRA.SOLV>
-0.10838

>  <SCORE.INTRA.SOLV.lig_0>
-90.9181

>  <SCORE.INTRA.VDW>
1.37963

>  <SCORE.INTRA.VDW.0>
-3.14158

>  <SCORE.INTRA.norm>
-0.0932742

>  <SCORE.RESTR>
0.00888152

>  <SCORE.RESTR.CAVITY>
0.00888152

>  <SCORE.RESTR.norm>
0.000240041

>  <SCORE.SYSTEM>
0

>  <SCORE.SYSTEM.CONST>
0

>  <SCORE.SYSTEM.DIHEDRAL>
0

>  <SCORE.SYSTEM.SOLV>
0

>  <SCORE.SYSTEM.norm>
0

>  <SCORE.heavy>
37

>  <SCORE.norm>
-0.447612

>  <RMSD>
10.328

$$$$
1yrj_lig
 OpenBabel11021811423D
libRbt.so/2013.1/901 2013/11/27
 37 40  0  0  0  0  0  0  0  0999 V2000
   38.9311    2.5053    9.8569 C   0  0  1  0  0  0  0  0  0  0  0  0
   38.3566    2.7298    8.4445 C   0  0  1  0  0  0  0  0  0  0  0  0
   38.7984    4.0790    7.8557 C   0  0  0  0  0  0  0  0  0  0  0  0
   38.4195    5.2309    8.8227 C   0  0  1  0  0  0  0  0  0  0  0  0
   39.0560    4.9906   10.2047 C   0  0  1  0  0  0  0  0  0  0  0  0
   38.6640    6.1881   11.1693 C   0  0  1  0  0  0  0  0  0  0  0  0
   39.1646    7.5154   10.5767 C   0  0  1  0  0  0  0  0  0  0  0  0
   38.5360    7.6846    9.1722 C   0  0  2  0  0  0  0  0  0  0  0  0
   39.7466    8.8316   12.6827 C   0  0  0  0  0  0  0  0  0  0  0  0
   38.7095    1.6340    7.5270 N   0  0  0  0  0  0  0  0  0  0  0  0
   38.8434    8.6438   11.5045 N   0  0  0  0  0  0  0  0  0  0  0  0
   40.3356    2.1882    9.8654 O   0  0  0  0  0  0  0  0  0  0  0  0
   38.6073    3.6733   10.6994 O   0  0  0  0  0  0  0  0  0  0  0  0
   38.8595    6.5515    8.3175 O   0  0  0  0  0  0  0  0  0  0  0  0
   37.2574    6.2737   11.2635 O   0  0  0  0  0  0  0  0  0  0  0  0
   38.9987    8.8681    8.5205 O   0  0  0  0  0  0  0  0  0  0  0  0
   37.9286    9.7586    8.1261 C   0  0  2  0  0  0  0  0  0  0  0  0
   37.1731    9.2856    6.8735 C   0  0  1  0  0  0  0  0  0  0  0  0
   38.0660    9.3893    5.6085 C   0  0  2  0  0  0  0  0  0  0  0  0
   38.5455   10.8120    5.4325 C   0  0  1  0  0  0  0  0  0  0  0  0
   39.3261   11.2479    6.6951 C   0  0  1  0  0  0  0  0  0  0  0  0
   39.8079   12.6951    6.6233 C   0  0  0  0  0  0  0  0  0  0  0  0
   39.3951   10.8777    4.2254 N   0  0  0  0  0  0  0  0  0  0  0  0
   38.4589   11.1199    7.8800 O   0  0  0  0  0  0  0  0  0  0  0  0
   36.7110    7.9466    7.1032 O   0  0  0  0  0  0  0  0  0  0  0  0
   37.3082    9.0127    4.4506 O   0  0  0  0  0  0  0  0  0  0  0  0
   40.6697   12.9540    7.6995 O   0  0  0  0  0  0  0  0  0  0  0  0
   40.9426    1.0031    9.1294 C   0  0  1  0  0  0  0  0  0  0  0  0
   42.4664    1.0447    9.3785 C   0  0  1  0  0  0  0  0  0  0  0  0
   43.1739   -0.1658    8.7226 C   0  0  2  0  0  0  0  0  0  0  0  0
   42.5975   -1.4735    9.2784 C   0  0  1  0  0  0  0  0  0  0  0  0
   41.0739   -1.5456    9.0026 C   0  0  0  0  0  0  0  0  0  0  0  0
   40.3924   -0.3485    9.6736 C   0  0  2  0  0  0  0  0  0  0  0  0
   43.2703   -2.6263    8.6391 N   0  0  0  0  0  0  0  0  0  0  0  0
   38.9610   -0.4619    9.4067 N   0  0  0  0  0  0  0  0  0  0  0  0
   43.0043    2.2580    8.8087 O   0  0  0  0  0  0  0  0  0  0  0  0
   44.5874   -0.0897    9.0070 O   0  0  0  0  0  0  0  0  0  0  0  0
  1  2  1  0  0  0  0
  1 12  1  6  0  0  0
  1 13  1  0  0  0  0
  2  3  1  0  0  0  0
  2 10  1  6  0  0  0
  4  3  1  6  0  0  0
  4  5  1  0  0  0  0
  4 14  1  0  0  0  0
  5  6  1  0  0  0  0
  5 13  1  1  0  0  0
  6  7  1  0  0  0  0
  6 15  1  6  0  0  0
  7  8  1  0  0  0  0
  7 11  1  1  0  0  0
  8 14  1  0  0  0  0
  8 16  1  6  0  0  0
  9 11  1  0  0  0  0
 17 16  1  6  0  0  0
 17 18  1  0  0  0  0
 17 24  1  0  0  0  0
 18 19  1  0  0  0  0
 18 25  1  1  0  0  0
 19 20  1  0  0  0  0
 19 26  1  6  0  0  0
 20 21  1  0  0  0  0
 20 23  1  6  0  0  0
 21 22  1  6  0  0  0
 21 24  1  0  0  0  0
 22 27  1  0  0  0  0
 28 12  1  1  0  0  0
 28 29  1  0  0  0  0
 28 33  1  0  0  0  0
 29 30  1  0  0  0  0
 29 36  1  6  0  0  0
 30 31  1  0  0  0  0
 30 37  1  1  0  0  0
 31 32  1  0  0  0  0
 31 34  1  6  0  0  0
 32 33  1  0  0  0  0
 33 35  1  6  0  0  0
M  END
>  <CHROM.1>
-57.81500794,79.41006049,-123.26709270,-76.36348320,-171.21429841,178.98432350
39.59851692,5.47100366,8.60362573,0.86715424,-1.15034459,2.30004971

>  <Name>
1yrj_lig

>  <RI>
0

>  <Rbt.Current_Directory>
/home/itssahil/PROJECTS/Mol_Feturizer/New_Systems/rnas/1yrj

>  <Rbt.Executable>
rbdock ($Id: //depot/dev/client3/rdock/2013.1/src/exe/rbdock.cxx#4 $)

>  <Rbt.Library>
libRbt.so (2013.1, Build901 2013/11/27)

>  <Rbt.Parameter_File>
/export/apps/rDock/src/rDock_2013.1_src/data/scripts/dock_solv.prm

>  <Rbt.Receptor>
prm/pocket_docking_7.prm

>  <SCORE>
-21.7471

>  <SCORE.INTER>
-20.5704

>  <SCORE.INTER.CONST>
1

>  <SCORE.INTER.POLAR>
-1.19637

>  <SCORE.INTER.ROT>
6

>  <SCORE.INTER.SOLV>
18.4017

>  <SCORE.INTER.VDW>
-23.4596

>  <SCORE.INTER.norm>
-0.555958

>  <SCORE.INTRA>
-1.17672

>  <SCORE.INTRA.DIHEDRAL>
-6.5826

>  <SCORE.INTRA.DIHEDRAL.0>
15.6389

>  <SCORE.INTRA.POLAR>
0

>  <SCORE.INTRA.POLAR.0>
0

>  <SCORE.INTRA.REPUL>
0

>  <SCORE.INTRA.REPUL.0>
0

>  <SCORE.INTRA.SOLV>
2.94164

>  <SCORE.INTRA.SOLV.lig_0>
-90.9181

>  <SCORE.INTRA.VDW>
0.643759

>  <SCORE.INTRA.VDW.0>
-3.14158

>  <SCORE.INTRA.norm>
-0.0318034

>  <SCORE.RESTR>
8.59836e-05

>  <SCORE.RESTR.CAVITY>
8.59836e-05

>  <SCORE.RESTR.norm>
2.32388e-06

>  <SCORE.SYSTEM>
0

>  <SCORE.SYSTEM.CONST>
0

>  <SCORE.SYSTEM.DIHEDRAL>
0

>  <SCORE.SYSTEM.SOLV>
0

>  <SCORE.SYSTEM.norm>
0

>  <SCORE.heavy>
37

>  <SCORE.norm>
-0.587759

>  <RMSD>
10.330

$$$$
1yrj_lig
 OpenBabel11021811423D
libRbt.so/2013.1/901 2013/11/27
 37 40  0  0  0  0  0  0  0  0999 V2000
   39.7019    0.4519    9.4649 C   0  0  1  0  0  0  0  0  0  0  0  0
   38.3803    0.3631    8.6769 C   0  0  1  0  0  0  0  0  0  0  0  0
   38.2480    1.5018    7.6531 C   0  0  0  0  0  0  0  0  0  0  0  0
   38.4077    2.8734    8.3595 C   0  0  1  0  0  0  0  0  0  0  0  0
   39.7622    2.9357    9.0907 C   0  0  1  0  0  0  0  0  0  0  0  0
   39.9056    4.3515    9.7928 C   0  0  1  0  0  0  0  0  0  0  0  0
   39.8199    5.4646    8.7358 C   0  0  1  0  0  0  0  0  0  0  0  0
   38.4655    5.3275    7.9988 C   0  0  2  0  0  0  0  0  0  0  0  0
   41.3600    7.1025    9.9408 C   0  0  0  0  0  0  0  0  0  0  0  0
   38.2238   -0.9405    8.0112 N   0  0  0  0  0  0  0  0  0  0  0  0
   40.0048    6.8005    9.3828 N   0  0  0  0  0  0  0  0  0  0  0  0
   40.8579    0.0629    8.6996 O   0  0  0  0  0  0  0  0  0  0  0  0
   39.8299    1.8056   10.0391 O   0  0  0  0  0  0  0  0  0  0  0  0
   38.3266    4.0046    7.4075 O   0  0  0  0  0  0  0  0  0  0  0  0
   38.8320    4.5410   10.6907 O   0  0  0  0  0  0  0  0  0  0  0  0
   38.3288    6.2893    6.9521 O   0  0  0  0  0  0  0  0  0  0  0  0
   37.0700    7.0018    6.9917 C   0  0  2  0  0  0  0  0  0  0  0  0
   36.9509    8.0886    5.9109 C   0  0  1  0  0  0  0  0  0  0  0  0
   37.9173    9.2691    6.1953 C   0  0  2  0  0  0  0  0  0  0  0  0
   37.6341    9.8480    7.5625 C   0  0  1  0  0  0  0  0  0  0  0  0
   37.7907    8.7387    8.6294 C   0  0  1  0  0  0  0  0  0  0  0  0
   37.4744    9.2261   10.0416 C   0  0  0  0  0  0  0  0  0  0  0  0
   38.5711   10.9644    7.8057 N   0  0  0  0  0  0  0  0  0  0  0  0
   36.8754    7.6252    8.3215 O   0  0  0  0  0  0  0  0  0  0  0  0
   37.1946    7.4837    4.6328 O   0  0  0  0  0  0  0  0  0  0  0  0
   37.7270   10.2961    5.2124 O   0  0  0  0  0  0  0  0  0  0  0  0
   36.1863    9.7811   10.0661 O   0  0  0  0  0  0  0  0  0  0  0  0
   41.2794   -1.3812    8.4732 C   0  0  1  0  0  0  0  0  0  0  0  0
   42.1823   -1.4006    7.2200 C   0  0  1  0  0  0  0  0  0  0  0  0
   42.7221   -2.8244    6.9414 C   0  0  2  0  0  0  0  0  0  0  0  0
   43.5134   -3.3308    8.1532 C   0  0  1  0  0  0  0  0  0  0  0  0
   42.6085   -3.3516    9.4115 C   0  0  0  0  0  0  0  0  0  0  0  0
   42.0989   -1.9313    9.6780 C   0  0  2  0  0  0  0  0  0  0  0  0
   44.0171   -4.6963    7.8845 N   0  0  0  0  0  0  0  0  0  0  0  0
   41.2676   -1.9894   10.8773 N   0  0  0  0  0  0  0  0  0  0  0  0
   41.4123   -0.9672    6.0775 O   0  0  0  0  0  0  0  0  0  0  0  0
   43.5765   -2.7794    5.7784 O   0  0  0  0  0  0  0  0  0  0  0  0
  1  2  1  0  0  0  0
  1 12  1  6  0  0  0
  1 13  1  0  0  0  0
  2  3  1  0  0  0  0
  2 10  1  6  0  0  0
  4  3  1  6  0  0  0
  4  5  1  0  0  0  0
  4 14  1  0  0  0  0
  5  6  1  0  0  0  0
  5 13  1  1  0  0  0
  6  7  1  0  0  0  0
  6 15  1  1  0  0  0
  7  8  1  0  0  0  0
  7 11  1  1  0  0  0
  8 14  1  0  0  0  0
  8 16  1  6  0  0  0
  9 11  1  0  0  0  0
 17 16  1  1  0  0  0
 17 18  1  0  0  0  0
 17 24  1  0  0  0  0
 18 19  1  0  0  0  0
 18 25  1  6  0  0  0
 19 20  1  0  0  0  0
 19 26  1  6  0  0  0
 20 21  1  0  0  0  0
 20 23  1  1  0  0  0
 21 22  1  1  0  0  0
 21 24  1  0  0  0  0
 22 27  1  0  0  0  0
 28 12  1  1  0  0  0
 28 29  1  0  0  0  0
 28 33  1  0  0  0  0
 29 30  1  0  0  0  0
 29 36  1  6  0  0  0
 30 31  1  0  0  0  0
 30 37  1  6  0  0  0
 31 32  1  0  0  0  0
 31 34  1  6  0  0  0
 32 33  1  0  0  0  0
 33 35  1  1  0  0  0
M  END
>  <CHROM.1>
-81.15390405,67.83839893,-130.81815354,176.97573918,55.39397404,158.82407217
39.56012073,3.47694747,8.16529135,-0.01399844,-1.19522208,1.51312952

>  <Name>
1yrj_lig

>  <RI>
0

>  <Rbt.Current_Directory>
/home/itssahil/PROJECTS/Mol_Feturizer/New_Systems/rnas/1yrj

>  <Rbt.Executable>
rbdock ($Id: //depot/dev/client3/rdock/2013.1/src/exe/rbdock.cxx#4 $)

>  <Rbt.Library>
libRbt.so (2013.1, Build901 2013/11/27)

>  <Rbt.Parameter_File>
/export/apps/rDock/src/rDock_2013.1_src/data/scripts/dock_solv.prm

>  <Rbt.Receptor>
prm/pocket_docking_5.prm

>  <SCORE>
-25.0443

>  <SCORE.INTER>
-23.322

>  <SCORE.INTER.CONST>
1

>  <SCORE.INTER.POLAR>
-1.75337

>  <SCORE.INTER.ROT>
6

>  <SCORE.INTER.SOLV>
13.6737

>  <SCORE.INTER.VDW>
-21.8614

>  <SCORE.INTER.norm>
-0.630325

>  <SCORE.INTRA>
-1.72226

>  <SCORE.INTRA.DIHEDRAL>
-4.80278

>  <SCORE.INTRA.DIHEDRAL.0>
15.6389

>  <SCORE.INTRA.POLAR>
0

>  <SCORE.INTRA.POLAR.0>
0

>  <SCORE.INTRA.REPUL>
0

>  <SCORE.INTRA.REPUL.0>
0

>  <SCORE.INTRA.SOLV>
1.6245

>  <SCORE.INTRA.SOLV.lig_0>
-90.9181

>  <SCORE.INTRA.VDW>
-0.133122

>  <SCORE.INTRA.VDW.0>
-3.14158

>  <SCORE.INTRA.norm>
-0.0465476

>  <SCORE.RESTR>
0

>  <SCORE.RESTR.CAVITY>
0

>  <SCORE.RESTR.norm>
0

>  <SCORE.SYSTEM>
0

>  <SCORE.SYSTEM.CONST>
0

>  <SCORE.SYSTEM.DIHEDRAL>
0

>  <SCORE.SYSTEM.SOLV>
0

>  <SCORE.SYSTEM.norm>
0

>  <SCORE.heavy>
37

>  <SCORE.norm>
-0.676873

>  <RMSD>
10.334

$$$$
1yrj_lig
 OpenBabel11021811423D
libRbt.so/2013.1/901 2013/11/27
 37 40  0  0  0  0  0  0  0  0999 V2000
   38.7163   -0.3450    9.8523 C   0  0  1  0  0  0  0  0  0  0  0  0
   37.6504   -0.1786    8.7515 C   0  0  1  0  0  0  0  0  0  0  0  0
   38.0596    0.8803    7.7154 C   0  0  0  0  0  0  0  0  0  0  0  0
   38.3726    2.2243    8.4236 C   0  0  1  0  0  0  0  0  0  0  0  0
   39.4768    2.0203    9.4782 C   0  0  1  0  0  0  0  0  0  0  0  0
   39.7864    3.4107   10.1774 C   0  0  1  0  0  0  0  0  0  0  0  0
   40.2412    4.4314    9.1215 C   0  0  1  0  0  0  0  0  0  0  0  0
   39.1201    4.5624    8.0622 C   0  0  2  0  0  0  0  0  0  0  0  0
   41.7254    5.7212   10.7464 C   0  0  0  0  0  0  0  0  0  0  0  0
   37.3471   -1.4545    8.0828 N   0  0  0  0  0  0  0  0  0  0  0  0
   40.5836    5.7304    9.7792 N   0  0  0  0  0  0  0  0  0  0  0  0
   39.8929   -1.0503    9.4149 O   0  0  0  0  0  0  0  0  0  0  0  0
   39.0277    0.9794   10.4247 O   0  0  0  0  0  0  0  0  0  0  0  0
   38.8102    3.2692    7.4700 O   0  0  0  0  0  0  0  0  0  0  0  0
   38.6052    3.9132   10.7663 O   0  0  0  0  0  0  0  0  0  0  0  0
   39.4872    5.4492    7.0047 O   0  0  0  0  0  0  0  0  0  0  0  0
   38.4184    5.6825    6.0577 C   0  0  2  0  0  0  0  0  0  0  0  0
   38.8956    6.3320    4.7485 C   0  0  1  0  0  0  0  0  0  0  0  0
   39.3482    7.7977    4.9832 C   0  0  2  0  0  0  0  0  0  0  0  0
   38.2157    8.5952    5.5884 C   0  0  1  0  0  0  0  0  0  0  0  0
   37.7785    7.9342    6.9171 C   0  0  1  0  0  0  0  0  0  0  0  0
   36.6014    8.6502    7.5756 C   0  0  0  0  0  0  0  0  0  0  0  0
   38.6777    9.9821    5.8040 N   0  0  0  0  0  0  0  0  0  0  0  0
   37.3736    6.5397    6.6646 O   0  0  0  0  0  0  0  0  0  0  0  0
   39.9442    5.5218    4.1980 O   0  0  0  0  0  0  0  0  0  0  0  0
   39.7148    8.3957    3.7323 O   0  0  0  0  0  0  0  0  0  0  0  0
   37.0275    9.8924    8.0689 O   0  0  0  0  0  0  0  0  0  0  0  0
   39.9080   -2.5241    9.0379 C   0  0  1  0  0  0  0  0  0  0  0  0
   41.3406   -2.8588    8.5672 C   0  0  1  0  0  0  0  0  0  0  0  0
   41.4794   -4.3614    8.2220 C   0  0  2  0  0  0  0  0  0  0  0  0
   41.1281   -5.2147    9.4465 C   0  0  1  0  0  0  0  0  0  0  0  0
   39.6787   -4.9158    9.9078 C   0  0  0  0  0  0  0  0  0  0  0  0
   39.5683   -3.4285   10.2595 C   0  0  2  0  0  0  0  0  0  0  0  0
   41.2520   -6.6498    9.1063 N   0  0  0  0  0  0  0  0  0  0  0  0
   38.1978   -3.1915   10.7051 N   0  0  0  0  0  0  0  0  0  0  0  0
   41.6418   -2.0842    7.3860 O   0  0  0  0  0  0  0  0  0  0  0  0
   42.8395   -4.6219    7.8133 O   0  0  0  0  0  0  0  0  0  0  0  0
  1  2  1  0  0  0  0
  1 12  1  6  0  0  0
  1 13  1  0  0  0  0
  2  3  1  0  0  0  0
  2 10  1  6  0  0  0
  4  3  1  6  0  0  0
  4  5  1  0  0  0  0
  4 14  1  0  0  0  0
  5  6  1  0  0  0  0
  5 13  1  1  0  0  0
  6  7  1  0  0  0  0
  6 15  1  6  0  0  0
  7  8  1  0  0  0  0
  7 11  1  1  0  0  0
  8 14  1  0  0  0  0
  8 16  1  6  0  0  0
  9 11  1  0  0  0  0
 17 16  1  1  0  0  0
 17 18  1  0  0  0  0
 17 24  1  0  0  0  0
 18 19  1  0  0  0  0
 18 25  1  1  0  0  0
 19 20  1  0  0  0  0
 19 26  1  6  0  0  0
 20 21  1  0  0  0  0
 20 23  1  1  0  0  0
 21 22  1  6  0  0  0
 21 24  1  0  0  0  0
 22 27  1  0  0  0  0
 28 12  1  1  0  0  0
 28 29  1  0  0  0  0
 28 33  1  0  0  0  0
 29 30  1  0  0  0  0
 29 36  1  6  0  0  0
 30 31  1  0  0  0  0
 30 37  1  1  0  0  0
 31 32  1  0  0  0  0
 31 34  1  6  0  0  0
 32 33  1  0  0  0  0
 33 35  1  6  0  0  0
M  END
>  <CHROM.1>
-67.63256214,63.20555233,-175.03415848,-165.38335132,-70.42817138,177.38218861
39.35887359,2.35580950,8.09148447,1.13442825,-1.19771320,2.50296344

>  <Name>
1yrj_lig

>  <RI>
0

>  <Rbt.Current_Directory>
/home/itssahil/PROJECTS/Mol_Feturizer/New_Systems/rnas/1yrj

>  <Rbt.Executable>
rbdock ($Id: //depot/dev/client3/rdock/2013.1/src/exe/rbdock.cxx#4 $)

>  <Rbt.Library>
libRbt.so (2013.1, Build901 2013/11/27)

>  <Rbt.Parameter_File>
/export/apps/rDock/src/rDock_2013.1_src/data/scripts/dock_solv.prm

>  <Rbt.Receptor>
prm/pocket_docking_6.prm

>  <SCORE>
-27.1519

>  <SCORE.INTER>
-22.4692

>  <SCORE.INTER.CONST>
1

>  <SCORE.INTER.POLAR>
-1.40535

>  <SCORE.INTER.ROT>
6

>  <SCORE.INTER.SOLV>
15.4421

>  <SCORE.INTER.VDW>
-23.0423

>  <SCORE.INTER.norm>
-0.607275

>  <SCORE.INTRA>
-4.68275

>  <SCORE.INTRA.DIHEDRAL>
-13.7037

>  <SCORE.INTRA.DIHEDRAL.0>
15.6389

>  <SCORE.INTRA.POLAR>
0

>  <SCORE.INTRA.POLAR.0>
0

>  <SCORE.INTRA.REPUL>
0

>  <SCORE.INTRA.REPUL.0>
0

>  <SCORE.INTRA.SOLV>
2.18142

>  <SCORE.INTRA.SOLV.lig_0>
-90.9181

>  <SCORE.INTRA.VDW>
1.07838

>  <SCORE.INTRA.VDW.0>
-3.14158

>  <SCORE.INTRA.norm>
-0.126561

>  <SCORE.RESTR>
0

>  <SCORE.RESTR.CAVITY>
0

>  <SCORE.RESTR.norm>
0

>  <SCORE.SYSTEM>
0

>  <SCORE.SYSTEM.CONST>
0

>  <SCORE.SYSTEM.DIHEDRAL>
0

>  <SCORE.SYSTEM.SOLV>
0

>  <SCORE.SYSTEM.norm>
0

>  <SCORE.heavy>
37

>  <SCORE.norm>
-0.733835

>  <RMSD>
10.334

$$$$
1yrj_lig
 OpenBabel11021811423D
libRbt.so/2013.1/901 2013/11/27
 37 40  0  0  0  0  0  0  0  0999 V2000
   39.7106    0.4722    9.4965 C   0  0  1  0  0  0  0  0  0  0  0  0
   38.3648    0.3863    8.7504 C   0  0  1  0  0  0  0  0  0  0  0  0
   38.2159    1.5074    7.7096 C   0  0  0  0  0  0  0  0  0  0  0  0
   38.4145    2.8897    8.3846 C   0  0  1  0  0  0  0  0  0  0  0  0
   39.7912    2.9476    9.0734 C   0  0  1  0  0  0  0  0  0  0  0  0
   39.9738    4.3743    9.7437 C   0  0  1  0  0  0  0  0  0  0  0  0
   39.8703    5.4684    8.6688 C   0  0  1  0  0  0  0  0  0  0  0  0
   38.4926    5.3356    7.9756 C   0  0  2  0  0  0  0  0  0  0  0  0
   40.9894    7.7575    8.5479 C   0  0  0  0  0  0  0  0  0  0  0  0
   38.1715   -0.9273    8.1148 N   0  0  0  0  0  0  0  0  0  0  0  0
   40.0917    6.8136    9.2844 N   0  0  0  0  0  0  0  0  0  0  0  0
   40.8378    0.0537    8.7043 O   0  0  0  0  0  0  0  0  0  0  0  0
   39.8732    1.8346   10.0408 O   0  0  0  0  0  0  0  0  0  0  0  0
   38.3190    4.0039    7.4141 O   0  0  0  0  0  0  0  0  0  0  0  0
   38.9305    4.5948   10.6697 O   0  0  0  0  0  0  0  0  0  0  0  0
   38.3364    6.2795    6.9153 O   0  0  0  0  0  0  0  0  0  0  0  0
   37.0766    6.9896    6.9635 C   0  0  2  0  0  0  0  0  0  0  0  0
   36.9580    8.0925    5.8990 C   0  0  1  0  0  0  0  0  0  0  0  0
   37.9223    9.2698    6.2028 C   0  0  2  0  0  0  0  0  0  0  0  0
   37.6358    9.8276    7.5782 C   0  0  1  0  0  0  0  0  0  0  0  0
   37.7921    8.7026    8.6285 C   0  0  1  0  0  0  0  0  0  0  0  0
   37.4726    9.1682   10.0473 C   0  0  0  0  0  0  0  0  0  0  0  0
   38.5709   10.9415    7.8398 N   0  0  0  0  0  0  0  0  0  0  0  0
   36.8788    7.5927    8.3022 O   0  0  0  0  0  0  0  0  0  0  0  0
   37.2047    7.5072    4.6123 O   0  0  0  0  0  0  0  0  0  0  0  0
   37.7322   10.3113    5.2352 O   0  0  0  0  0  0  0  0  0  0  0  0
   36.1682    9.6829   10.0869 O   0  0  0  0  0  0  0  0  0  0  0  0
   41.2104   -1.4009    8.4601 C   0  0  1  0  0  0  0  0  0  0  0  0
   42.2098   -1.4232    7.2825 C   0  0  1  0  0  0  0  0  0  0  0  0
   42.7053   -2.8615    6.9963 C   0  0  2  0  0  0  0  0  0  0  0  0
   43.3722   -3.4444    8.2479 C   0  0  1  0  0  0  0  0  0  0  0  0
   42.3685   -3.4623    9.4289 C   0  0  0  0  0  0  0  0  0  0  0  0
   41.9040   -2.0285    9.7053 C   0  0  2  0  0  0  0  0  0  0  0  0
   43.8335   -4.8231    7.9707 N   0  0  0  0  0  0  0  0  0  0  0  0
   40.9767   -2.0854   10.8321 N   0  0  0  0  0  0  0  0  0  0  0  0
   41.5552   -0.9164    6.0990 O   0  0  0  0  0  0  0  0  0  0  0  0
   43.6520   -2.8200    5.9070 O   0  0  0  0  0  0  0  0  0  0  0  0
  1  2  1  0  0  0  0
  1 12  1  6  0  0  0
  1 13  1  0  0  0  0
  2  3  1  0  0  0  0
  2 10  1  6  0  0  0
  4  3  1  6  0  0  0
  4  5  1  0  0  0  0
  4 14  1  0  0  0  0
  5  6  1  0  0  0  0
  5 13  1  1  0  0  0
  6  7  1  0  0  0  0
  6 15  1  1  0  0  0
  7  8  1  0  0  0  0
  7 11  1  1  0  0  0
  8 14  1  0  0  0  0
  8 16  1  6  0  0  0
  9 11  1  0  0  0  0
 17 16  1  1  0  0  0
 17 18  1  0  0  0  0
 17 24  1  0  0  0  0
 18 19  1  0  0  0  0
 18 25  1  6  0  0  0
 19 20  1  0  0  0  0
 19 26  1  6  0  0  0
 20 21  1  0  0  0  0
 20 23  1  1  0  0  0
 21 22  1  1  0  0  0
 21 24  1  0  0  0  0
 22 27  1  0  0  0  0
 28 12  1  1  0  0  0
 28 29  1  0  0  0  0
 28 33  1  0  0  0  0
 29 30  1  0  0  0  0
 29 36  1  6  0  0  0
 30 31  1  0  0  0  0
 30 37  1  6  0  0  0
 31 32  1  0  0  0  0
 31 34  1  6  0  0  0
 32 33  1  0  0  0  0
 33 35  1  1  0  0  0
M  END
>  <CHROM.1>
-79.31784721,135.51661189,-132.02017874,174.88178104,57.21984138,164.92040040
39.53589123,3.47877891,8.13749058,0.37804254,-1.17674894,1.92488506

>  <Name>
1yrj_lig

>  <RI>
0

>  <Rbt.Current_Directory>
/home/itssahil/PROJECTS/Mol_Feturizer/New_Systems/rnas/1yrj

>  <Rbt.Executable>
rbdock ($Id: //depot/dev/client3/rdock/2013.1/src/exe/rbdock.cxx#4 $)

>  <Rbt.Library>
libRbt.so (2013.1, Build901 2013/11/27)

>  <Rbt.Parameter_File>
/export/apps/rDock/src/rDock_2013.1_src/data/scripts/dock_solv.prm

>  <Rbt.Receptor>
prm/pocket_docking_4.prm

>  <SCORE>
-24.8815

>  <SCORE.INTER>
-22.6701

>  <SCORE.INTER.CONST>
1

>  <SCORE.INTER.POLAR>
-1.62748

>  <SCORE.INTER.ROT>
6

>  <SCORE.INTER.SOLV>
13.4862

>  <SCORE.INTER.VDW>
-21.7839

>  <SCORE.INTER.norm>
-0.612706

>  <SCORE.INTRA>
-2.21141

>  <SCORE.INTRA.DIHEDRAL>
-5.1567

>  <SCORE.INTRA.DIHEDRAL.0>
15.6389

>  <SCORE.INTRA.POLAR>
0

>  <SCORE.INTRA.POLAR.0>
0

>  <SCORE.INTRA.REPUL>
0

>  <SCORE.INTRA.REPUL.0>
0

>  <SCORE.INTRA.SOLV>
2.38223

>  <SCORE.INTRA.SOLV.lig_0>
-90.9181

>  <SCORE.INTRA.VDW>
-0.824176

>  <SCORE.INTRA.VDW.0>
-3.14158

>  <SCORE.INTRA.norm>
-0.0597678

>  <SCORE.RESTR>
0

>  <SCORE.RESTR.CAVITY>
0

>  <SCORE.RESTR.norm>
0

>  <SCORE.SYSTEM>
0

>  <SCORE.SYSTEM.CONST>
0

>  <SCORE.SYSTEM.DIHEDRAL>
0

>  <SCORE.SYSTEM.SOLV>
0

>  <SCORE.SYSTEM.norm>
0

>  <SCORE.heavy>
37

>  <SCORE.norm>
-0.672473

>  <RMSD>
10.335

$$$$
1yrj_lig
 OpenBabel11021811423D
libRbt.so/2013.1/901 2013/11/27
 37 40  0  0  0  0  0  0  0  0999 V2000
   39.2311    0.8953    9.2195 C   0  0  1  0  0  0  0  0  0  0  0  0
   38.1354    1.2771    8.2051 C   0  0  1  0  0  0  0  0  0  0  0  0
   38.4425    2.6119    7.5076 C   0  0  0  0  0  0  0  0  0  0  0  0
   38.6641    3.7254    8.5643 C   0  0  1  0  0  0  0  0  0  0  0  0
   39.8001    3.3236    9.5240 C   0  0  1  0  0  0  0  0  0  0  0  0
   40.0146    4.4839   10.5851 C   0  0  1  0  0  0  0  0  0  0  0  0
   40.3699    5.7911    9.8581 C   0  0  1  0  0  0  0  0  0  0  0  0
   39.2225    6.1231    8.8734 C   0  0  2  0  0  0  0  0  0  0  0  0
   42.0264    7.0289   11.3515 C   0  0  0  0  0  0  0  0  0  0  0  0
   37.9188    0.2185    7.2054 N   0  0  0  0  0  0  0  0  0  0  0  0
   40.6233    6.8781   10.8538 N   0  0  0  0  0  0  0  0  0  0  0  0
   40.4502    0.4353    8.6069 O   0  0  0  0  0  0  0  0  0  0  0  0
   39.4501    2.0279   10.1404 O   0  0  0  0  0  0  0  0  0  0  0  0
   39.0022    5.0260    7.9423 O   0  0  0  0  0  0  0  0  0  0  0  0
   38.8093    4.7072   11.2865 O   0  0  0  0  0  0  0  0  0  0  0  0
   39.5006    7.2958    8.1072 O   0  0  0  0  0  0  0  0  0  0  0  0
   38.3336    7.8340    7.4425 C   0  0  2  0  0  0  0  0  0  0  0  0
   38.6767    8.7779    6.2785 C   0  0  1  0  0  0  0  0  0  0  0  0
   39.3037   10.0998    6.7958 C   0  0  2  0  0  0  0  0  0  0  0  0
   38.3580   10.7737    7.7635 C   0  0  1  0  0  0  0  0  0  0  0  0
   38.0559    9.8113    8.9365 C   0  0  1  0  0  0  0  0  0  0  0  0
   37.0659   10.3952    9.9418 C   0  0  0  0  0  0  0  0  0  0  0  0
   38.9835   12.0242    8.2412 N   0  0  0  0  0  0  0  0  0  0  0  0
   37.4803    8.5598    8.4121 O   0  0  0  0  0  0  0  0  0  0  0  0
   39.5466    8.0823    5.3738 O   0  0  0  0  0  0  0  0  0  0  0  0
   39.5414   10.9853    5.6929 O   0  0  0  0  0  0  0  0  0  0  0  0
   35.8912   10.7729    9.2744 O   0  0  0  0  0  0  0  0  0  0  0  0
   40.8242   -1.0318    8.4579 C   0  0  1  0  0  0  0  0  0  0  0  0
   40.5978   -1.7010    9.8316 C   0  0  1  0  0  0  0  0  0  0  0  0
   40.8879   -3.2202    9.7685 C   0  0  2  0  0  0  0  0  0  0  0  0
   39.9869   -3.8823    8.7193 C   0  0  1  0  0  0  0  0  0  0  0  0
   40.2305   -3.2451    7.3273 C   0  0  0  0  0  0  0  0  0  0  0  0
   39.9221   -1.7463    7.4085 C   0  0  2  0  0  0  0  0  0  0  0  0
   40.2772   -5.3322    8.6563 N   0  0  0  0  0  0  0  0  0  0  0  0
   40.1456   -1.1875    6.0779 N   0  0  0  0  0  0  0  0  0  0  0  0
   41.4856   -1.1014   10.8002 O   0  0  0  0  0  0  0  0  0  0  0  0
   40.6371   -3.7968   11.0683 O   0  0  0  0  0  0  0  0  0  0  0  0
  1  2  1  0  0  0  0
  1 12  1  6  0  0  0
  1 13  1  0  0  0  0
  2  3  1  0  0  0  0
  2 10  1  6  0  0  0
  4  3  1  6  0  0  0
  4  5  1  0  0  0  0
  4 14  1  0  0  0  0
  5  6  1  0  0  0  0
  5 13  1  1  0  0  0
  6  7  1  0  0  0  0
  6 15  1  6  0  0  0
  7  8  1  0  0  0  0
  7 11  1  1  0  0  0
  8 14  1  0  0  0  0
  8 16  1  6  0  0  0
  9 11  1  0  0  0  0
 17 16  1  1  0  0  0
 17 18  1  0  0  0  0
 17 24  1  0  0  0  0
 18 19  1  0  0  0  0
 18 25  1  6  0  0  0
 19 20  1  0  0  0  0
 19 26  1  6  0  0  0
 20 21  1  0  0  0  0
 20 23  1  1  0  0  0
 21 22  1  1  0  0  0
 21 24  1  0  0  0  0
 22 27  1  0  0  0  0
 28 12  1  1  0  0  0
 28 29  1  0  0  0  0
 28 33  1  0  0  0  0
 29 30  1  0  0  0  0
 29 36  1  1  0  0  0
 30 31  1  0  0  0  0
 30 37  1  1  0  0  0
 31 32  1  0  0  0  0
 31 34  1  6  0  0  0
 32 33  1  0  0  0  0
 33 35  1  6  0  0  0
M  END
>  <CHROM.1>
-99.49959651,89.30249117,-164.78447983,-160.94881875,55.38798188,-48.21253922
39.40033863,3.93831078,8.66402918,-1.01359906,-1.30352333,0.47284148

>  <Name>
1yrj_lig

>  <RI>
0

>  <Rbt.Current_Directory>
/home/itssahil/PROJECTS/Mol_Feturizer/New_Systems/rnas/1yrj

>  <Rbt.Executable>
rbdock ($Id: //depot/dev/client3/rdock/2013.1/src/exe/rbdock.cxx#4 $)

>  <Rbt.Library>
libRbt.so (2013.1, Build901 2013/11/27)

>  <Rbt.Parameter_File>
/export/apps/rDock/src/rDock_2013.1_src/data/scripts/dock_solv.prm

>  <Rbt.Receptor>
prm/pocket_docking_4.prm

>  <SCORE>
-19.6392

>  <SCORE.INTER>
-18.3424

>  <SCORE.INTER.CONST>
1

>  <SCORE.INTER.POLAR>
-0.948108

>  <SCORE.INTER.ROT>
6

>  <SCORE.INTER.SOLV>
14.593

>  <SCORE.INTER.VDW>
-21.5323

>  <SCORE.INTER.norm>
-0.495741

>  <SCORE.INTRA>
-1.2968

>  <SCORE.INTRA.DIHEDRAL>
-6.27628

>  <SCORE.INTRA.DIHEDRAL.0>
15.6389

>  <SCORE.INTRA.POLAR>
0

>  <SCORE.INTRA.POLAR.0>
0

>  <SCORE.INTRA.REPUL>
0

>  <SCORE.INTRA.REPUL.0>
0

>  <SCORE.INTRA.SOLV>
2.69246

>  <SCORE.INTRA.SOLV.lig_0>
-90.9181

>  <SCORE.INTRA.VDW>
0.495112

>  <SCORE.INTRA.VDW.0>
-3.14158

>  <SCORE.INTRA.norm>
-0.0350486

>  <SCORE.RESTR>
0

>  <SCORE.RESTR.CAVITY>
0

>  <SCORE.RESTR.norm>
0

>  <SCORE.SYSTEM>
0

>  <SCORE.SYSTEM.CONST>
0

>  <SCORE.SYSTEM.DIHEDRAL>
0

>  <SCORE.SYSTEM.SOLV>
0

>  <SCORE.SYSTEM.norm>
0

>  <SCORE.heavy>
37

>  <SCORE.norm>
-0.530789

>  <RMSD>
10.341

$$$$
1yrj_lig
 OpenBabel11021811423D
libRbt.so/2013.1/901 2013/11/27
 37 40  0  0  0  0  0  0  0  0999 V2000
   39.7407    0.4941    9.5551 C   0  0  1  0  0  0  0  0  0  0  0  0
   38.4038    0.4038    8.7934 C   0  0  1  0  0  0  0  0  0  0  0  0
   38.2669    1.5195    7.7451 C   0  0  0  0  0  0  0  0  0  0  0  0
   38.4568    2.9052    8.4154 C   0  0  1  0  0  0  0  0  0  0  0  0
   39.8251    2.9674    9.1203 C   0  0  1  0  0  0  0  0  0  0  0  0
   39.9991    4.3976    9.7854 C   0  0  1  0  0  0  0  0  0  0  0  0
   39.9080    5.4862    8.7037 C   0  0  1  0  0  0  0  0  0  0  0  0
   38.5386    5.3491    7.9949 C   0  0  2  0  0  0  0  0  0  0  0  0
   40.9572    7.8055    8.5420 C   0  0  0  0  0  0  0  0  0  0  0  0
   38.2188   -0.9132    8.1622 N   0  0  0  0  0  0  0  0  0  0  0  0
   40.1213    6.8346    9.3151 N   0  0  0  0  0  0  0  0  0  0  0  0
   40.8774    0.0722    8.7785 O   0  0  0  0  0  0  0  0  0  0  0  0
   39.8961    1.8594   10.0942 O   0  0  0  0  0  0  0  0  0  0  0  0
   38.3723    4.0144    7.4381 O   0  0  0  0  0  0  0  0  0  0  0  0
   38.9447    4.6222   10.6978 O   0  0  0  0  0  0  0  0  0  0  0  0
   38.3947    6.2875    6.9280 O   0  0  0  0  0  0  0  0  0  0  0  0
   37.1295    6.9892    6.9512 C   0  0  2  0  0  0  0  0  0  0  0  0
   37.0082    8.0625    5.8572 C   0  0  1  0  0  0  0  0  0  0  0  0
   37.9624    9.2546    6.1342 C   0  0  2  0  0  0  0  0  0  0  0  0
   37.6650    9.8467    7.4928 C   0  0  1  0  0  0  0  0  0  0  0  0
   37.8242    8.7511    8.5734 C   0  0  1  0  0  0  0  0  0  0  0  0
   37.4942    9.2519    9.9777 C   0  0  0  0  0  0  0  0  0  0  0  0
   38.5906   10.9740    7.7292 N   0  0  0  0  0  0  0  0  0  0  0  0
   36.9206    7.6262    8.2723 O   0  0  0  0  0  0  0  0  0  0  0  0
   37.2656    7.4451    4.5877 O   0  0  0  0  0  0  0  0  0  0  0  0
   37.7696   10.2686    5.1383 O   0  0  0  0  0  0  0  0  0  0  0  0
   36.2017    9.7971    9.9871 O   0  0  0  0  0  0  0  0  0  0  0  0
   41.2648   -1.3830    8.5624 C   0  0  1  0  0  0  0  0  0  0  0  0
   42.1918   -1.4286    7.3277 C   0  0  1  0  0  0  0  0  0  0  0  0
   42.6990   -2.8668    7.0616 C   0  0  2  0  0  0  0  0  0  0  0  0
   43.4520   -3.3920    8.2897 C   0  0  1  0  0  0  0  0  0  0  0  0
   42.5217   -3.3865    9.5295 C   0  0  0  0  0  0  0  0  0  0  0  0
   42.0450   -1.9527    9.7840 C   0  0  2  0  0  0  0  0  0  0  0  0
   43.9244   -4.7709    8.0327 N   0  0  0  0  0  0  0  0  0  0  0  0
   41.1885   -1.9866   10.9664 N   0  0  0  0  0  0  0  0  0  0  0  0
   41.4568   -0.9768    6.1694 O   0  0  0  0  0  0  0  0  0  0  0  0
   43.5774   -2.8465    5.9160 O   0  0  0  0  0  0  0  0  0  0  0  0
  1  2  1  0  0  0  0
  1 12  1  6  0  0  0
  1 13  1  0  0  0  0
  2  3  1  0  0  0  0
  2 10  1  6  0  0  0
  4  3  1  6  0  0  0
  4  5  1  0  0  0  0
  4 14  1  0  0  0  0
  5  6  1  0  0  0  0
  5 13  1  1  0  0  0
  6  7  1  0  0  0  0
  6 15  1  1  0  0  0
  7  8  1  0  0  0  0
  7 11  1  1  0  0  0
  8 14  1  0  0  0  0
  8 16  1  6  0  0  0
  9 11  1  0  0  0  0
 17 16  1  1  0  0  0
 17 18  1  0  0  0  0
 17 24  1  0  0  0  0
 18 19  1  0  0  0  0
 18 25  1  6  0  0  0
 19 20  1  0  0  0  0
 19 26  1  6  0  0  0
 20 21  1  0  0  0  0
 20 23  1  1  0  0  0
 21 22  1  1  0  0  0
 21 24  1  0  0  0  0
 22 27  1  0  0  0  0
 28 12  1  1  0  0  0
 28 29  1  0  0  0  0
 28 33  1  0  0  0  0
 29 30  1  0  0  0  0
 29 36  1  6  0  0  0
 30 31  1  0  0  0  0
 30 37  1  6  0  0  0
 31 32  1  0  0  0  0
 31 34  1  6  0  0  0
 32 33  1  0  0  0  0
 33 35  1  1  0  0  0
M  END
>  <CHROM.1>
-80.21490796,139.27633201,-132.49884422,176.35184629,55.33509439,160.85262665
39.57505726,3.49907849,8.15266577,0.29333737,-1.18762118,1.82308507

>  <Name>
1yrj_lig

>  <RI>
0

>  <Rbt.Current_Directory>
/home/itssahil/PROJECTS/Mol_Feturizer/New_Systems/rnas/1yrj

>  <Rbt.Executable>
rbdock ($Id: //depot/dev/client3/rdock/2013.1/src/exe/rbdock.cxx#4 $)

>  <Rbt.Library>
libRbt.so (2013.1, Build901 2013/11/27)

>  <Rbt.Parameter_File>
/export/apps/rDock/src/rDock_2013.1_src/data/scripts/dock_solv.prm

>  <Rbt.Receptor>
prm/pocket_docking_4.prm

>  <SCORE>
-24.7612

>  <SCORE.INTER>
-22.7536

>  <SCORE.INTER.CONST>
1

>  <SCORE.INTER.POLAR>
-1.72167

>  <SCORE.INTER.ROT>
6

>  <SCORE.INTER.SOLV>
13.4931

>  <SCORE.INTER.VDW>
-21.5279

>  <SCORE.INTER.norm>
-0.614963

>  <SCORE.INTRA>
-2.00756

>  <SCORE.INTRA.DIHEDRAL>
-4.57772

>  <SCORE.INTRA.DIHEDRAL.0>
15.6389

>  <SCORE.INTRA.POLAR>
0

>  <SCORE.INTRA.POLAR.0>
0

>  <SCORE.INTRA.REPUL>
0

>  <SCORE.INTRA.REPUL.0>
0

>  <SCORE.INTRA.SOLV>
2.1982

>  <SCORE.INTRA.SOLV.lig_0>
-90.9181

>  <SCORE.INTRA.VDW>
-0.817804

>  <SCORE.INTRA.VDW.0>
-3.14158

>  <SCORE.INTRA.norm>
-0.0542584

>  <SCORE.RESTR>
0

>  <SCORE.RESTR.CAVITY>
0

>  <SCORE.RESTR.norm>
0

>  <SCORE.SYSTEM>
0

>  <SCORE.SYSTEM.CONST>
0

>  <SCORE.SYSTEM.DIHEDRAL>
0

>  <SCORE.SYSTEM.SOLV>
0

>  <SCORE.SYSTEM.norm>
0

>  <SCORE.heavy>
37

>  <SCORE.norm>
-0.669222

>  <RMSD>
10.341

$$$$
1yrj_lig
 OpenBabel11021811423D
libRbt.so/2013.1/901 2013/11/27
 37 40  0  0  0  0  0  0  0  0999 V2000
   39.0879    0.9651    9.3250 C   0  0  1  0  0  0  0  0  0  0  0  0
   38.0505    1.3375    8.2477 C   0  0  1  0  0  0  0  0  0  0  0  0
   38.4380    2.6244    7.5020 C   0  0  0  0  0  0  0  0  0  0  0  0
   38.6596    3.7790    8.5135 C   0  0  1  0  0  0  0  0  0  0  0  0
   39.7386    3.3825    9.5389 C   0  0  1  0  0  0  0  0  0  0  0  0
   39.9548    4.5843   10.5523 C   0  0  1  0  0  0  0  0  0  0  0  0
   40.3905    5.8404    9.7805 C   0  0  1  0  0  0  0  0  0  0  0  0
   39.2983    6.1665    8.7330 C   0  0  2  0  0  0  0  0  0  0  0  0
   42.0266    7.0757   11.2982 C   0  0  0  0  0  0  0  0  0  0  0  0
   37.8339    0.2402    7.2906 N   0  0  0  0  0  0  0  0  0  0  0  0
   40.6452    6.9645   10.7338 N   0  0  0  0  0  0  0  0  0  0  0  0
   40.3122    0.4308    8.7875 O   0  0  0  0  0  0  0  0  0  0  0  0
   39.3132    2.1322   10.2000 O   0  0  0  0  0  0  0  0  0  0  0  0
   39.0736    5.0343    7.8460 O   0  0  0  0  0  0  0  0  0  0  0  0
   38.7314    4.8861   11.1902 O   0  0  0  0  0  0  0  0  0  0  0  0
   39.6534    7.2893    7.9250 O   0  0  0  0  0  0  0  0  0  0  0  0
   38.5507    7.7989    7.1388 C   0  0  2  0  0  0  0  0  0  0  0  0
   38.9919    8.7555    6.0191 C   0  0  1  0  0  0  0  0  0  0  0  0
   39.5242   10.0917    6.6017 C   0  0  2  0  0  0  0  0  0  0  0  0
   38.4623   10.7370    7.4623 C   0  0  1  0  0  0  0  0  0  0  0  0
   38.0614    9.7629    8.5954 C   0  0  1  0  0  0  0  0  0  0  0  0
   36.9537   10.3171    9.4886 C   0  0  0  0  0  0  0  0  0  0  0  0
   38.9993   12.0020    8.0053 N   0  0  0  0  0  0  0  0  0  0  0  0
   37.5791    8.4986    8.0114 O   0  0  0  0  0  0  0  0  0  0  0  0
   39.9723    8.0862    5.2130 O   0  0  0  0  0  0  0  0  0  0  0  0
   39.8556   10.9869    5.5313 O   0  0  0  0  0  0  0  0  0  0  0  0
   37.3928   11.5035   10.0949 O   0  0  0  0  0  0  0  0  0  0  0  0
   41.3965   -0.2216    9.6320 C   0  0  1  0  0  0  0  0  0  0  0  0
   40.9666   -1.6854    9.8732 C   0  0  1  0  0  0  0  0  0  0  0  0
   42.0425   -2.4602   10.6721 C   0  0  2  0  0  0  0  0  0  0  0  0
   43.3762   -2.4339    9.9162 C   0  0  1  0  0  0  0  0  0  0  0  0
   43.8386   -0.9704    9.6994 C   0  0  0  0  0  0  0  0  0  0  0  0
   42.7678   -0.2273    8.8937 C   0  0  2  0  0  0  0  0  0  0  0  0
   44.4028   -3.1666   10.6906 N   0  0  0  0  0  0  0  0  0  0  0  0
   43.2471    1.1379    8.6957 N   0  0  0  0  0  0  0  0  0  0  0  0
   39.7346   -1.6969   10.6269 O   0  0  0  0  0  0  0  0  0  0  0  0
   41.6013   -3.8239   10.8465 O   0  0  0  0  0  0  0  0  0  0  0  0
  1  2  1  0  0  0  0
  1 12  1  6  0  0  0
  1 13  1  0  0  0  0
  2  3  1  0  0  0  0
  2 10  1  6  0  0  0
  4  3  1  6  0  0  0
  4  5  1  0  0  0  0
  4 14  1  0  0  0  0
  5  6  1  0  0  0  0
  5 13  1  1  0  0  0
  6  7  1  0  0  0  0
  6 15  1  6  0  0  0
  7  8  1  0  0  0  0
  7 11  1  1  0  0  0
  8 14  1  0  0  0  0
  8 16  1  6  0  0  0
  9 11  1  0  0  0  0
 17 16  1  1  0  0  0
 17 18  1  0  0  0  0
 17 24  1  0  0  0  0
 18 19  1  0  0  0  0
 18 25  1  1  0  0  0
 19 20  1  0  0  0  0
 19 26  1  6  0  0  0
 20 21  1  0  0  0  0
 20 23  1  1  0  0  0
 21 22  1  6  0  0  0
 21 24  1  0  0  0  0
 22 27  1  0  0  0  0
 28 12  1  6  0  0  0
 28 29  1  0  0  0  0
 28 33  1  0  0  0  0
 29 30  1  0  0  0  0
 29 36  1  1  0  0  0
 30 31  1  0  0  0  0
 30 37  1  6  0  0  0
 31 32  1  0  0  0  0
 31 34  1  1  0  0  0
 32 33  1  0  0  0  0
 33 35  1  1  0  0  0
M  END
>  <CHROM.1>
-169.54034895,88.47806317,-167.49439854,-165.35678367,-60.64258491,82.19838771
39.95074808,4.25121671,8.89850568,1.26963479,0.55326848,3.12532591

>  <Name>
1yrj_lig

>  <RI>
0

>  <Rbt.Current_Directory>
/home/itssahil/PROJECTS/Mol_Feturizer/New_Systems/rnas/1yrj

>  <Rbt.Executable>
rbdock ($Id: //depot/dev/client3/rdock/2013.1/src/exe/rbdock.cxx#4 $)

>  <Rbt.Library>
libRbt.so (2013.1, Build901 2013/11/27)

>  <Rbt.Parameter_File>
/export/apps/rDock/src/rDock_2013.1_src/data/scripts/dock_solv.prm

>  <Rbt.Receptor>
prm/pocket_docking_8.prm

>  <SCORE>
-23.8234

>  <SCORE.INTER>
-18.2526

>  <SCORE.INTER.CONST>
1

>  <SCORE.INTER.POLAR>
-0.638568

>  <SCORE.INTER.ROT>
6

>  <SCORE.INTER.SOLV>
16.2494

>  <SCORE.INTER.VDW>
-23.0563

>  <SCORE.INTER.norm>
-0.493314

>  <SCORE.INTRA>
-5.57072

>  <SCORE.INTRA.DIHEDRAL>
-10.5453

>  <SCORE.INTRA.DIHEDRAL.0>
15.6389

>  <SCORE.INTRA.POLAR>
0

>  <SCORE.INTRA.POLAR.0>
0

>  <SCORE.INTRA.REPUL>
0

>  <SCORE.INTRA.REPUL.0>
0

>  <SCORE.INTRA.SOLV>
-1.57617

>  <SCORE.INTRA.SOLV.lig_0>
-90.9181

>  <SCORE.INTRA.VDW>
0.490038

>  <SCORE.INTRA.VDW.0>
-3.14158

>  <SCORE.INTRA.norm>
-0.15056

>  <SCORE.RESTR>
0

>  <SCORE.RESTR.CAVITY>
0

>  <SCORE.RESTR.norm>
0

>  <SCORE.SYSTEM>
0

>  <SCORE.SYSTEM.CONST>
0

>  <SCORE.SYSTEM.DIHEDRAL>
0

>  <SCORE.SYSTEM.SOLV>
0

>  <SCORE.SYSTEM.norm>
0

>  <SCORE.heavy>
37

>  <SCORE.norm>
-0.643874

>  <RMSD>
10.343

$$$$
1yrj_lig
 OpenBabel11021811423D
libRbt.so/2013.1/901 2013/11/27
 37 40  0  0  0  0  0  0  0  0999 V2000
   38.8387   -0.2659    9.4604 C   0  0  1  0  0  0  0  0  0  0  0  0
   37.7402    0.0142    8.4161 C   0  0  1  0  0  0  0  0  0  0  0  0
   38.1009    1.2039    7.5124 C   0  0  0  0  0  0  0  0  0  0  0  0
   38.4078    2.4546    8.3769 C   0  0  1  0  0  0  0  0  0  0  0  0
   39.5440    2.1440    9.3696 C   0  0  1  0  0  0  0  0  0  0  0  0
   39.8464    3.4418   10.2312 C   0  0  1  0  0  0  0  0  0  0  0  0
   40.2530    4.5970    9.3019 C   0  0  1  0  0  0  0  0  0  0  0  0
   39.1011    4.8355    8.2956 C   0  0  2  0  0  0  0  0  0  0  0  0
   41.9301    5.8344   10.7725 C   0  0  0  0  0  0  0  0  0  0  0  0
   37.4428   -1.1737    7.5991 N   0  0  0  0  0  0  0  0  0  0  0  0
   40.5887    5.8102   10.1099 N   0  0  0  0  0  0  0  0  0  0  0  0
   40.0160   -0.8844    8.9084 O   0  0  0  0  0  0  0  0  0  0  0  0
   39.1407    0.9825   10.1878 O   0  0  0  0  0  0  0  0  0  0  0  0
   38.7995    3.6206    7.5526 O   0  0  0  0  0  0  0  0  0  0  0  0
   38.6725    3.8399   10.9079 O   0  0  0  0  0  0  0  0  0  0  0  0
   39.4225    5.8564    7.3501 O   0  0  0  0  0  0  0  0  0  0  0  0
   38.3035    6.2333    6.5138 C   0  0  2  0  0  0  0  0  0  0  0  0
   38.7197    7.0037    5.2502 C   0  0  1  0  0  0  0  0  0  0  0  0
   39.2548    8.4162    5.6064 C   0  0  2  0  0  0  0  0  0  0  0  0
   38.2045    9.1856    6.3743 C   0  0  1  0  0  0  0  0  0  0  0  0
   37.8289    8.4002    7.6532 C   0  0  1  0  0  0  0  0  0  0  0  0
   36.7340    9.0845    8.4685 C   0  0  0  0  0  0  0  0  0  0  0  0
   38.7439   10.5215    6.7025 N   0  0  0  0  0  0  0  0  0  0  0  0
   37.3434    7.0585    7.2834 O   0  0  0  0  0  0  0  0  0  0  0  0
   39.6896    6.2189    4.5413 O   0  0  0  0  0  0  0  0  0  0  0  0
   39.5625    9.1333    4.4031 O   0  0  0  0  0  0  0  0  0  0  0  0
   37.1918   10.3360    8.9068 O   0  0  0  0  0  0  0  0  0  0  0  0
   41.0738   -1.5912    9.7425 C   0  0  1  0  0  0  0  0  0  0  0  0
   40.3950   -2.8148   10.3967 C   0  0  1  0  0  0  0  0  0  0  0  0
   41.4104   -3.6449   11.2189 C   0  0  2  0  0  0  0  0  0  0  0  0
   42.5565   -4.1147   10.3152 C   0  0  1  0  0  0  0  0  0  0  0  0
   43.2709   -2.8943    9.6804 C   0  0  0  0  0  0  0  0  0  0  0  0
   42.2524   -2.0969    8.8589 C   0  0  2  0  0  0  0  0  0  0  0  0
   43.5290   -4.8979   11.1097 N   0  0  0  0  0  0  0  0  0  0  0  0
   42.9656   -0.9696    8.2646 N   0  0  0  0  0  0  0  0  0  0  0  0
   39.3493   -2.3569   11.2814 O   0  0  0  0  0  0  0  0  0  0  0  0
   40.7298   -4.7854   11.7853 O   0  0  0  0  0  0  0  0  0  0  0  0
  1  2  1  0  0  0  0
  1 12  1  6  0  0  0
  1 13  1  0  0  0  0
  2  3  1  0  0  0  0
  2 10  1  6  0  0  0
  4  3  1  6  0  0  0
  4  5  1  0  0  0  0
  4 14  1  0  0  0  0
  5  6  1  0  0  0  0
  5 13  1  1  0  0  0
  6  7  1  0  0  0  0
  6 15  1  6  0  0  0
  7  8  1  0  0  0  0
  7 11  1  1  0  0  0
  8 14  1  0  0  0  0
  8 16  1  6  0  0  0
  9 11  1  0  0  0  0
 17 16  1  1  0  0  0
 17 18  1  0  0  0  0
 17 24  1  0  0  0  0
 18 19  1  0  0  0  0
 18 25  1  1  0  0  0
 19 20  1  0  0  0  0
 19 26  1  6  0  0  0
 20 21  1  0  0  0  0
 20 23  1  1  0  0  0
 21 22  1  6  0  0  0
 21 24  1  0  0  0  0
 22 27  1  0  0  0  0
 28 12  1  6  0  0  0
 28 29  1  0  0  0  0
 28 33  1  0  0  0  0
 29 30  1  0  0  0  0
 29 36  1  1  0  0  0
 30 31  1  0  0  0  0
 30 37  1  6  0  0  0
 31 32  1  0  0  0  0
 31 34  1  1  0  0  0
 32 33  1  0  0  0  0
 33 35  1  1  0  0  0
M  END
>  <CHROM.1>
-163.18712322,78.02818622,-171.94259363,-163.04899412,-62.38615792,64.15113582
39.62880353,2.85096022,8.61373111,0.25201544,-1.33424763,1.54199261

>  <Name>
1yrj_lig

>  <RI>
0

>  <Rbt.Current_Directory>
/home/itssahil/PROJECTS/Mol_Feturizer/New_Systems/rnas/1yrj

>  <Rbt.Executable>
rbdock ($Id: //depot/dev/client3/rdock/2013.1/src/exe/rbdock.cxx#4 $)

>  <Rbt.Library>
libRbt.so (2013.1, Build901 2013/11/27)

>  <Rbt.Parameter_File>
/export/apps/rDock/src/rDock_2013.1_src/data/scripts/dock_solv.prm

>  <Rbt.Receptor>
prm/pocket_docking_3.prm

>  <SCORE>
-27.0343

>  <SCORE.INTER>
-21.4515

>  <SCORE.INTER.CONST>
1

>  <SCORE.INTER.POLAR>
-1.31964

>  <SCORE.INTER.ROT>
6

>  <SCORE.INTER.SOLV>
13.3034

>  <SCORE.INTER.VDW>
-21.9367

>  <SCORE.INTER.norm>
-0.57977

>  <SCORE.INTRA>
-5.89398

>  <SCORE.INTRA.DIHEDRAL>
-12.2545

>  <SCORE.INTRA.DIHEDRAL.0>
15.6389

>  <SCORE.INTRA.POLAR>
0

>  <SCORE.INTRA.POLAR.0>
0

>  <SCORE.INTRA.REPUL>
0

>  <SCORE.INTRA.REPUL.0>
0

>  <SCORE.INTRA.SOLV>
-1.73634

>  <SCORE.INTRA.SOLV.lig_0>
-90.9181

>  <SCORE.INTRA.VDW>
1.10143

>  <SCORE.INTRA.VDW.0>
-3.14158

>  <SCORE.INTRA.norm>
-0.159297

>  <SCORE.RESTR>
0.311144

>  <SCORE.RESTR.CAVITY>
0.311144

>  <SCORE.RESTR.norm>
0.0084093

>  <SCORE.SYSTEM>
0

>  <SCORE.SYSTEM.CONST>
0

>  <SCORE.SYSTEM.DIHEDRAL>
0

>  <SCORE.SYSTEM.SOLV>
0

>  <SCORE.SYSTEM.norm>
0

>  <SCORE.heavy>
37

>  <SCORE.norm>
-0.730657

>  <RMSD>
10.345

$$$$
1yrj_lig
 OpenBabel11021811423D
libRbt.so/2013.1/901 2013/11/27
 37 40  0  0  0  0  0  0  0  0999 V2000
   39.7334    0.5744    9.5068 C   0  0  1  0  0  0  0  0  0  0  0  0
   38.3615    0.4028    8.8256 C   0  0  1  0  0  0  0  0  0  0  0  0
   38.1147    1.4808    7.7582 C   0  0  0  0  0  0  0  0  0  0  0  0
   38.2778    2.8922    8.3802 C   0  0  1  0  0  0  0  0  0  0  0  0
   39.6792    3.0355    9.0035 C   0  0  1  0  0  0  0  0  0  0  0  0
   39.8240    4.4904    9.6201 C   0  0  1  0  0  0  0  0  0  0  0  0
   39.6223    5.5425    8.5175 C   0  0  1  0  0  0  0  0  0  0  0  0
   38.2231    5.3243    7.8921 C   0  0  2  0  0  0  0  0  0  0  0  0
   41.1606    7.2499    9.6242 C   0  0  0  0  0  0  0  0  0  0  0  0
   38.2023   -0.9387    8.2406 N   0  0  0  0  0  0  0  0  0  0  0  0
   39.8072    6.9160    9.0802 N   0  0  0  0  0  0  0  0  0  0  0  0
   40.8430    0.1814    8.6776 O   0  0  0  0  0  0  0  0  0  0  0  0
   39.8556    1.9601   10.0003 O   0  0  0  0  0  0  0  0  0  0  0  0
   38.0876    3.9681    7.3807 O   0  0  0  0  0  0  0  0  0  0  0  0
   38.8132    4.6939   10.5853 O   0  0  0  0  0  0  0  0  0  0  0  0
   37.9765    6.2244    6.8111 O   0  0  0  0  0  0  0  0  0  0  0  0
   37.5284    7.5298    7.2455 C   0  0  2  0  0  0  0  0  0  0  0  0
   36.7082    8.2775    6.1817 C   0  0  1  0  0  0  0  0  0  0  0  0
   37.5995    8.7028    4.9845 C   0  0  2  0  0  0  0  0  0  0  0  0
   38.7422    9.5628    5.4738 C   0  0  1  0  0  0  0  0  0  0  0  0
   39.5645    8.7730    6.5195 C   0  0  1  0  0  0  0  0  0  0  0  0
   40.7160    9.5872    7.1053 C   0  0  0  0  0  0  0  0  0  0  0  0
   39.5736    9.9472    4.3144 N   0  0  0  0  0  0  0  0  0  0  0  0
   38.6877    8.3672    7.6325 O   0  0  0  0  0  0  0  0  0  0  0  0
   35.6199    7.4352    5.7756 O   0  0  0  0  0  0  0  0  0  0  0  0
   36.8209    9.4612    4.0488 O   0  0  0  0  0  0  0  0  0  0  0  0
   40.1989   10.6458    7.8667 O   0  0  0  0  0  0  0  0  0  0  0  0
   41.2884   -1.2601    8.4828 C   0  0  1  0  0  0  0  0  0  0  0  0
   42.2124   -1.2877    7.2453 C   0  0  1  0  0  0  0  0  0  0  0  0
   42.7767   -2.7081    6.9999 C   0  0  2  0  0  0  0  0  0  0  0  0
   43.5545   -3.1829    8.2330 C   0  0  1  0  0  0  0  0  0  0  0  0
   42.6288   -3.1954    9.4763 C   0  0  0  0  0  0  0  0  0  0  0  0
   42.0951   -1.7783    9.7101 C   0  0  2  0  0  0  0  0  0  0  0  0
   44.0816   -4.5454    7.9959 N   0  0  0  0  0  0  0  0  0  0  0  0
   41.2446   -1.8281   10.8963 N   0  0  0  0  0  0  0  0  0  0  0  0
   41.4559   -0.8844    6.0830 O   0  0  0  0  0  0  0  0  0  0  0  0
   43.6498   -2.6704    5.8506 O   0  0  0  0  0  0  0  0  0  0  0  0
  1  2  1  0  0  0  0
  1 12  1  6  0  0  0
  1 13  1  0  0  0  0
  2  3  1  0  0  0  0
  2 10  1  6  0  0  0
  4  3  1  6  0  0  0
  4  5  1  0  0  0  0
  4 14  1  0  0  0  0
  5  6  1  0  0  0  0
  5 13  1  1  0  0  0
  6  7  1  0  0  0  0
  6 15  1  1  0  0  0
  7  8  1  0  0  0  0
  7 11  1  1  0  0  0
  8 14  1  0  0  0  0
  8 16  1  6  0  0  0
  9 11  1  0  0  0  0
 17 16  1  6  0  0  0
 17 18  1  0  0  0  0
 17 24  1  0  0  0  0
 18 19  1  0  0  0  0
 18 25  1  6  0  0  0
 19 20  1  0  0  0  0
 19 26  1  6  0  0  0
 20 21  1  0  0  0  0
 20 23  1  6  0  0  0
 21 22  1  1  0  0  0
 21 24  1  0  0  0  0
 22 27  1  0  0  0  0
 28 12  1  1  0  0  0
 28 29  1  0  0  0  0
 28 33  1  0  0  0  0
 29 30  1  0  0  0  0
 29 36  1  6  0  0  0
 30 31  1  0  0  0  0
 30 37  1  6  0  0  0
 31 32  1  0  0  0  0
 31 34  1  6  0  0  0
 32 33  1  0  0  0  0
 33 35  1  1  0  0  0
M  END
>  <CHROM.1>
-80.51564573,62.86361329,-82.18663409,-155.24096544,66.73198881,164.13760349
39.80174309,3.54250653,7.76851094,0.65184375,-1.16965910,2.09460632

>  <Name>
1yrj_lig

>  <RI>
0

>  <Rbt.Current_Directory>
/home/itssahil/PROJECTS/Mol_Feturizer/New_Systems/rnas/1yrj

>  <Rbt.Executable>
rbdock ($Id: //depot/dev/client3/rdock/2013.1/src/exe/rbdock.cxx#4 $)

>  <Rbt.Library>
libRbt.so (2013.1, Build901 2013/11/27)

>  <Rbt.Parameter_File>
/export/apps/rDock/src/rDock_2013.1_src/data/scripts/dock_solv.prm

>  <Rbt.Receptor>
prm/pocket_docking_7.prm

>  <SCORE>
-28.3493

>  <SCORE.INTER>
-27.5864

>  <SCORE.INTER.CONST>
1

>  <SCORE.INTER.POLAR>
-3.33735

>  <SCORE.INTER.ROT>
6

>  <SCORE.INTER.SOLV>
13.1206

>  <SCORE.INTER.VDW>
-19.2399

>  <SCORE.INTER.norm>
-0.745577

>  <SCORE.INTRA>
-0.762961

>  <SCORE.INTRA.DIHEDRAL>
-7.56474

>  <SCORE.INTRA.DIHEDRAL.0>
15.6389

>  <SCORE.INTRA.POLAR>
0

>  <SCORE.INTRA.POLAR.0>
0

>  <SCORE.INTRA.REPUL>
0.00347987

>  <SCORE.INTRA.REPUL.0>
0

>  <SCORE.INTRA.SOLV>
2.48846

>  <SCORE.INTRA.SOLV.lig_0>
-90.9181

>  <SCORE.INTRA.VDW>
1.75778

>  <SCORE.INTRA.VDW.0>
-3.14158

>  <SCORE.INTRA.norm>
-0.0206206

>  <SCORE.RESTR>
0

>  <SCORE.RESTR.CAVITY>
0

>  <SCORE.RESTR.norm>
0

>  <SCORE.SYSTEM>
0

>  <SCORE.SYSTEM.CONST>
0

>  <SCORE.SYSTEM.DIHEDRAL>
0

>  <SCORE.SYSTEM.SOLV>
0

>  <SCORE.SYSTEM.norm>
0

>  <SCORE.heavy>
37

>  <SCORE.norm>
-0.766198

>  <RMSD>
10.345

$$$$
1yrj_lig
 OpenBabel11021811423D
libRbt.so/2013.1/901 2013/11/27
 37 40  0  0  0  0  0  0  0  0999 V2000
   39.2694    0.3464    9.4158 C   0  0  1  0  0  0  0  0  0  0  0  0
   38.0470    0.5375    8.4967 C   0  0  1  0  0  0  0  0  0  0  0  0
   38.1826    1.7919    7.6190 C   0  0  0  0  0  0  0  0  0  0  0  0
   38.4373    3.0376    8.5072 C   0  0  1  0  0  0  0  0  0  0  0  0
   39.6952    2.8222    9.3700 C   0  0  1  0  0  0  0  0  0  0  0  0
   39.9400    4.1143   10.2580 C   0  0  1  0  0  0  0  0  0  0  0  0
   40.1222    5.3405    9.3488 C   0  0  1  0  0  0  0  0  0  0  0  0
   38.8553    5.4830    8.4707 C   0  0  2  0  0  0  0  0  0  0  0  0
   41.7210    6.6021   10.8846 C   0  0  0  0  0  0  0  0  0  0  0  0
   37.7996   -0.6465    7.6577 N   0  0  0  0  0  0  0  0  0  0  0  0
   40.4037    6.5543   10.1763 N   0  0  0  0  0  0  0  0  0  0  0  0
   40.4451   -0.1150    8.7245 O   0  0  0  0  0  0  0  0  0  0  0  0
   39.5056    1.5941   10.1682 O   0  0  0  0  0  0  0  0  0  0  0  0
   38.6143    4.2691    7.7043 O   0  0  0  0  0  0  0  0  0  0  0  0
   38.8042    4.3528   11.0628 O   0  0  0  0  0  0  0  0  0  0  0  0
   38.9663    6.5667    7.5472 O   0  0  0  0  0  0  0  0  0  0  0  0
   37.6866    7.1175    7.1563 C   0  0  2  0  0  0  0  0  0  0  0  0
   37.7960    8.2032    6.0733 C   0  0  1  0  0  0  0  0  0  0  0  0
   38.4625    9.4878    6.6337 C   0  0  2  0  0  0  0  0  0  0  0  0
   37.6771    9.9994    7.8196 C   0  0  1  0  0  0  0  0  0  0  0  0
   37.6102    8.8964    8.9023 C   0  0  1  0  0  0  0  0  0  0  0  0
   36.7904    9.3122   10.1217 C   0  0  0  0  0  0  0  0  0  0  0  0
   38.3374   11.2176    8.3329 N   0  0  0  0  0  0  0  0  0  0  0  0
   36.9912    7.6851    8.3349 O   0  0  0  0  0  0  0  0  0  0  0  0
   38.5183    7.6591    4.9592 O   0  0  0  0  0  0  0  0  0  0  0  0
   38.4803   10.5033    5.6211 O   0  0  0  0  0  0  0  0  0  0  0  0
   36.3903    8.1677   10.8273 O   0  0  0  0  0  0  0  0  0  0  0  0
   41.3766   -1.1922    9.2597 C   0  0  1  0  0  0  0  0  0  0  0  0
   40.6227   -2.5367    9.1593 C   0  0  1  0  0  0  0  0  0  0  0  0
   41.5153   -3.7144    9.6202 C   0  0  2  0  0  0  0  0  0  0  0  0
   42.7872   -3.7730    8.7658 C   0  0  1  0  0  0  0  0  0  0  0  0
   43.5735   -2.4426    8.8862 C   0  0  0  0  0  0  0  0  0  0  0  0
   42.6780   -1.2939    8.4102 C   0  0  2  0  0  0  0  0  0  0  0  0
   43.6409   -4.8939    9.2189 N   0  0  0  0  0  0  0  0  0  0  0  0
   43.4582   -0.0643    8.5218 N   0  0  0  0  0  0  0  0  0  0  0  0
   39.4531   -2.4856   10.0051 O   0  0  0  0  0  0  0  0  0  0  0  0
   40.7717   -4.9443    9.4825 O   0  0  0  0  0  0  0  0  0  0  0  0
  1  2  1  0  0  0  0
  1 12  1  6  0  0  0
  1 13  1  0  0  0  0
  2  3  1  0  0  0  0
  2 10  1  6  0  0  0
  4  3  1  6  0  0  0
  4  5  1  0  0  0  0
  4 14  1  0  0  0  0
  5  6  1  0  0  0  0
  5 13  1  1  0  0  0
  6  7  1  0  0  0  0
  6 15  1  1  0  0  0
  7  8  1  0  0  0  0
  7 11  1  1  0  0  0
  8 14  1  0  0  0  0
  8 16  1  6  0  0  0
  9 11  1  0  0  0  0
 17 16  1  1  0  0  0
 17 18  1  0  0  0  0
 17 24  1  0  0  0  0
 18 19  1  0  0  0  0
 18 25  1  6  0  0  0
 19 20  1  0  0  0  0
 19 26  1  6  0  0  0
 20 21  1  0  0  0  0
 20 23  1  1  0  0  0
 21 22  1  1  0  0  0
 21 24  1  0  0  0  0
 22 27  1  0  0  0  0
 28 12  1  6  0  0  0
 28 29  1  0  0  0  0
 28 33  1  0  0  0  0
 29 30  1  0  0  0  0
 29 36  1  1  0  0  0
 30 31  1  0  0  0  0
 30 37  1  6  0  0  0
 31 32  1  0  0  0  0
 31 34  1  1  0  0  0
 32 33  1  0  0  0  0
 33 35  1  1  0  0  0
M  END
>  <CHROM.1>
-137.38242604,68.61462056,-153.78518673,-175.10715676,160.04433020,71.40950891
39.52504164,3.37790658,8.69365966,-0.83041830,-1.13074818,0.58969019

>  <Name>
1yrj_lig

>  <RI>
0

>  <Rbt.Current_Directory>
/home/itssahil/PROJECTS/Mol_Feturizer/New_Systems/rnas/1yrj

>  <Rbt.Executable>
rbdock ($Id: //depot/dev/client3/rdock/2013.1/src/exe/rbdock.cxx#4 $)

>  <Rbt.Library>
libRbt.so (2013.1, Build901 2013/11/27)

>  <Rbt.Parameter_File>
/export/apps/rDock/src/rDock_2013.1_src/data/scripts/dock_solv.prm

>  <Rbt.Receptor>
prm/pocket_docking_6.prm

>  <SCORE>
-23.0747

>  <SCORE.INTER>
-20.6971

>  <SCORE.INTER.CONST>
1

>  <SCORE.INTER.POLAR>
-1.32354

>  <SCORE.INTER.ROT>
6

>  <SCORE.INTER.SOLV>
12.0481

>  <SCORE.INTER.VDW>
-21.0023

>  <SCORE.INTER.norm>
-0.55938

>  <SCORE.INTRA>
-2.37765

>  <SCORE.INTRA.DIHEDRAL>
-4.84294

>  <SCORE.INTRA.DIHEDRAL.0>
15.6389

>  <SCORE.INTRA.POLAR>
0

>  <SCORE.INTRA.POLAR.0>
0

>  <SCORE.INTRA.REPUL>
0

>  <SCORE.INTRA.REPUL.0>
0

>  <SCORE.INTRA.SOLV>
-1.14582

>  <SCORE.INTRA.SOLV.lig_0>
-90.9181

>  <SCORE.INTRA.VDW>
0.616732

>  <SCORE.INTRA.VDW.0>
-3.14158

>  <SCORE.INTRA.norm>
-0.0642608

>  <SCORE.RESTR>
0

>  <SCORE.RESTR.CAVITY>
0

>  <SCORE.RESTR.norm>
0

>  <SCORE.SYSTEM>
0

>  <SCORE.SYSTEM.CONST>
0

>  <SCORE.SYSTEM.DIHEDRAL>
0

>  <SCORE.SYSTEM.SOLV>
0

>  <SCORE.SYSTEM.norm>
0

>  <SCORE.heavy>
37

>  <SCORE.norm>
-0.623641

>  <RMSD>
10.359

$$$$
1yrj_lig
 OpenBabel11021811423D
libRbt.so/2013.1/901 2013/11/27
 37 40  0  0  0  0  0  0  0  0999 V2000
   39.6201    0.1644    9.3696 C   0  0  1  0  0  0  0  0  0  0  0  0
   38.3127    0.2917    8.5633 C   0  0  1  0  0  0  0  0  0  0  0  0
   38.2904    1.5693    7.7091 C   0  0  0  0  0  0  0  0  0  0  0  0
   38.5401    2.8115    8.6035 C   0  0  1  0  0  0  0  0  0  0  0  0
   39.8794    2.6635    9.3501 C   0  0  1  0  0  0  0  0  0  0  0  0
   40.1163    3.9514   10.2463 C   0  0  1  0  0  0  0  0  0  0  0  0
   40.1392    5.2046    9.3561 C   0  0  1  0  0  0  0  0  0  0  0  0
   38.7944    5.2796    8.5932 C   0  0  2  0  0  0  0  0  0  0  0  0
   41.8434    6.7076   10.5151 C   0  0  0  0  0  0  0  0  0  0  0  0
   38.0705   -0.8895    7.7188 N   0  0  0  0  0  0  0  0  0  0  0  0
   40.4125    6.4180   10.1870 N   0  0  0  0  0  0  0  0  0  0  0  0
   40.7587   -0.2040    8.5691 O   0  0  0  0  0  0  0  0  0  0  0  0
   39.8396    1.4101   10.1303 O   0  0  0  0  0  0  0  0  0  0  0  0
   38.5667    4.0676    7.8198 O   0  0  0  0  0  0  0  0  0  0  0  0
   39.0416    4.0980   11.1508 O   0  0  0  0  0  0  0  0  0  0  0  0
   38.7545    6.3862    7.6912 O   0  0  0  0  0  0  0  0  0  0  0  0
   37.4359    6.9667    7.5571 C   0  0  2  0  0  0  0  0  0  0  0  0
   37.3714    8.0986    6.5187 C   0  0  1  0  0  0  0  0  0  0  0  0
   38.1491    9.3501    7.0058 C   0  0  2  0  0  0  0  0  0  0  0  0
   37.5950    9.8159    8.3327 C   0  0  1  0  0  0  0  0  0  0  0  0
   37.7009    8.6663    9.3625 C   0  0  1  0  0  0  0  0  0  0  0  0
   37.1171    9.0354   10.7244 C   0  0  0  0  0  0  0  0  0  0  0  0
   38.3571   11.0033    8.7717 N   0  0  0  0  0  0  0  0  0  0  0  0
   36.9699    7.4878    8.8633 O   0  0  0  0  0  0  0  0  0  0  0  0
   37.8756    7.5976    5.2722 O   0  0  0  0  0  0  0  0  0  0  0  0
   38.0057   10.4096    6.0499 O   0  0  0  0  0  0  0  0  0  0  0  0
   35.7747    9.4124   10.5700 O   0  0  0  0  0  0  0  0  0  0  0  0
   41.9563   -0.9766    9.1014 C   0  0  1  0  0  0  0  0  0  0  0  0
   41.4192   -2.3002    9.6893 C   0  0  1  0  0  0  0  0  0  0  0  0
   42.5744   -3.1949   10.2005 C   0  0  2  0  0  0  0  0  0  0  0  0
   43.5478   -3.4985    9.0554 C   0  0  1  0  0  0  0  0  0  0  0  0
   44.1233   -2.1794    8.4795 C   0  0  0  0  0  0  0  0  0  0  0  0
   42.9656   -1.3174    7.9652 C   0  0  2  0  0  0  0  0  0  0  0  0
   44.6552   -4.3447    9.5534 N   0  0  0  0  0  0  0  0  0  0  0  0
   43.5484   -0.0959    7.4164 N   0  0  0  0  0  0  0  0  0  0  0  0
   40.5414   -2.0022   10.7969 O   0  0  0  0  0  0  0  0  0  0  0  0
   42.0190   -4.4244   10.7146 O   0  0  0  0  0  0  0  0  0  0  0  0
  1  2  1  0  0  0  0
  1 12  1  6  0  0  0
  1 13  1  0  0  0  0
  2  3  1  0  0  0  0
  2 10  1  6  0  0  0
  4  3  1  6  0  0  0
  4  5  1  0  0  0  0
  4 14  1  0  0  0  0
  5  6  1  0  0  0  0
  5 13  1  1  0  0  0
  6  7  1  0  0  0  0
  6 15  1  1  0  0  0
  7  8  1  0  0  0  0
  7 11  1  1  0  0  0
  8 14  1  0  0  0  0
  8 16  1  6  0  0  0
  9 11  1  0  0  0  0
 17 16  1  1  0  0  0
 17 18  1  0  0  0  0
 17 24  1  0  0  0  0
 18 19  1  0  0  0  0
 18 25  1  6  0  0  0
 19 20  1  0  0  0  0
 19 26  1  6  0  0  0
 20 21  1  0  0  0  0
 20 23  1  1  0  0  0
 21 22  1  1  0  0  0
 21 24  1  0  0  0  0
 22 27  1  0  0  0  0
 28 12  1  6  0  0  0
 28 29  1  0  0  0  0
 28 33  1  0  0  0  0
 29 30  1  0  0  0  0
 29 36  1  1  0  0  0
 30 31  1  0  0  0  0
 30 37  1  6  0  0  0
 31 32  1  0  0  0  0
 31 34  1  1  0  0  0
 32 33  1  0  0  0  0
 33 35  1  1  0  0  0
M  END
>  <CHROM.1>
-151.63395621,82.43883852,-146.34125519,-176.25330182,57.46095535,57.01587121
39.71704757,3.38033264,8.86063340,-0.34452900,-1.16798086,1.10662950

>  <Name>
1yrj_lig

>  <RI>
0

>  <Rbt.Current_Directory>
/home/itssahil/PROJECTS/Mol_Feturizer/New_Systems/rnas/1yrj

>  <Rbt.Executable>
rbdock ($Id: //depot/dev/client3/rdock/2013.1/src/exe/rbdock.cxx#4 $)

>  <Rbt.Library>
libRbt.so (2013.1, Build901 2013/11/27)

>  <Rbt.Parameter_File>
/export/apps/rDock/src/rDock_2013.1_src/data/scripts/dock_solv.prm

>  <Rbt.Receptor>
prm/pocket_docking_5.prm

>  <SCORE>
-22.4192

>  <SCORE.INTER>
-18.6682

>  <SCORE.INTER.CONST>
1

>  <SCORE.INTER.POLAR>
-0.930847

>  <SCORE.INTER.ROT>
6

>  <SCORE.INTER.SOLV>
12.3897

>  <SCORE.INTER.VDW>
-21.0725

>  <SCORE.INTER.norm>
-0.504545

>  <SCORE.INTRA>
-3.75101

>  <SCORE.INTRA.DIHEDRAL>
-7.52589

>  <SCORE.INTRA.DIHEDRAL.0>
15.6389

>  <SCORE.INTRA.POLAR>
0

>  <SCORE.INTRA.POLAR.0>
0

>  <SCORE.INTRA.REPUL>
0

>  <SCORE.INTRA.REPUL.0>
0

>  <SCORE.INTRA.SOLV>
-1.0797

>  <SCORE.INTRA.SOLV.lig_0>
-90.9181

>  <SCORE.INTRA.VDW>
0.551782

>  <SCORE.INTRA.VDW.0>
-3.14158

>  <SCORE.INTRA.norm>
-0.101379

>  <SCORE.RESTR>
0

>  <SCORE.RESTR.CAVITY>
0

>  <SCORE.RESTR.norm>
0

>  <SCORE.SYSTEM>
0

>  <SCORE.SYSTEM.CONST>
0

>  <SCORE.SYSTEM.DIHEDRAL>
0

>  <SCORE.SYSTEM.SOLV>
0

>  <SCORE.SYSTEM.norm>
0

>  <SCORE.heavy>
37

>  <SCORE.norm>
-0.605924

>  <RMSD>
10.360

$$$$
1yrj_lig
 OpenBabel11021811423D
libRbt.so/2013.1/901 2013/11/27
 37 40  0  0  0  0  0  0  0  0999 V2000
   39.3347    0.2232    9.3981 C   0  0  1  0  0  0  0  0  0  0  0  0
   38.0432    0.3364    8.5647 C   0  0  1  0  0  0  0  0  0  0  0  0
   38.0870    1.5346    7.6029 C   0  0  0  0  0  0  0  0  0  0  0  0
   38.3821    2.8380    8.3902 C   0  0  1  0  0  0  0  0  0  0  0  0
   39.7052    2.6975    9.1665 C   0  0  1  0  0  0  0  0  0  0  0  0
   39.9895    4.0470    9.9514 C   0  0  1  0  0  0  0  0  0  0  0  0
   40.0779    5.2157    8.9566 C   0  0  1  0  0  0  0  0  0  0  0  0
   38.7461    5.2824    8.1703 C   0  0  2  0  0  0  0  0  0  0  0  0
   41.0041    7.5913    8.8816 C   0  0  0  0  0  0  0  0  0  0  0  0
   37.7579   -0.9021    7.8220 N   0  0  0  0  0  0  0  0  0  0  0  0
   40.3958    6.4838    9.6834 N   0  0  0  0  0  0  0  0  0  0  0  0
   40.4645   -0.2626    8.6493 O   0  0  0  0  0  0  0  0  0  0  0  0
   39.6011    1.5197   10.0515 O   0  0  0  0  0  0  0  0  0  0  0  0
   38.4732    4.0187    7.5013 O   0  0  0  0  0  0  0  0  0  0  0  0
   38.9125    4.3183   10.8239 O   0  0  0  0  0  0  0  0  0  0  0  0
   38.7654    6.3069    7.1755 O   0  0  0  0  0  0  0  0  0  0  0  0
   37.4543    6.8452    6.8843 C   0  0  2  0  0  0  0  0  0  0  0  0
   37.4846    8.0207    5.8939 C   0  0  1  0  0  0  0  0  0  0  0  0
   38.1353    9.2756    6.5343 C   0  0  2  0  0  0  0  0  0  0  0  0
   37.3862    9.6595    7.7897 C   0  0  1  0  0  0  0  0  0  0  0  0
   37.3987    8.4682    8.7767 C   0  0  1  0  0  0  0  0  0  0  0  0
   36.6195    8.7528   10.0587 C   0  0  0  0  0  0  0  0  0  0  0  0
   38.0307   10.8521    8.3778 N   0  0  0  0  0  0  0  0  0  0  0  0
   36.7929    7.2884    8.1336 O   0  0  0  0  0  0  0  0  0  0  0  0
   38.1748    7.5962    4.7096 O   0  0  0  0  0  0  0  0  0  0  0  0
   38.0794   10.3722    5.6116 O   0  0  0  0  0  0  0  0  0  0  0  0
   37.2333    9.8054   10.7539 O   0  0  0  0  0  0  0  0  0  0  0  0
   40.9082   -1.7177    8.6307 C   0  0  1  0  0  0  0  0  0  0  0  0
   40.6484   -2.2909   10.0413 C   0  0  1  0  0  0  0  0  0  0  0  0
   41.0067   -3.7953   10.1087 C   0  0  2  0  0  0  0  0  0  0  0  0
   40.1842   -4.5762    9.0769 C   0  0  1  0  0  0  0  0  0  0  0  0
   40.4633   -4.0355    7.6513 C   0  0  0  0  0  0  0  0  0  0  0  0
   40.0868   -2.5509    7.6027 C   0  0  2  0  0  0  0  0  0  0  0  0
   40.5396   -6.0116    9.1391 N   0  0  0  0  0  0  0  0  0  0  0  0
   40.3464   -2.0846    6.2433 N   0  0  0  0  0  0  0  0  0  0  0  0
   41.4642   -1.5789   10.9971 O   0  0  0  0  0  0  0  0  0  0  0  0
   40.7220   -4.2830   11.4375 O   0  0  0  0  0  0  0  0  0  0  0  0
  1  2  1  0  0  0  0
  1 12  1  6  0  0  0
  1 13  1  0  0  0  0
  2  3  1  0  0  0  0
  2 10  1  6  0  0  0
  4  3  1  6  0  0  0
  4  5  1  0  0  0  0
  4 14  1  0  0  0  0
  5  6  1  0  0  0  0
  5 13  1  1  0  0  0
  6  7  1  0  0  0  0
  6 15  1  1  0  0  0
  7  8  1  0  0  0  0
  7 11  1  1  0  0  0
  8 14  1  0  0  0  0
  8 16  1  6  0  0  0
  9 11  1  0  0  0  0
 17 16  1  1  0  0  0
 17 18  1  0  0  0  0
 17 24  1  0  0  0  0
 18 19  1  0  0  0  0
 18 25  1  6  0  0  0
 19 20  1  0  0  0  0
 19 26  1  6  0  0  0
 20 21  1  0  0  0  0
 20 23  1  1  0  0  0
 21 22  1  1  0  0  0
 21 24  1  0  0  0  0
 22 27  1  0  0  0  0
 28 12  1  1  0  0  0
 28 29  1  0  0  0  0
 28 33  1  0  0  0  0
 29 30  1  0  0  0  0
 29 36  1  1  0  0  0
 30 31  1  0  0  0  0
 30 37  1  1  0  0  0
 31 32  1  0  0  0  0
 31 34  1  6  0  0  0
 32 33  1  0  0  0  0
 33 35  1  6  0  0  0
M  END
>  <CHROM.1>
-96.36522531,158.19259680,-151.70138962,175.58534236,-63.55418485,-35.44033364
39.10308198,3.17435216,8.53052079,-0.78450004,-1.28561702,0.65128730

>  <Name>
1yrj_lig

>  <RI>
0

>  <Rbt.Current_Directory>
/home/itssahil/PROJECTS/Mol_Feturizer/New_Systems/rnas/1yrj

>  <Rbt.Executable>
rbdock ($Id: //depot/dev/client3/rdock/2013.1/src/exe/rbdock.cxx#4 $)

>  <Rbt.Library>
libRbt.so (2013.1, Build901 2013/11/27)

>  <Rbt.Parameter_File>
/export/apps/rDock/src/rDock_2013.1_src/data/scripts/dock_solv.prm

>  <Rbt.Receptor>
prm/pocket_docking_5.prm

>  <SCORE>
-20.412

>  <SCORE.INTER>
-19.8279

>  <SCORE.INTER.CONST>
1

>  <SCORE.INTER.POLAR>
-1.19804

>  <SCORE.INTER.ROT>
6

>  <SCORE.INTER.SOLV>
11.0159

>  <SCORE.INTER.VDW>
-20.4971

>  <SCORE.INTER.norm>
-0.535889

>  <SCORE.INTRA>
-0.58414

>  <SCORE.INTRA.DIHEDRAL>
-4.50156

>  <SCORE.INTRA.DIHEDRAL.0>
15.6389

>  <SCORE.INTRA.POLAR>
0

>  <SCORE.INTRA.POLAR.0>
0

>  <SCORE.INTRA.REPUL>
0

>  <SCORE.INTRA.REPUL.0>
0

>  <SCORE.INTRA.SOLV>
3.29079

>  <SCORE.INTRA.SOLV.lig_0>
-90.9181

>  <SCORE.INTRA.VDW>
0.0212417

>  <SCORE.INTRA.VDW.0>
-3.14158

>  <SCORE.INTRA.norm>
-0.0157876

>  <SCORE.RESTR>
0

>  <SCORE.RESTR.CAVITY>
0

>  <SCORE.RESTR.norm>
0

>  <SCORE.SYSTEM>
0

>  <SCORE.SYSTEM.CONST>
0

>  <SCORE.SYSTEM.DIHEDRAL>
0

>  <SCORE.SYSTEM.SOLV>
0

>  <SCORE.SYSTEM.norm>
0

>  <SCORE.heavy>
37

>  <SCORE.norm>
-0.551676

>  <RMSD>
10.365

$$$$
1yrj_lig
 OpenBabel11021811423D
libRbt.so/2013.1/901 2013/11/27
 37 40  0  0  0  0  0  0  0  0999 V2000
   38.7100   -0.4702    9.6846 C   0  0  1  0  0  0  0  0  0  0  0  0
   37.6403   -0.2870    8.5903 C   0  0  1  0  0  0  0  0  0  0  0  0
   38.0475    0.7850    7.5669 C   0  0  0  0  0  0  0  0  0  0  0  0
   38.3659    2.1186    8.2918 C   0  0  1  0  0  0  0  0  0  0  0  0
   39.4738    1.8985    9.3392 C   0  0  1  0  0  0  0  0  0  0  0  0
   39.7888    3.2788   10.0559 C   0  0  1  0  0  0  0  0  0  0  0  0
   40.2416    4.3126    9.0120 C   0  0  1  0  0  0  0  0  0  0  0  0
   39.1166    4.4600    7.9589 C   0  0  2  0  0  0  0  0  0  0  0  0
   41.6432    5.5509   10.7465 C   0  0  0  0  0  0  0  0  0  0  0  0
   37.3318   -1.5532    7.9057 N   0  0  0  0  0  0  0  0  0  0  0  0
   40.5891    5.6021    9.6857 N   0  0  0  0  0  0  0  0  0  0  0  0
   39.8836   -1.1719    9.2332 O   0  0  0  0  0  0  0  0  0  0  0  0
   39.0263    0.8458   10.2735 O   0  0  0  0  0  0  0  0  0  0  0  0
   38.8019    3.1754    7.3507 O   0  0  0  0  0  0  0  0  0  0  0  0
   38.6109    3.7756   10.6561 O   0  0  0  0  0  0  0  0  0  0  0  0
   39.4815    5.3602    6.9120 O   0  0  0  0  0  0  0  0  0  0  0  0
   38.4088    5.6098    5.9735 C   0  0  2  0  0  0  0  0  0  0  0  0
   38.8800    6.2860    4.6757 C   0  0  1  0  0  0  0  0  0  0  0  0
   39.3305    7.7478    4.9377 C   0  0  2  0  0  0  0  0  0  0  0  0
   38.1986    8.5308    5.5625 C   0  0  1  0  0  0  0  0  0  0  0  0
   37.7674    7.8428    6.8794 C   0  0  1  0  0  0  0  0  0  0  0  0
   36.5912    8.5432    7.5561 C   0  0  0  0  0  0  0  0  0  0  0  0
   38.6585    9.9141    5.8038 N   0  0  0  0  0  0  0  0  0  0  0  0
   37.3644    6.4527    6.6009 O   0  0  0  0  0  0  0  0  0  0  0  0
   39.9283    5.4890    4.1056 O   0  0  0  0  0  0  0  0  0  0  0  0
   39.6914    8.3711    3.6975 O   0  0  0  0  0  0  0  0  0  0  0  0
   37.0107    9.7870    8.0510 O   0  0  0  0  0  0  0  0  0  0  0  0
   39.9108   -2.6572    8.9055 C   0  0  1  0  0  0  0  0  0  0  0  0
   41.3362   -2.9880    8.4105 C   0  0  1  0  0  0  0  0  0  0  0  0
   41.4883   -4.4993    8.1123 C   0  0  2  0  0  0  0  0  0  0  0  0
   41.1795   -5.3155    9.3731 C   0  0  1  0  0  0  0  0  0  0  0  0
   39.7377   -5.0210    9.8603 C   0  0  0  0  0  0  0  0  0  0  0  0
   39.6143   -3.5244   10.1647 C   0  0  2  0  0  0  0  0  0  0  0  0
   41.3159   -6.7594    9.0781 N   0  0  0  0  0  0  0  0  0  0  0  0
   38.2519   -3.2912   10.6363 N   0  0  0  0  0  0  0  0  0  0  0  0
   41.5969   -2.2496    7.1969 O   0  0  0  0  0  0  0  0  0  0  0  0
   42.8416   -4.7547    7.6787 O   0  0  0  0  0  0  0  0  0  0  0  0
  1  2  1  0  0  0  0
  1 12  1  6  0  0  0
  1 13  1  0  0  0  0
  2  3  1  0  0  0  0
  2 10  1  6  0  0  0
  4  3  1  6  0  0  0
  4  5  1  0  0  0  0
  4 14  1  0  0  0  0
  5  6  1  0  0  0  0
  5 13  1  1  0  0  0
  6  7  1  0  0  0  0
  6 15  1  6  0  0  0
  7  8  1  0  0  0  0
  7 11  1  1  0  0  0
  8 14  1  0  0  0  0
  8 16  1  6  0  0  0
  9 11  1  0  0  0  0
 17 16  1  1  0  0  0
 17 18  1  0  0  0  0
 17 24  1  0  0  0  0
 18 19  1  0  0  0  0
 18 25  1  1  0  0  0
 19 20  1  0  0  0  0
 19 26  1  6  0  0  0
 20 21  1  0  0  0  0
 20 23  1  1  0  0  0
 21 22  1  6  0  0  0
 21 24  1  0  0  0  0
 22 27  1  0  0  0  0
 28 12  1  1  0  0  0
 28 29  1  0  0  0  0
 28 33  1  0  0  0  0
 29 30  1  0  0  0  0
 29 36  1  6  0  0  0
 30 31  1  0  0  0  0
 30 37  1  1  0  0  0
 31 32  1  0  0  0  0
 31 34  1  6  0  0  0
 32 33  1  0  0  0  0
 33 35  1  6  0  0  0
M  END
>  <CHROM.1>
-70.93991135,57.32385903,-174.94190654,-165.84123903,-69.36632715,177.81170197
39.35616308,2.25188356,7.99579381,1.11882843,-1.20238609,2.49296258

>  <Name>
1yrj_lig

>  <RI>
0

>  <Rbt.Current_Directory>
/home/itssahil/PROJECTS/Mol_Feturizer/New_Systems/rnas/1yrj

>  <Rbt.Executable>
rbdock ($Id: //depot/dev/client3/rdock/2013.1/src/exe/rbdock.cxx#4 $)

>  <Rbt.Library>
libRbt.so (2013.1, Build901 2013/11/27)

>  <Rbt.Parameter_File>
/export/apps/rDock/src/rDock_2013.1_src/data/scripts/dock_solv.prm

>  <Rbt.Receptor>
prm/pocket_docking_7.prm

>  <SCORE>
-27.2246

>  <SCORE.INTER>
-22.7402

>  <SCORE.INTER.CONST>
1

>  <SCORE.INTER.POLAR>
-1.37637

>  <SCORE.INTER.ROT>
6

>  <SCORE.INTER.SOLV>
14.8029

>  <SCORE.INTER.VDW>
-23.1065

>  <SCORE.INTER.norm>
-0.614599

>  <SCORE.INTRA>
-4.48445

>  <SCORE.INTRA.DIHEDRAL>
-13.5576

>  <SCORE.INTRA.DIHEDRAL.0>
15.6389

>  <SCORE.INTRA.POLAR>
0

>  <SCORE.INTRA.POLAR.0>
0

>  <SCORE.INTRA.REPUL>
0

>  <SCORE.INTRA.REPUL.0>
0

>  <SCORE.INTRA.SOLV>
1.932

>  <SCORE.INTRA.SOLV.lig_0>
-90.9181

>  <SCORE.INTRA.VDW>
1.32835

>  <SCORE.INTRA.VDW.0>
-3.14158

>  <SCORE.INTRA.norm>
-0.121201

>  <SCORE.RESTR>
0

>  <SCORE.RESTR.CAVITY>
0

>  <SCORE.RESTR.norm>
0

>  <SCORE.SYSTEM>
0

>  <SCORE.SYSTEM.CONST>
0

>  <SCORE.SYSTEM.DIHEDRAL>
0

>  <SCORE.SYSTEM.SOLV>
0

>  <SCORE.SYSTEM.norm>
0

>  <SCORE.heavy>
37

>  <SCORE.norm>
-0.735801

>  <RMSD>
10.365

$$$$
1yrj_lig
 OpenBabel11021811423D
libRbt.so/2013.1/901 2013/11/27
 37 40  0  0  0  0  0  0  0  0999 V2000
   38.6929   -0.7044    9.6681 C   0  0  1  0  0  0  0  0  0  0  0  0
   37.6273   -0.4563    8.5825 C   0  0  1  0  0  0  0  0  0  0  0  0
   38.0627    0.6367    7.5936 C   0  0  0  0  0  0  0  0  0  0  0  0
   38.4187    1.9369    8.3608 C   0  0  1  0  0  0  0  0  0  0  0  0
   39.5213    1.6524    9.3982 C   0  0  1  0  0  0  0  0  0  0  0  0
   39.8752    2.9995   10.1586 C   0  0  1  0  0  0  0  0  0  0  0  0
   40.3551    4.0538    9.1478 C   0  0  1  0  0  0  0  0  0  0  0  0
   39.2333    4.2662    8.1024 C   0  0  2  0  0  0  0  0  0  0  0  0
   39.6239    6.1847   10.3441 C   0  0  0  0  0  0  0  0  0  0  0  0
   37.2832   -1.6906    7.8579 N   0  0  0  0  0  0  0  0  0  0  0  0
   40.7388    5.3106    9.8623 N   0  0  0  0  0  0  0  0  0  0  0  0
   39.8461   -1.4230    9.1917 O   0  0  0  0  0  0  0  0  0  0  0  0
   39.0461    0.5826   10.2988 O   0  0  0  0  0  0  0  0  0  0  0  0
   38.8826    3.0113    7.4535 O   0  0  0  0  0  0  0  0  0  0  0  0
   38.7122    3.5088   10.7770 O   0  0  0  0  0  0  0  0  0  0  0  0
   39.6216    5.1896    7.0845 O   0  0  0  0  0  0  0  0  0  0  0  0
   38.5327    5.5662    6.2092 C   0  0  2  0  0  0  0  0  0  0  0  0
   38.9979    6.2887    4.9344 C   0  0  1  0  0  0  0  0  0  0  0  0
   39.5564    7.6989    5.2624 C   0  0  2  0  0  0  0  0  0  0  0  0
   38.5054    8.5144    5.9802 C   0  0  1  0  0  0  0  0  0  0  0  0
   38.0801    7.7764    7.2716 C   0  0  1  0  0  0  0  0  0  0  0  0
   36.9813    8.5092    8.0381 C   0  0  0  0  0  0  0  0  0  0  0  0
   39.0672    9.8472    6.2825 N   0  0  0  0  0  0  0  0  0  0  0  0
   37.5731    6.4354    6.9293 O   0  0  0  0  0  0  0  0  0  0  0  0
   39.9668    5.4615    4.2741 O   0  0  0  0  0  0  0  0  0  0  0  0
   39.9104    8.3725    4.0467 O   0  0  0  0  0  0  0  0  0  0  0  0
   35.9177    8.7954    7.1694 O   0  0  0  0  0  0  0  0  0  0  0  0
   39.8416   -2.9061    8.8527 C   0  0  1  0  0  0  0  0  0  0  0  0
   41.2491   -3.2557    8.3210 C   0  0  1  0  0  0  0  0  0  0  0  0
   41.3697   -4.7669    8.0083 C   0  0  2  0  0  0  0  0  0  0  0  0
   41.0783   -5.5876    9.2702 C   0  0  1  0  0  0  0  0  0  0  0  0
   39.6536   -5.2740    9.7943 C   0  0  0  0  0  0  0  0  0  0  0  0
   39.5616   -3.7780   10.1125 C   0  0  2  0  0  0  0  0  0  0  0  0
   41.1844   -7.0312    8.9616 N   0  0  0  0  0  0  0  0  0  0  0  0
   38.2149   -3.5268   10.6185 N   0  0  0  0  0  0  0  0  0  0  0  0
   41.4924   -2.5123    7.1068 O   0  0  0  0  0  0  0  0  0  0  0  0
   42.7079   -5.0405    7.5402 O   0  0  0  0  0  0  0  0  0  0  0  0
  1  2  1  0  0  0  0
  1 12  1  6  0  0  0
  1 13  1  0  0  0  0
  2  3  1  0  0  0  0
  2 10  1  6  0  0  0
  4  3  1  6  0  0  0
  4  5  1  0  0  0  0
  4 14  1  0  0  0  0
  5  6  1  0  0  0  0
  5 13  1  1  0  0  0
  6  7  1  0  0  0  0
  6 15  1  6  0  0  0
  7  8  1  0  0  0  0
  7 11  1  1  0  0  0
  8 14  1  0  0  0  0
  8 16  1  6  0  0  0
  9 11  1  0  0  0  0
 17 16  1  1  0  0  0
 17 18  1  0  0  0  0
 17 24  1  0  0  0  0
 18 19  1  0  0  0  0
 18 25  1  1  0  0  0
 19 20  1  0  0  0  0
 19 26  1  6  0  0  0
 20 21  1  0  0  0  0
 20 23  1  1  0  0  0
 21 22  1  6  0  0  0
 21 24  1  0  0  0  0
 22 27  1  0  0  0  0
 28 12  1  1  0  0  0
 28 29  1  0  0  0  0
 28 33  1  0  0  0  0
 29 30  1  0  0  0  0
 29 36  1  6  0  0  0
 30 31  1  0  0  0  0
 30 37  1  1  0  0  0
 31 32  1  0  0  0  0
 31 34  1  6  0  0  0
 32 33  1  0  0  0  0
 33 35  1  6  0  0  0
M  END
>  <CHROM.1>
-72.71422111,-76.26068713,-171.14865067,-166.63404345,52.02139096,177.38809290
39.32482551,2.07366234,8.05480551,1.25028633,-1.08941218,2.65882921

>  <Name>
1yrj_lig

>  <RI>
0

>  <Rbt.Current_Directory>
/home/itssahil/PROJECTS/Mol_Feturizer/New_Systems/rnas/1yrj

>  <Rbt.Executable>
rbdock ($Id: //depot/dev/client3/rdock/2013.1/src/exe/rbdock.cxx#4 $)

>  <Rbt.Library>
libRbt.so (2013.1, Build901 2013/11/27)

>  <Rbt.Parameter_File>
/export/apps/rDock/src/rDock_2013.1_src/data/scripts/dock_solv.prm

>  <Rbt.Receptor>
prm/pocket_docking_5.prm

>  <SCORE>
-24.2191

>  <SCORE.INTER>
-20.5416

>  <SCORE.INTER.CONST>
1

>  <SCORE.INTER.POLAR>
-1.37101

>  <SCORE.INTER.ROT>
6

>  <SCORE.INTER.SOLV>
14.5643

>  <SCORE.INTER.VDW>
-21.5791

>  <SCORE.INTER.norm>
-0.555178

>  <SCORE.INTRA>
-3.67754

>  <SCORE.INTRA.DIHEDRAL>
-13.0874

>  <SCORE.INTRA.DIHEDRAL.0>
15.6389

>  <SCORE.INTRA.POLAR>
0

>  <SCORE.INTRA.POLAR.0>
0

>  <SCORE.INTRA.REPUL>
0

>  <SCORE.INTRA.REPUL.0>
0

>  <SCORE.INTRA.SOLV>
1.78639

>  <SCORE.INTRA.SOLV.lig_0>
-90.9181

>  <SCORE.INTRA.VDW>
1.97298

>  <SCORE.INTRA.VDW.0>
-3.14158

>  <SCORE.INTRA.norm>
-0.099393

>  <SCORE.RESTR>
0

>  <SCORE.RESTR.CAVITY>
0

>  <SCORE.RESTR.norm>
0

>  <SCORE.SYSTEM>
0

>  <SCORE.SYSTEM.CONST>
0

>  <SCORE.SYSTEM.DIHEDRAL>
0

>  <SCORE.SYSTEM.SOLV>
0

>  <SCORE.SYSTEM.norm>
0

>  <SCORE.heavy>
37

>  <SCORE.norm>
-0.654571

>  <RMSD>
10.367

$$$$
1yrj_lig
 OpenBabel11021811423D
libRbt.so/2013.1/901 2013/11/27
 37 40  0  0  0  0  0  0  0  0999 V2000
   38.9560   -0.4135    9.7277 C   0  0  1  0  0  0  0  0  0  0  0  0
   37.8522   -0.2782    8.6605 C   0  0  1  0  0  0  0  0  0  0  0  0
   38.2031    0.7845    7.6070 C   0  0  0  0  0  0  0  0  0  0  0  0
   38.5064    2.1392    8.2986 C   0  0  1  0  0  0  0  0  0  0  0  0
   39.6479    1.9671    9.3186 C   0  0  1  0  0  0  0  0  0  0  0  0
   39.9464    3.3682   10.0012 C   0  0  1  0  0  0  0  0  0  0  0  0
   40.3432    4.3935    8.9266 C   0  0  1  0  0  0  0  0  0  0  0  0
   39.1864    4.4923    7.9028 C   0  0  2  0  0  0  0  0  0  0  0  0
   39.5255    6.5635    9.9892 C   0  0  0  0  0  0  0  0  0  0  0  0
   37.5582   -1.5645    8.0077 N   0  0  0  0  0  0  0  0  0  0  0  0
   40.6753    5.7039    9.5670 N   0  0  0  0  0  0  0  0  0  0  0  0
   40.1346   -1.0932    9.2565 O   0  0  0  0  0  0  0  0  0  0  0  0
   39.2538    0.9210   10.2838 O   0  0  0  0  0  0  0  0  0  0  0  0
   38.8887    3.1890    7.3268 O   0  0  0  0  0  0  0  0  0  0  0  0
   38.7728    3.8459   10.6249 O   0  0  0  0  0  0  0  0  0  0  0  0
   39.4988    5.3818    6.8301 O   0  0  0  0  0  0  0  0  0  0  0  0
   38.3814    5.6209    5.9424 C   0  0  2  0  0  0  0  0  0  0  0  0
   38.7842    6.3092    4.6280 C   0  0  1  0  0  0  0  0  0  0  0  0
   39.2265    7.7758    4.8766 C   0  0  2  0  0  0  0  0  0  0  0  0
   38.1136    8.5405    5.5559 C   0  0  1  0  0  0  0  0  0  0  0  0
   37.7519    7.8410    6.8876 C   0  0  1  0  0  0  0  0  0  0  0  0
   36.5982    8.5223    7.6202 C   0  0  0  0  0  0  0  0  0  0  0  0
   38.5654    9.9289    5.7831 N   0  0  0  0  0  0  0  0  0  0  0  0
   37.3553    6.4468    6.6206 O   0  0  0  0  0  0  0  0  0  0  0  0
   39.8162    5.5291    4.0071 O   0  0  0  0  0  0  0  0  0  0  0  0
   39.5224    8.4094    3.6245 O   0  0  0  0  0  0  0  0  0  0  0  0
   37.0062    9.7924    8.0541 O   0  0  0  0  0  0  0  0  0  0  0  0
   40.3104   -2.6041    9.2821 C   0  0  1  0  0  0  0  0  0  0  0  0
   40.7525   -3.0349    7.8662 C   0  0  1  0  0  0  0  0  0  0  0  0
   41.0248   -4.5575    7.8041 C   0  0  2  0  0  0  0  0  0  0  0  0
   42.1093   -4.9374    8.8192 C   0  0  1  0  0  0  0  0  0  0  0  0
   41.6626   -4.5439   10.2505 C   0  0  0  0  0  0  0  0  0  0  0  0
   41.4147   -3.0325   10.2934 C   0  0  2  0  0  0  0  0  0  0  0  0
   42.3566   -6.3955    8.7624 N   0  0  0  0  0  0  0  0  0  0  0  0
   41.0145   -2.6998   11.6580 N   0  0  0  0  0  0  0  0  0  0  0  0
   39.7031   -2.7150    6.9269 O   0  0  0  0  0  0  0  0  0  0  0  0
   41.4570   -4.8994    6.4696 O   0  0  0  0  0  0  0  0  0  0  0  0
  1  2  1  0  0  0  0
  1 12  1  6  0  0  0
  1 13  1  0  0  0  0
  2  3  1  0  0  0  0
  2 10  1  6  0  0  0
  4  3  1  6  0  0  0
  4  5  1  0  0  0  0
  4 14  1  0  0  0  0
  5  6  1  0  0  0  0
  5 13  1  1  0  0  0
  6  7  1  0  0  0  0
  6 15  1  6  0  0  0
  7  8  1  0  0  0  0
  7 11  1  1  0  0  0
  8 14  1  0  0  0  0
  8 16  1  6  0  0  0
  9 11  1  0  0  0  0
 17 16  1  1  0  0  0
 17 18  1  0  0  0  0
 17 24  1  0  0  0  0
 18 19  1  0  0  0  0
 18 25  1  1  0  0  0
 19 20  1  0  0  0  0
 19 26  1  6  0  0  0
 20 21  1  0  0  0  0
 20 23  1  1  0  0  0
 21 22  1  6  0  0  0
 21 24  1  0  0  0  0
 22 27  1  0  0  0  0
 28 12  1  6  0  0  0
 28 29  1  0  0  0  0
 28 33  1  0  0  0  0
 29 30  1  0  0  0  0
 29 36  1  6  0  0  0
 30 31  1  0  0  0  0
 30 37  1  6  0  0  0
 31 32  1  0  0  0  0
 31 34  1  1  0  0  0
 32 33  1  0  0  0  0
 33 35  1  1  0  0  0
M  END
>  <CHROM.1>
-86.81596359,-78.44921119,-173.01892713,-166.98501933,-66.95789865,129.22969959
39.44333430,2.34400939,7.92416135,0.44952048,-1.34359710,1.81737771

>  <Name>
1yrj_lig

>  <RI>
0

>  <Rbt.Current_Directory>
/home/itssahil/PROJECTS/Mol_Feturizer/New_Systems/rnas/1yrj

>  <Rbt.Executable>
rbdock ($Id: //depot/dev/client3/rdock/2013.1/src/exe/rbdock.cxx#4 $)

>  <Rbt.Library>
libRbt.so (2013.1, Build901 2013/11/27)

>  <Rbt.Parameter_File>
/export/apps/rDock/src/rDock_2013.1_src/data/scripts/dock_solv.prm

>  <Rbt.Receptor>
prm/pocket_docking_6.prm

>  <SCORE>
-23.7998

>  <SCORE.INTER>
-24.0089

>  <SCORE.INTER.CONST>
1

>  <SCORE.INTER.POLAR>
-2.114

>  <SCORE.INTER.ROT>
6

>  <SCORE.INTER.SOLV>
14.8418

>  <SCORE.INTER.VDW>
-21.5065

>  <SCORE.INTER.norm>
-0.648889

>  <SCORE.INTRA>
0.209124

>  <SCORE.INTRA.DIHEDRAL>
-4.34053

>  <SCORE.INTRA.DIHEDRAL.0>
15.6389

>  <SCORE.INTRA.POLAR>
0

>  <SCORE.INTRA.POLAR.0>
0

>  <SCORE.INTRA.REPUL>
0

>  <SCORE.INTRA.REPUL.0>
0

>  <SCORE.INTRA.SOLV>
1.238

>  <SCORE.INTRA.SOLV.lig_0>
-90.9181

>  <SCORE.INTRA.VDW>
1.76039

>  <SCORE.INTRA.VDW.0>
-3.14158

>  <SCORE.INTRA.norm>
0.00565201

>  <SCORE.RESTR>
0

>  <SCORE.RESTR.CAVITY>
0

>  <SCORE.RESTR.norm>
0

>  <SCORE.SYSTEM>
0

>  <SCORE.SYSTEM.CONST>
0

>  <SCORE.SYSTEM.DIHEDRAL>
0

>  <SCORE.SYSTEM.SOLV>
0

>  <SCORE.SYSTEM.norm>
0

>  <SCORE.heavy>
37

>  <SCORE.norm>
-0.643237

>  <RMSD>
10.372

$$$$
1yrj_lig
 OpenBabel11021811423D
libRbt.so/2013.1/901 2013/11/27
 37 40  0  0  0  0  0  0  0  0999 V2000
   38.4012   -0.8911    9.7591 C   0  0  1  0  0  0  0  0  0  0  0  0
   37.3472   -0.6276    8.6659 C   0  0  1  0  0  0  0  0  0  0  0  0
   37.8317    0.4133    7.6441 C   0  0  0  0  0  0  0  0  0  0  0  0
   38.2480    1.7186    8.3712 C   0  0  1  0  0  0  0  0  0  0  0  0
   39.3372    1.4154    9.4174 C   0  0  1  0  0  0  0  0  0  0  0  0
   39.7536    2.7674   10.1363 C   0  0  1  0  0  0  0  0  0  0  0  0
   40.2807    3.7670    9.0939 C   0  0  1  0  0  0  0  0  0  0  0  0
   39.1690    3.9988    8.0419 C   0  0  2  0  0  0  0  0  0  0  0  0
   39.6494    5.9306   10.2884 C   0  0  0  0  0  0  0  0  0  0  0  0
   36.9458   -1.8663    7.9792 N   0  0  0  0  0  0  0  0  0  0  0  0
   40.7227    5.0261    9.7697 N   0  0  0  0  0  0  0  0  0  0  0  0
   39.5195   -1.6766    9.3056 O   0  0  0  0  0  0  0  0  0  0  0  0
   38.8140    0.3969   10.3502 O   0  0  0  0  0  0  0  0  0  0  0  0
   38.7601    2.7421    7.4316 O   0  0  0  0  0  0  0  0  0  0  0  0
   38.6159    3.3487   10.7382 O   0  0  0  0  0  0  0  0  0  0  0  0
   39.5986    4.8717    6.9964 O   0  0  0  0  0  0  0  0  0  0  0  0
   38.5155    5.3298    6.1535 C   0  0  2  0  0  0  0  0  0  0  0  0
   38.9878    6.1805    4.9632 C   0  0  1  0  0  0  0  0  0  0  0  0
   39.5350    7.5528    5.4381 C   0  0  2  0  0  0  0  0  0  0  0  0
   38.4727    8.2858    6.2249 C   0  0  1  0  0  0  0  0  0  0  0  0
   38.0401    7.4182    7.4305 C   0  0  1  0  0  0  0  0  0  0  0  0
   36.9302    8.0639    8.2569 C   0  0  0  0  0  0  0  0  0  0  0  0
   39.0238    9.5838    6.6664 N   0  0  0  0  0  0  0  0  0  0  0  0
   37.5443    6.1165    6.9489 O   0  0  0  0  0  0  0  0  0  0  0  0
   39.9675    5.4295    4.2315 O   0  0  0  0  0  0  0  0  0  0  0  0
   39.8959    8.3483    4.3005 O   0  0  0  0  0  0  0  0  0  0  0  0
   36.6537    7.2620    9.3743 O   0  0  0  0  0  0  0  0  0  0  0  0
   40.1663   -2.7841   10.1239 C   0  0  1  0  0  0  0  0  0  0  0  0
   39.9278   -4.1086    9.3658 C   0  0  1  0  0  0  0  0  0  0  0  0
   40.6096   -5.2966   10.0868 C   0  0  2  0  0  0  0  0  0  0  0  0
   42.1160   -5.0392   10.2108 C   0  0  1  0  0  0  0  0  0  0  0  0
   42.3711   -3.7310   11.0022 C   0  0  0  0  0  0  0  0  0  0  0  0
   41.7023   -2.5672   10.2631 C   0  0  2  0  0  0  0  0  0  0  0  0
   42.7597   -6.1733   10.9107 N   0  0  0  0  0  0  0  0  0  0  0  0
   41.9796   -1.3544   11.0280 N   0  0  0  0  0  0  0  0  0  0  0  0
   38.5079   -4.3636    9.2974 O   0  0  0  0  0  0  0  0  0  0  0  0
   40.3761   -6.5004    9.3245 O   0  0  0  0  0  0  0  0  0  0  0  0
  1  2  1  0  0  0  0
  1 12  1  6  0  0  0
  1 13  1  0  0  0  0
  2  3  1  0  0  0  0
  2 10  1  6  0  0  0
  4  3  1  6  0  0  0
  4  5  1  0  0  0  0
  4 14  1  0  0  0  0
  5  6  1  0  0  0  0
  5 13  1  1  0  0  0
  6  7  1  0  0  0  0
  6 15  1  6  0  0  0
  7  8  1  0  0  0  0
  7 11  1  1  0  0  0
  8 14  1  0  0  0  0
  8 16  1  6  0  0  0
  9 11  1  0  0  0  0
 17 16  1  1  0  0  0
 17 18  1  0  0  0  0
 17 24  1  0  0  0  0
 18 19  1  0  0  0  0
 18 25  1  1  0  0  0
 19 20  1  0  0  0  0
 19 26  1  6  0  0  0
 20 21  1  0  0  0  0
 20 23  1  1  0  0  0
 21 22  1  6  0  0  0
 21 24  1  0  0  0  0
 22 27  1  0  0  0  0
 28 12  1  6  0  0  0
 28 29  1  0  0  0  0
 28 33  1  0  0  0  0
 29 30  1  0  0  0  0
 29 36  1  1  0  0  0
 30 31  1  0  0  0  0
 30 37  1  6  0  0  0
 31 32  1  0  0  0  0
 31 34  1  1  0  0  0
 32 33  1  0  0  0  0
 33 35  1  1  0  0  0
M  END
>  <CHROM.1>
-138.90821018,-73.11452189,-167.93862566,-175.51830607,-176.25510709,115.22706485
39.36007630,1.90185894,8.51435279,-0.89886762,-1.31592447,0.37776797

>  <Name>
1yrj_lig

>  <RI>
0

>  <Rbt.Current_Directory>
/home/itssahil/PROJECTS/Mol_Feturizer/New_Systems/rnas/1yrj

>  <Rbt.Executable>
rbdock ($Id: //depot/dev/client3/rdock/2013.1/src/exe/rbdock.cxx#4 $)

>  <Rbt.Library>
libRbt.so (2013.1, Build901 2013/11/27)

>  <Rbt.Parameter_File>
/export/apps/rDock/src/rDock_2013.1_src/data/scripts/dock_solv.prm

>  <Rbt.Receptor>
prm/pocket_docking_7.prm

>  <SCORE>
-24.423

>  <SCORE.INTER>
-24.8858

>  <SCORE.INTER.CONST>
1

>  <SCORE.INTER.POLAR>
-2.28628

>  <SCORE.INTER.ROT>
6

>  <SCORE.INTER.SOLV>
16.1729

>  <SCORE.INTER.VDW>
-21.9606

>  <SCORE.INTER.norm>
-0.67259

>  <SCORE.INTRA>
0.462832

>  <SCORE.INTRA.DIHEDRAL>
-2.00724

>  <SCORE.INTRA.DIHEDRAL.0>
15.6389

>  <SCORE.INTRA.POLAR>
0

>  <SCORE.INTRA.POLAR.0>
0

>  <SCORE.INTRA.REPUL>
0

>  <SCORE.INTRA.REPUL.0>
0

>  <SCORE.INTRA.SOLV>
-0.227985

>  <SCORE.INTRA.SOLV.lig_0>
-90.9181

>  <SCORE.INTRA.VDW>
1.58044

>  <SCORE.INTRA.VDW.0>
-3.14158

>  <SCORE.INTRA.norm>
0.012509

>  <SCORE.RESTR>
0

>  <SCORE.RESTR.CAVITY>
0

>  <SCORE.RESTR.norm>
0

>  <SCORE.SYSTEM>
0

>  <SCORE.SYSTEM.CONST>
0

>  <SCORE.SYSTEM.DIHEDRAL>
0

>  <SCORE.SYSTEM.SOLV>
0

>  <SCORE.SYSTEM.norm>
0

>  <SCORE.heavy>
37

>  <SCORE.norm>
-0.660081

>  <RMSD>
10.373

$$$$
1yrj_lig
 OpenBabel11021811423D
libRbt.so/2013.1/901 2013/11/27
 37 40  0  0  0  0  0  0  0  0999 V2000
   39.4076    0.2435    9.4530 C   0  0  1  0  0  0  0  0  0  0  0  0
   38.1174    0.3319    8.6145 C   0  0  1  0  0  0  0  0  0  0  0  0
   38.1510    1.5179    7.6375 C   0  0  0  0  0  0  0  0  0  0  0  0
   38.4295    2.8345    8.4087 C   0  0  1  0  0  0  0  0  0  0  0  0
   39.7517    2.7186    9.1904 C   0  0  1  0  0  0  0  0  0  0  0  0
   40.0189    4.0811    9.9586 C   0  0  1  0  0  0  0  0  0  0  0  0
   40.0975    5.2378    8.9490 C   0  0  1  0  0  0  0  0  0  0  0  0
   38.7674    5.2798    8.1582 C   0  0  2  0  0  0  0  0  0  0  0  0
   41.6303    6.5488   10.5105 C   0  0  0  0  0  0  0  0  0  0  0  0
   37.8478   -0.9192    7.8871 N   0  0  0  0  0  0  0  0  0  0  0  0
   40.3994    6.5186    9.6602 N   0  0  0  0  0  0  0  0  0  0  0  0
   40.5448   -0.2395    8.7137 O   0  0  0  0  0  0  0  0  0  0  0  0
   39.6579    1.5512   10.0903 O   0  0  0  0  0  0  0  0  0  0  0  0
   38.5103    4.0046    7.5048 O   0  0  0  0  0  0  0  0  0  0  0  0
   38.9365    4.3518   10.8245 O   0  0  0  0  0  0  0  0  0  0  0  0
   38.7785    6.2915    7.1503 O   0  0  0  0  0  0  0  0  0  0  0  0
   37.4735    6.8652    6.9024 C   0  0  2  0  0  0  0  0  0  0  0  0
   37.4893    7.9800    5.8438 C   0  0  1  0  0  0  0  0  0  0  0  0
   38.2231    9.2419    6.3705 C   0  0  2  0  0  0  0  0  0  0  0  0
   37.5642    9.7272    7.6414 C   0  0  1  0  0  0  0  0  0  0  0  0
   37.5904    8.5947    8.6951 C   0  0  1  0  0  0  0  0  0  0  0  0
   36.8994    8.9837   10.0000 C   0  0  0  0  0  0  0  0  0  0  0  0
   38.2864   10.9241    8.1201 N   0  0  0  0  0  0  0  0  0  0  0  0
   36.9040    7.4058    8.1587 O   0  0  0  0  0  0  0  0  0  0  0  0
   38.0920    7.4607    4.6496 O   0  0  0  0  0  0  0  0  0  0  0  0
   38.1538   10.2853    5.3890 O   0  0  0  0  0  0  0  0  0  0  0  0
   37.6511    9.9747   10.6488 O   0  0  0  0  0  0  0  0  0  0  0  0
   41.0874   -1.6567    8.8212 C   0  0  1  0  0  0  0  0  0  0  0  0
   41.3569   -1.9286   10.3176 C   0  0  1  0  0  0  0  0  0  0  0  0
   41.8518   -3.3780   10.5427 C   0  0  2  0  0  0  0  0  0  0  0  0
   40.8107   -4.3741   10.0184 C   0  0  1  0  0  0  0  0  0  0  0  0
   40.5574   -4.1366    8.5077 C   0  0  0  0  0  0  0  0  0  0  0  0
   40.0534   -2.7032    8.3100 C   0  0  2  0  0  0  0  0  0  0  0  0
   41.2950   -5.7571   10.2266 N   0  0  0  0  0  0  0  0  0  0  0  0
   39.8101   -2.5250    6.8810 N   0  0  0  0  0  0  0  0  0  0  0  0
   42.3730   -1.0158   10.7871 O   0  0  0  0  0  0  0  0  0  0  0  0
   42.0634   -3.5839   11.9560 O   0  0  0  0  0  0  0  0  0  0  0  0
  1  2  1  0  0  0  0
  1 12  1  6  0  0  0
  1 13  1  0  0  0  0
  2  3  1  0  0  0  0
  2 10  1  6  0  0  0
  4  3  1  6  0  0  0
  4  5  1  0  0  0  0
  4 14  1  0  0  0  0
  5  6  1  0  0  0  0
  5 13  1  1  0  0  0
  6  7  1  0  0  0  0
  6 15  1  1  0  0  0
  7  8  1  0  0  0  0
  7 11  1  1  0  0  0
  8 14  1  0  0  0  0
  8 16  1  6  0  0  0
  9 11  1  0  0  0  0
 17 16  1  1  0  0  0
 17 18  1  0  0  0  0
 17 24  1  0  0  0  0
 18 19  1  0  0  0  0
 18 25  1  6  0  0  0
 19 20  1  0  0  0  0
 19 26  1  6  0  0  0
 20 21  1  0  0  0  0
 20 23  1  1  0  0  0
 21 22  1  1  0  0  0
 21 24  1  0  0  0  0
 22 27  1  0  0  0  0
 28 12  1  1  0  0  0
 28 29  1  0  0  0  0
 28 33  1  0  0  0  0
 29 30  1  0  0  0  0
 29 36  1  6  0  0  0
 30 31  1  0  0  0  0
 30 37  1  1  0  0  0
 31 32  1  0  0  0  0
 31 34  1  6  0  0  0
 32 33  1  0  0  0  0
 33 35  1  6  0  0  0
M  END
>  <CHROM.1>
-102.65883704,55.75968344,-148.38472446,178.50411534,-68.24917574,-54.10761763
39.31630763,3.21490559,8.69670257,1.04376984,1.09185634,-2.82799755

>  <Name>
1yrj_lig

>  <RI>
0

>  <Rbt.Current_Directory>
/home/itssahil/PROJECTS/Mol_Feturizer/New_Systems/rnas/1yrj

>  <Rbt.Executable>
rbdock ($Id: //depot/dev/client3/rdock/2013.1/src/exe/rbdock.cxx#4 $)

>  <Rbt.Library>
libRbt.so (2013.1, Build901 2013/11/27)

>  <Rbt.Parameter_File>
/export/apps/rDock/src/rDock_2013.1_src/data/scripts/dock_solv.prm

>  <Rbt.Receptor>
prm/pocket_docking_3.prm

>  <SCORE>
-19.2799

>  <SCORE.INTER>
-19.3131

>  <SCORE.INTER.CONST>
1

>  <SCORE.INTER.POLAR>
-0.949518

>  <SCORE.INTER.ROT>
6

>  <SCORE.INTER.SOLV>
10.4997

>  <SCORE.INTER.VDW>
-20.8102

>  <SCORE.INTER.norm>
-0.521976

>  <SCORE.INTRA>
0.0325492

>  <SCORE.INTRA.DIHEDRAL>
-5.50021

>  <SCORE.INTRA.DIHEDRAL.0>
15.6389

>  <SCORE.INTRA.POLAR>
0

>  <SCORE.INTRA.POLAR.0>
0

>  <SCORE.INTRA.REPUL>
0

>  <SCORE.INTRA.REPUL.0>
0

>  <SCORE.INTRA.SOLV>
3.57023

>  <SCORE.INTRA.SOLV.lig_0>
-90.9181

>  <SCORE.INTRA.VDW>
0.997542

>  <SCORE.INTRA.VDW.0>
-3.14158

>  <SCORE.INTRA.norm>
0.000879707

>  <SCORE.RESTR>
0.000660614

>  <SCORE.RESTR.CAVITY>
0.000660614

>  <SCORE.RESTR.norm>
1.78544e-05

>  <SCORE.SYSTEM>
0

>  <SCORE.SYSTEM.CONST>
0

>  <SCORE.SYSTEM.DIHEDRAL>
0

>  <SCORE.SYSTEM.SOLV>
0

>  <SCORE.SYSTEM.norm>
0

>  <SCORE.heavy>
37

>  <SCORE.norm>
-0.521079

>  <RMSD>
10.377

$$$$
1yrj_lig
 OpenBabel11021811423D
libRbt.so/2013.1/901 2013/11/27
 37 40  0  0  0  0  0  0  0  0999 V2000
   40.5867    2.6696   10.0932 C   0  0  1  0  0  0  0  0  0  0  0  0
   39.3815    2.9069    9.1623 C   0  0  1  0  0  0  0  0  0  0  0  0
   39.4947    4.2425    8.4102 C   0  0  0  0  0  0  0  0  0  0  0  0
   39.6833    5.4061    9.4181 C   0  0  1  0  0  0  0  0  0  0  0  0
   40.9262    5.1513   10.2917 C   0  0  1  0  0  0  0  0  0  0  0  0
   41.1034    6.3608   11.3035 C   0  0  1  0  0  0  0  0  0  0  0  0
   41.2648    7.6729   10.5186 C   0  0  1  0  0  0  0  0  0  0  0  0
   40.0158    7.8564    9.6227 C   0  0  2  0  0  0  0  0  0  0  0  0
   40.2828    9.3260   12.1947 C   0  0  0  0  0  0  0  0  0  0  0  0
   39.1967    1.8001    8.2094 N   0  0  0  0  0  0  0  0  0  0  0  0
   41.4829    8.8114   11.4639 N   0  0  0  0  0  0  0  0  0  0  0  0
   41.7947    2.3144    9.3948 O   0  0  0  0  0  0  0  0  0  0  0  0
   40.7602    3.8476   10.9656 O   0  0  0  0  0  0  0  0  0  0  0  0
   39.8367    6.7133    8.7394 O   0  0  0  0  0  0  0  0  0  0  0  0
   39.9403    6.4848   12.0950 O   0  0  0  0  0  0  0  0  0  0  0  0
   40.1115    9.0257    8.8084 O   0  0  0  0  0  0  0  0  0  0  0  0
   38.8667    9.7567    8.7099 C   0  0  2  0  0  0  0  0  0  0  0  0
   37.9194    9.2041    7.6325 C   0  0  1  0  0  0  0  0  0  0  0  0
   38.4780    9.4655    6.2084 C   0  0  2  0  0  0  0  0  0  0  0  0
   38.7025   10.9468    6.0077 C   0  0  1  0  0  0  0  0  0  0  0  0
   39.6813   11.4661    7.0873 C   0  0  1  0  0  0  0  0  0  0  0  0
   39.9283   12.9698    6.9889 C   0  0  0  0  0  0  0  0  0  0  0  0
   39.2378   11.1629    4.6476 N   0  0  0  0  0  0  0  0  0  0  0  0
   39.1326   11.1863    8.4264 O   0  0  0  0  0  0  0  0  0  0  0  0
   37.7123    7.8070    7.8861 O   0  0  0  0  0  0  0  0  0  0  0  0
   37.5367    9.0059    5.2288 O   0  0  0  0  0  0  0  0  0  0  0  0
   38.7362   13.6573    7.2616 O   0  0  0  0  0  0  0  0  0  0  0  0
   41.9702    1.0273    8.6030 C   0  0  1  0  0  0  0  0  0  0  0  0
   43.4364    0.9873    8.1186 C   0  0  1  0  0  0  0  0  0  0  0  0
   43.7375   -0.3246    7.3542 C   0  0  2  0  0  0  0  0  0  0  0  0
   43.4613   -1.5323    8.2576 C   0  0  1  0  0  0  0  0  0  0  0  0
   41.9824   -1.5251    8.7218 C   0  0  0  0  0  0  0  0  0  0  0  0
   41.7110   -0.2269    9.4892 C   0  0  2  0  0  0  0  0  0  0  0  0
   43.7405   -2.7830    7.5172 N   0  0  0  0  0  0  0  0  0  0  0  0
   40.3173   -0.2662    9.9237 N   0  0  0  0  0  0  0  0  0  0  0  0
   43.6703    2.1026    7.2313 O   0  0  0  0  0  0  0  0  0  0  0  0
   45.1229   -0.3195    6.9476 O   0  0  0  0  0  0  0  0  0  0  0  0
  1  2  1  0  0  0  0
  1 12  1  6  0  0  0
  1 13  1  0  0  0  0
  2  3  1  0  0  0  0
  2 10  1  6  0  0  0
  4  3  1  6  0  0  0
  4  5  1  0  0  0  0
  4 14  1  0  0  0  0
  5  6  1  0  0  0  0
  5 13  1  1  0  0  0
  6  7  1  0  0  0  0
  6 15  1  1  0  0  0
  7  8  1  0  0  0  0
  7 11  1  1  0  0  0
  8 14  1  0  0  0  0
  8 16  1  6  0  0  0
  9 11  1  0  0  0  0
 17 16  1  6  0  0  0
 17 18  1  0  0  0  0
 17 24  1  0  0  0  0
 18 19  1  0  0  0  0
 18 25  1  1  0  0  0
 19 20  1  0  0  0  0
 19 26  1  6  0  0  0
 20 21  1  0  0  0  0
 20 23  1  6  0  0  0
 21 22  1  6  0  0  0
 21 24  1  0  0  0  0
 22 27  1  0  0  0  0
 28 12  1  1  0  0  0
 28 29  1  0  0  0  0
 28 33  1  0  0  0  0
 29 30  1  0  0  0  0
 29 36  1  6  0  0  0
 30 31  1  0  0  0  0
 30 37  1  1  0  0  0
 31 32  1  0  0  0  0
 31 34  1  6  0  0  0
 32 33  1  0  0  0  0
 33 35  1  6  0  0  0
M  END
>  <CHROM.1>
-65.29872023,-76.51700810,-139.28599205,-83.71667980,65.05921411,-175.38322699
40.55591219,5.58227331,8.61747066,0.01035435,-1.26042830,1.50911374

>  <Name>
1yrj_lig

>  <RI>
0

>  <Rbt.Current_Directory>
/home/itssahil/PROJECTS/Mol_Feturizer/New_Systems/rnas/1yrj

>  <Rbt.Executable>
rbdock ($Id: //depot/dev/client3/rdock/2013.1/src/exe/rbdock.cxx#4 $)

>  <Rbt.Library>
libRbt.so (2013.1, Build901 2013/11/27)

>  <Rbt.Parameter_File>
/export/apps/rDock/src/rDock_2013.1_src/data/scripts/dock_solv.prm

>  <Rbt.Receptor>
prm/pocket_docking_4.prm

>  <SCORE>
-15.4356

>  <SCORE.INTER>
-16.0216

>  <SCORE.INTER.CONST>
1

>  <SCORE.INTER.POLAR>
0

>  <SCORE.INTER.ROT>
6

>  <SCORE.INTER.SOLV>
17.2293

>  <SCORE.INTER.VDW>
-24.0242

>  <SCORE.INTER.norm>
-0.433017

>  <SCORE.INTRA>
0.583413

>  <SCORE.INTRA.DIHEDRAL>
-7.06421

>  <SCORE.INTRA.DIHEDRAL.0>
15.6389

>  <SCORE.INTRA.POLAR>
0

>  <SCORE.INTRA.POLAR.0>
0

>  <SCORE.INTRA.REPUL>
0

>  <SCORE.INTRA.REPUL.0>
0

>  <SCORE.INTRA.SOLV>
3.54254

>  <SCORE.INTRA.SOLV.lig_0>
-90.9181

>  <SCORE.INTRA.VDW>
2.34425

>  <SCORE.INTRA.VDW.0>
-3.14158

>  <SCORE.INTRA.norm>
0.0157679

>  <SCORE.RESTR>
0.00259534

>  <SCORE.RESTR.CAVITY>
0.00259534

>  <SCORE.RESTR.norm>
7.01443e-05

>  <SCORE.SYSTEM>
0

>  <SCORE.SYSTEM.CONST>
0

>  <SCORE.SYSTEM.DIHEDRAL>
0

>  <SCORE.SYSTEM.SOLV>
0

>  <SCORE.SYSTEM.norm>
0

>  <SCORE.heavy>
37

>  <SCORE.norm>
-0.417179

>  <RMSD>
10.380

$$$$
1yrj_lig
 OpenBabel11021811423D
libRbt.so/2013.1/901 2013/11/27
 37 40  0  0  0  0  0  0  0  0999 V2000
   39.1582   -0.0560    9.6852 C   0  0  1  0  0  0  0  0  0  0  0  0
   38.0415    0.0640    8.6298 C   0  0  1  0  0  0  0  0  0  0  0  0
   38.3441    1.1645    7.6004 C   0  0  0  0  0  0  0  0  0  0  0  0
   38.6025    2.5123    8.3231 C   0  0  1  0  0  0  0  0  0  0  0  0
   39.7580    2.3580    9.3301 C   0  0  1  0  0  0  0  0  0  0  0  0
   40.0099    3.7521   10.0450 C   0  0  1  0  0  0  0  0  0  0  0  0
   40.3596    4.8175    8.9933 C   0  0  1  0  0  0  0  0  0  0  0  0
   39.1915    4.8981    7.9807 C   0  0  2  0  0  0  0  0  0  0  0  0
   39.4985    6.8135   10.3279 C   0  0  0  0  0  0  0  0  0  0  0  0
   37.7901   -1.2159    7.9475 N   0  0  0  0  0  0  0  0  0  0  0  0
   40.6480    6.1233    9.6635 N   0  0  0  0  0  0  0  0  0  0  0  0
   40.3573   -0.6796    9.1888 O   0  0  0  0  0  0  0  0  0  0  0  0
   39.4109    1.2746   10.2720 O   0  0  0  0  0  0  0  0  0  0  0  0
   38.9377    3.5991    7.3748 O   0  0  0  0  0  0  0  0  0  0  0  0
   38.8245    4.1703   10.6889 O   0  0  0  0  0  0  0  0  0  0  0  0
   39.4619    5.8247    6.9281 O   0  0  0  0  0  0  0  0  0  0  0  0
   39.1102    7.1878    7.2625 C   0  0  2  0  0  0  0  0  0  0  0  0
   37.5942    7.4435    7.2613 C   0  0  1  0  0  0  0  0  0  0  0  0
   37.0170    7.3804    5.8222 C   0  0  2  0  0  0  0  0  0  0  0  0
   37.7244    8.3834    4.9398 C   0  0  1  0  0  0  0  0  0  0  0  0
   39.2418    8.0819    4.9383 C   0  0  1  0  0  0  0  0  0  0  0  0
   40.0434    9.0807    4.1067 C   0  0  0  0  0  0  0  0  0  0  0  0
   37.1574    8.2965    3.5780 N   0  0  0  0  0  0  0  0  0  0  0  0
   39.7556    8.1301    6.3189 O   0  0  0  0  0  0  0  0  0  0  0  0
   36.9744    6.4903    8.1368 O   0  0  0  0  0  0  0  0  0  0  0  0
   35.6184    7.6970    5.8489 O   0  0  0  0  0  0  0  0  0  0  0  0
   41.4015    8.7307    4.1386 O   0  0  0  0  0  0  0  0  0  0  0  0
   40.5341   -2.1836    9.0432 C   0  0  1  0  0  0  0  0  0  0  0  0
   41.2603   -2.4287    7.7021 C   0  0  1  0  0  0  0  0  0  0  0  0
   41.5496   -3.9345    7.4895 C   0  0  2  0  0  0  0  0  0  0  0  0
   42.4051   -4.4713    8.6431 C   0  0  1  0  0  0  0  0  0  0  0  0
   41.6717   -4.2652    9.9930 C   0  0  0  0  0  0  0  0  0  0  0  0
   41.4101   -2.7683   10.1905 C   0  0  2  0  0  0  0  0  0  0  0  0
   42.6685   -5.9134    8.4393 N   0  0  0  0  0  0  0  0  0  0  0  0
   40.7362   -2.6144   11.4769 N   0  0  0  0  0  0  0  0  0  0  0  0
   40.4240   -1.9623    6.6209 O   0  0  0  0  0  0  0  0  0  0  0  0
   42.2488   -4.1023    6.2374 O   0  0  0  0  0  0  0  0  0  0  0  0
  1  2  1  0  0  0  0
  1 12  1  6  0  0  0
  1 13  1  0  0  0  0
  2  3  1  0  0  0  0
  2 10  1  6  0  0  0
  4  3  1  6  0  0  0
  4  5  1  0  0  0  0
  4 14  1  0  0  0  0
  5  6  1  0  0  0  0
  5 13  1  1  0  0  0
  6  7  1  0  0  0  0
  6 15  1  6  0  0  0
  7  8  1  0  0  0  0
  7 11  1  1  0  0  0
  8 14  1  0  0  0  0
  8 16  1  6  0  0  0
  9 11  1  0  0  0  0
 17 16  1  6  0  0  0
 17 18  1  0  0  0  0
 17 24  1  0  0  0  0
 18 19  1  0  0  0  0
 18 25  1  1  0  0  0
 19 20  1  0  0  0  0
 19 26  1  1  0  0  0
 20 21  1  0  0  0  0
 20 23  1  6  0  0  0
 21 22  1  6  0  0  0
 21 24  1  0  0  0  0
 22 27  1  0  0  0  0
 28 12  1  1  0  0  0
 28 29  1  0  0  0  0
 28 33  1  0  0  0  0
 29 30  1  0  0  0  0
 29 36  1  6  0  0  0
 30 31  1  0  0  0  0
 30 37  1  6  0  0  0
 31 32  1  0  0  0  0
 31 34  1  6  0  0  0
 32 33  1  0  0  0  0
 33 35  1  1  0  0  0
M  END
>  <CHROM.1>
-80.29634111,-67.97271681,-85.55885673,-73.85081117,-179.15040827,138.63580278
39.58507027,2.69381656,7.85113993,0.78307626,-1.25094682,2.14357491

>  <Name>
1yrj_lig

>  <RI>
0

>  <Rbt.Current_Directory>
/home/itssahil/PROJECTS/Mol_Feturizer/New_Systems/rnas/1yrj

>  <Rbt.Executable>
rbdock ($Id: //depot/dev/client3/rdock/2013.1/src/exe/rbdock.cxx#4 $)

>  <Rbt.Library>
libRbt.so (2013.1, Build901 2013/11/27)

>  <Rbt.Parameter_File>
/export/apps/rDock/src/rDock_2013.1_src/data/scripts/dock_solv.prm

>  <Rbt.Receptor>
prm/pocket_docking_5.prm

>  <SCORE>
-20.8048

>  <SCORE.INTER>
-22.1813

>  <SCORE.INTER.CONST>
1

>  <SCORE.INTER.POLAR>
-2.78455

>  <SCORE.INTER.ROT>
6

>  <SCORE.INTER.SOLV>
16.4147

>  <SCORE.INTER.VDW>
-18.5773

>  <SCORE.INTER.norm>
-0.599495

>  <SCORE.INTRA>
1.37656

>  <SCORE.INTRA.DIHEDRAL>
-4.39158

>  <SCORE.INTRA.DIHEDRAL.0>
15.6389

>  <SCORE.INTRA.POLAR>
0

>  <SCORE.INTRA.POLAR.0>
0

>  <SCORE.INTRA.REPUL>
0

>  <SCORE.INTRA.REPUL.0>
0

>  <SCORE.INTRA.SOLV>
1.23947

>  <SCORE.INTRA.SOLV.lig_0>
-90.9181

>  <SCORE.INTRA.VDW>
2.95262

>  <SCORE.INTRA.VDW.0>
-3.14158

>  <SCORE.INTRA.norm>
0.0372044

>  <SCORE.RESTR>
0

>  <SCORE.RESTR.CAVITY>
0

>  <SCORE.RESTR.norm>
0

>  <SCORE.SYSTEM>
0

>  <SCORE.SYSTEM.CONST>
0

>  <SCORE.SYSTEM.DIHEDRAL>
0

>  <SCORE.SYSTEM.SOLV>
0

>  <SCORE.SYSTEM.norm>
0

>  <SCORE.heavy>
37

>  <SCORE.norm>
-0.562291

>  <RMSD>
10.384

$$$$
1yrj_lig
 OpenBabel11021811423D
libRbt.so/2013.1/901 2013/11/27
 37 40  0  0  0  0  0  0  0  0999 V2000
   38.7747   -0.2450    9.9419 C   0  0  1  0  0  0  0  0  0  0  0  0
   37.7350   -0.1058    8.8128 C   0  0  1  0  0  0  0  0  0  0  0  0
   38.1566    0.9459    7.7742 C   0  0  0  0  0  0  0  0  0  0  0  0
   38.4346    2.3022    8.4734 C   0  0  1  0  0  0  0  0  0  0  0  0
   39.5144    2.1253    9.5577 C   0  0  1  0  0  0  0  0  0  0  0  0
   39.7886    3.5279   10.2473 C   0  0  1  0  0  0  0  0  0  0  0  0
   40.2569    4.5416    9.1906 C   0  0  1  0  0  0  0  0  0  0  0  0
   39.1613    4.6453    8.1020 C   0  0  2  0  0  0  0  0  0  0  0  0
   41.7607    5.8992   10.7405 C   0  0  0  0  0  0  0  0  0  0  0  0
   37.4648   -1.3934    8.1525 N   0  0  0  0  0  0  0  0  0  0  0  0
   40.5661    5.8528    9.8405 N   0  0  0  0  0  0  0  0  0  0  0  0
   39.9709   -0.9402    9.5429 O   0  0  0  0  0  0  0  0  0  0  0  0
   39.0548    1.0901   10.5056 O   0  0  0  0  0  0  0  0  0  0  0  0
   38.8828    3.3411    7.5182 O   0  0  0  0  0  0  0  0  0  0  0  0
   38.5866    4.0221   10.8002 O   0  0  0  0  0  0  0  0  0  0  0  0
   39.5437    5.5240    7.0431 O   0  0  0  0  0  0  0  0  0  0  0  0
   38.4678    5.8053    6.1174 C   0  0  2  0  0  0  0  0  0  0  0  0
   38.9359    6.5172    4.8377 C   0  0  1  0  0  0  0  0  0  0  0  0
   39.3936    7.9688    5.1401 C   0  0  2  0  0  0  0  0  0  0  0  0
   38.2678    8.7378    5.7929 C   0  0  1  0  0  0  0  0  0  0  0  0
   37.8399    8.0134    7.0911 C   0  0  1  0  0  0  0  0  0  0  0  0
   36.6697    8.6985    7.7935 C   0  0  0  0  0  0  0  0  0  0  0  0
   38.7346   10.1116    6.0723 N   0  0  0  0  0  0  0  0  0  0  0  0
   37.4298    6.6337    6.7740 O   0  0  0  0  0  0  0  0  0  0  0  0
   39.9782    5.7330    4.2397 O   0  0  0  0  0  0  0  0  0  0  0  0
   39.7515    8.6267    3.9170 O   0  0  0  0  0  0  0  0  0  0  0  0
   37.0883    9.9401    8.2945 O   0  0  0  0  0  0  0  0  0  0  0  0
   40.2224   -2.4172    9.8072 C   0  0  1  0  0  0  0  0  0  0  0  0
   41.6838   -2.5508   10.2892 C   0  0  1  0  0  0  0  0  0  0  0  0
   42.0216   -4.0174   10.6514 C   0  0  2  0  0  0  0  0  0  0  0  0
   41.0714   -4.5188   11.7454 C   0  0  1  0  0  0  0  0  0  0  0  0
   39.6020   -4.4249   11.2609 C   0  0  0  0  0  0  0  0  0  0  0  0
   39.2846   -2.9642   10.9238 C   0  0  2  0  0  0  0  0  0  0  0  0
   41.3926   -5.9246   12.0789 N   0  0  0  0  0  0  0  0  0  0  0  0
   37.8909   -2.9149   10.4900 N   0  0  0  0  0  0  0  0  0  0  0  0
   42.5698   -2.1205    9.2330 O   0  0  0  0  0  0  0  0  0  0  0  0
   43.3867   -4.0797   11.1175 O   0  0  0  0  0  0  0  0  0  0  0  0
  1  2  1  0  0  0  0
  1 12  1  6  0  0  0
  1 13  1  0  0  0  0
  2  3  1  0  0  0  0
  2 10  1  6  0  0  0
  4  3  1  6  0  0  0
  4  5  1  0  0  0  0
  4 14  1  0  0  0  0
  5  6  1  0  0  0  0
  5 13  1  1  0  0  0
  6  7  1  0  0  0  0
  6 15  1  6  0  0  0
  7  8  1  0  0  0  0
  7 11  1  1  0  0  0
  8 14  1  0  0  0  0
  8 16  1  6  0  0  0
  9 11  1  0  0  0  0
 17 16  1  1  0  0  0
 17 18  1  0  0  0  0
 17 24  1  0  0  0  0
 18 19  1  0  0  0  0
 18 25  1  1  0  0  0
 19 20  1  0  0  0  0
 19 26  1  6  0  0  0
 20 21  1  0  0  0  0
 20 23  1  1  0  0  0
 21 22  1  6  0  0  0
 21 24  1  0  0  0  0
 22 27  1  0  0  0  0
 28 12  1  1  0  0  0
 28 29  1  0  0  0  0
 28 33  1  0  0  0  0
 29 30  1  0  0  0  0
 29 36  1  6  0  0  0
 30 31  1  0  0  0  0
 30 37  1  1  0  0  0
 31 32  1  0  0  0  0
 31 34  1  6  0  0  0
 32 33  1  0  0  0  0
 33 35  1  6  0  0  0
M  END
>  <CHROM.1>
-97.76754208,68.64274568,-171.00226142,-168.68289211,-67.95434585,-136.67012588
39.45430368,2.54155254,8.62760214,1.05546324,1.22460080,-3.01107021

>  <Name>
1yrj_lig

>  <RI>
0

>  <Rbt.Current_Directory>
/home/itssahil/PROJECTS/Mol_Feturizer/New_Systems/rnas/1yrj

>  <Rbt.Executable>
rbdock ($Id: //depot/dev/client3/rdock/2013.1/src/exe/rbdock.cxx#4 $)

>  <Rbt.Library>
libRbt.so (2013.1, Build901 2013/11/27)

>  <Rbt.Parameter_File>
/export/apps/rDock/src/rDock_2013.1_src/data/scripts/dock_solv.prm

>  <Rbt.Receptor>
prm/pocket_docking_4.prm

>  <SCORE>
-23.3665

>  <SCORE.INTER>
-24.3514

>  <SCORE.INTER.CONST>
1

>  <SCORE.INTER.POLAR>
-1.41026

>  <SCORE.INTER.ROT>
6

>  <SCORE.INTER.SOLV>
17.0129

>  <SCORE.INTER.VDW>
-24.8044

>  <SCORE.INTER.norm>
-0.658146

>  <SCORE.INTRA>
0.984876

>  <SCORE.INTRA.DIHEDRAL>
-3.41253

>  <SCORE.INTRA.DIHEDRAL.0>
15.6389

>  <SCORE.INTRA.POLAR>
0

>  <SCORE.INTRA.POLAR.0>
0

>  <SCORE.INTRA.REPUL>
0

>  <SCORE.INTRA.REPUL.0>
0

>  <SCORE.INTRA.SOLV>
2.56797

>  <SCORE.INTRA.SOLV.lig_0>
-90.9181

>  <SCORE.INTRA.VDW>
1.40715

>  <SCORE.INTRA.VDW.0>
-3.14158

>  <SCORE.INTRA.norm>
0.0266183

>  <SCORE.RESTR>
0

>  <SCORE.RESTR.CAVITY>
0

>  <SCORE.RESTR.norm>
0

>  <SCORE.SYSTEM>
0

>  <SCORE.SYSTEM.CONST>
0

>  <SCORE.SYSTEM.DIHEDRAL>
0

>  <SCORE.SYSTEM.SOLV>
0

>  <SCORE.SYSTEM.norm>
0

>  <SCORE.heavy>
37

>  <SCORE.norm>
-0.631527

>  <RMSD>
10.385

$$$$
1yrj_lig
 OpenBabel11021811423D
libRbt.so/2013.1/901 2013/11/27
 37 40  0  0  0  0  0  0  0  0999 V2000
   38.6370   -0.4822    9.7857 C   0  0  1  0  0  0  0  0  0  0  0  0
   37.5620   -0.3012    8.6961 C   0  0  1  0  0  0  0  0  0  0  0  0
   37.9790    0.7449    7.6501 C   0  0  0  0  0  0  0  0  0  0  0  0
   38.3251    2.0861    8.3479 C   0  0  1  0  0  0  0  0  0  0  0  0
   39.4372    1.8667    9.3910 C   0  0  1  0  0  0  0  0  0  0  0  0
   39.7806    3.2544   10.0797 C   0  0  1  0  0  0  0  0  0  0  0  0
   40.2424    4.2612    9.0136 C   0  0  1  0  0  0  0  0  0  0  0  0
   39.1120    4.4080    7.9663 C   0  0  2  0  0  0  0  0  0  0  0  0
   41.6397    5.5002   10.7511 C   0  0  0  0  0  0  0  0  0  0  0  0
   37.2273   -1.5744    8.0373 N   0  0  0  0  0  0  0  0  0  0  0  0
   40.6164    5.5568    9.6608 N   0  0  0  0  0  0  0  0  0  0  0  0
   39.7952   -1.2115    9.3387 O   0  0  0  0  0  0  0  0  0  0  0  0
   38.9795    0.8389   10.3479 O   0  0  0  0  0  0  0  0  0  0  0  0
   38.7713    3.1180    7.3842 O   0  0  0  0  0  0  0  0  0  0  0  0
   38.6158    3.7818   10.6793 O   0  0  0  0  0  0  0  0  0  0  0  0
   39.4836    5.2827    6.9003 O   0  0  0  0  0  0  0  0  0  0  0  0
   38.4013    5.5519    5.9785 C   0  0  2  0  0  0  0  0  0  0  0  0
   38.8637    6.2257    4.6763 C   0  0  1  0  0  0  0  0  0  0  0  0
   39.3399    7.6796    4.9367 C   0  0  2  0  0  0  0  0  0  0  0  0
   38.2291    8.4771    5.5808 C   0  0  1  0  0  0  0  0  0  0  0  0
   37.8068    7.7909    6.9014 C   0  0  1  0  0  0  0  0  0  0  0  0
   36.6513    8.5063    7.5976 C   0  0  0  0  0  0  0  0  0  0  0  0
   38.7132    9.8525    5.8201 N   0  0  0  0  0  0  0  0  0  0  0  0
   37.3789    6.4080    6.6240 O   0  0  0  0  0  0  0  0  0  0  0  0
   39.8915    5.4152    4.0882 O   0  0  0  0  0  0  0  0  0  0  0  0
   39.6921    8.3020    3.6936 O   0  0  0  0  0  0  0  0  0  0  0  0
   37.0963    9.7423    8.0897 O   0  0  0  0  0  0  0  0  0  0  0  0
   40.6651   -2.0643   10.2500 C   0  0  1  0  0  0  0  0  0  0  0  0
   39.8729   -3.3536   10.5596 C   0  0  1  0  0  0  0  0  0  0  0  0
   40.7041   -4.3252   11.4320 C   0  0  2  0  0  0  0  0  0  0  0  0
   42.0113   -4.6844   10.7156 C   0  0  1  0  0  0  0  0  0  0  0  0
   42.8345   -3.4021   10.4314 C   0  0  0  0  0  0  0  0  0  0  0  0
   42.0002   -2.4629    9.5541 C   0  0  2  0  0  0  0  0  0  0  0  0
   42.8060   -5.6044   11.5598 N   0  0  0  0  0  0  0  0  0  0  0  0
   42.8144   -1.2786    9.2946 N   0  0  0  0  0  0  0  0  0  0  0  0
   38.6679   -3.0060   11.2759 O   0  0  0  0  0  0  0  0  0  0  0  0
   39.9276   -5.5191   11.6690 O   0  0  0  0  0  0  0  0  0  0  0  0
  1  2  1  0  0  0  0
  1 12  1  6  0  0  0
  1 13  1  0  0  0  0
  2  3  1  0  0  0  0
  2 10  1  6  0  0  0
  4  3  1  6  0  0  0
  4  5  1  0  0  0  0
  4 14  1  0  0  0  0
  5  6  1  0  0  0  0
  5 13  1  1  0  0  0
  6  7  1  0  0  0  0
  6 15  1  6  0  0  0
  7  8  1  0  0  0  0
  7 11  1  1  0  0  0
  8 14  1  0  0  0  0
  8 16  1  6  0  0  0
  9 11  1  0  0  0  0
 17 16  1  1  0  0  0
 17 18  1  0  0  0  0
 17 24  1  0  0  0  0
 18 19  1  0  0  0  0
 18 25  1  1  0  0  0
 19 20  1  0  0  0  0
 19 26  1  6  0  0  0
 20 21  1  0  0  0  0
 20 23  1  1  0  0  0
 21 22  1  6  0  0  0
 21 24  1  0  0  0  0
 22 27  1  0  0  0  0
 28 12  1  6  0  0  0
 28 29  1  0  0  0  0
 28 33  1  0  0  0  0
 29 30  1  0  0  0  0
 29 36  1  1  0  0  0
 30 31  1  0  0  0  0
 30 37  1  6  0  0  0
 31 32  1  0  0  0  0
 31 34  1  1  0  0  0
 32 33  1  0  0  0  0
 33 35  1  1  0  0  0
M  END
>  <CHROM.1>
-150.91563540,55.03808582,-173.90922558,-167.17480005,-69.31781472,74.16931211
39.45676941,2.35331816,8.49958228,-0.55560959,-1.35801372,0.63013750

>  <Name>
1yrj_lig

>  <RI>
0

>  <Rbt.Current_Directory>
/home/itssahil/PROJECTS/Mol_Feturizer/New_Systems/rnas/1yrj

>  <Rbt.Executable>
rbdock ($Id: //depot/dev/client3/rdock/2013.1/src/exe/rbdock.cxx#4 $)

>  <Rbt.Library>
libRbt.so (2013.1, Build901 2013/11/27)

>  <Rbt.Parameter_File>
/export/apps/rDock/src/rDock_2013.1_src/data/scripts/dock_solv.prm

>  <Rbt.Receptor>
prm/pocket_docking_6.prm

>  <SCORE>
-28.5649

>  <SCORE.INTER>
-24.535

>  <SCORE.INTER.CONST>
1

>  <SCORE.INTER.POLAR>
-1.33581

>  <SCORE.INTER.ROT>
6

>  <SCORE.INTER.SOLV>
14.5714

>  <SCORE.INTER.VDW>
-24.3611

>  <SCORE.INTER.norm>
-0.663108

>  <SCORE.INTRA>
-4.02992

>  <SCORE.INTRA.DIHEDRAL>
-9.93535

>  <SCORE.INTRA.DIHEDRAL.0>
15.6389

>  <SCORE.INTRA.POLAR>
0

>  <SCORE.INTRA.POLAR.0>
0

>  <SCORE.INTRA.REPUL>
0

>  <SCORE.INTRA.REPUL.0>
0

>  <SCORE.INTRA.SOLV>
-1.20466

>  <SCORE.INTRA.SOLV.lig_0>
-90.9181

>  <SCORE.INTRA.VDW>
1.54008

>  <SCORE.INTRA.VDW.0>
-3.14158

>  <SCORE.INTRA.norm>
-0.108917

>  <SCORE.RESTR>
0

>  <SCORE.RESTR.CAVITY>
0

>  <SCORE.RESTR.norm>
0

>  <SCORE.SYSTEM>
0

>  <SCORE.SYSTEM.CONST>
0

>  <SCORE.SYSTEM.DIHEDRAL>
0

>  <SCORE.SYSTEM.SOLV>
0

>  <SCORE.SYSTEM.norm>
0

>  <SCORE.heavy>
37

>  <SCORE.norm>
-0.772025

>  <RMSD>
10.403

$$$$
1yrj_lig
 OpenBabel11021811423D
libRbt.so/2013.1/901 2013/11/27
 37 40  0  0  0  0  0  0  0  0999 V2000
   40.1297    1.1678    9.7965 C   0  0  1  0  0  0  0  0  0  0  0  0
   38.8434    1.2987    8.9577 C   0  0  1  0  0  0  0  0  0  0  0  0
   38.8793    2.5355    8.0459 C   0  0  0  0  0  0  0  0  0  0  0  0
   39.1514    3.8093    8.8879 C   0  0  1  0  0  0  0  0  0  0  0  0
   40.4702    3.6539    9.6687 C   0  0  1  0  0  0  0  0  0  0  0  0
   40.7310    4.9738   10.5101 C   0  0  1  0  0  0  0  0  0  0  0  0
   40.8121    6.1831    9.5643 C   0  0  1  0  0  0  0  0  0  0  0  0
   39.4857    6.2651    8.7704 C   0  0  2  0  0  0  0  0  0  0  0  0
   42.2908    7.3844   11.2604 C   0  0  0  0  0  0  0  0  0  0  0  0
   38.5797    0.0879    8.1630 N   0  0  0  0  0  0  0  0  0  0  0  0
   41.1081    7.4245   10.3446 N   0  0  0  0  0  0  0  0  0  0  0  0
   41.2714    0.7271    9.0379 O   0  0  0  0  0  0  0  0  0  0  0  0
   40.3744    2.4398   10.5042 O   0  0  0  0  0  0  0  0  0  0  0  0
   39.2342    5.0263    8.0484 O   0  0  0  0  0  0  0  0  0  0  0  0
   39.6440    5.1958   11.3839 O   0  0  0  0  0  0  0  0  0  0  0  0
   39.4995    7.3294    7.8183 O   0  0  0  0  0  0  0  0  0  0  0  0
   38.4975    8.3406    8.0773 C   0  0  2  0  0  0  0  0  0  0  0  0
   37.0839    7.9234    7.6399 C   0  0  1  0  0  0  0  0  0  0  0  0
   36.9748    7.8511    6.0936 C   0  0  2  0  0  0  0  0  0  0  0  0
   37.3443    9.1862    5.4888 C   0  0  1  0  0  0  0  0  0  0  0  0
   38.7805    9.5637    5.9226 C   0  0  1  0  0  0  0  0  0  0  0  0
   39.2200   10.9272    5.3939 C   0  0  0  0  0  0  0  0  0  0  0  0
   37.2356    9.0847    4.0187 N   0  0  0  0  0  0  0  0  0  0  0  0
   38.8566    9.6051    7.3940 O   0  0  0  0  0  0  0  0  0  0  0  0
   36.7685    6.6710    8.2653 O   0  0  0  0  0  0  0  0  0  0  0  0
   35.6272    7.5336    5.7192 O   0  0  0  0  0  0  0  0  0  0  0  0
   38.6288   11.9392    6.1646 O   0  0  0  0  0  0  0  0  0  0  0  0
   41.8677   -0.6691    9.1355 C   0  0  1  0  0  0  0  0  0  0  0  0
   42.2701   -0.8901   10.6104 C   0  0  1  0  0  0  0  0  0  0  0  0
   42.8298   -2.3165   10.8299 C   0  0  2  0  0  0  0  0  0  0  0  0
   41.7822   -3.3588   10.4209 C   0  0  1  0  0  0  0  0  0  0  0  0
   41.3960   -3.1721    8.9314 C   0  0  0  0  0  0  0  0  0  0  0  0
   40.8300   -1.7611    8.7402 C   0  0  2  0  0  0  0  0  0  0  0  0
   42.3278   -4.7198   10.6228 N   0  0  0  0  0  0  0  0  0  0  0  0
   40.4626   -1.6310    7.3328 N   0  0  0  0  0  0  0  0  0  0  0  0
   43.2909    0.0665   10.9690 O   0  0  0  0  0  0  0  0  0  0  0  0
   43.1653   -2.4758   12.2252 O   0  0  0  0  0  0  0  0  0  0  0  0
  1  2  1  0  0  0  0
  1 12  1  6  0  0  0
  1 13  1  0  0  0  0
  2  3  1  0  0  0  0
  2 10  1  6  0  0  0
  4  3  1  6  0  0  0
  4  5  1  0  0  0  0
  4 14  1  0  0  0  0
  5  6  1  0  0  0  0
  5 13  1  1  0  0  0
  6  7  1  0  0  0  0
  6 15  1  1  0  0  0
  7  8  1  0  0  0  0
  7 11  1  1  0  0  0
  8 14  1  0  0  0  0
  8 16  1  6  0  0  0
  9 11  1  0  0  0  0
 17 16  1  6  0  0  0
 17 18  1  0  0  0  0
 17 24  1  0  0  0  0
 18 19  1  0  0  0  0
 18 25  1  1  0  0  0
 19 20  1  0  0  0  0
 19 26  1  1  0  0  0
 20 21  1  0  0  0  0
 20 23  1  6  0  0  0
 21 22  1  6  0  0  0
 21 24  1  0  0  0  0
 22 27  1  0  0  0  0
 28 12  1  1  0  0  0
 28 29  1  0  0  0  0
 28 33  1  0  0  0  0
 29 30  1  0  0  0  0
 29 36  1  6  0  0  0
 30 31  1  0  0  0  0
 30 37  1  1  0  0  0
 31 32  1  0  0  0  0
 31 34  1  6  0  0  0
 32 33  1  0  0  0  0
 33 35  1  6  0  0  0
M  END
>  <CHROM.1>
-106.52708814,52.38904868,-117.32627600,-77.82481711,77.36186892,-58.26625652
39.88099216,3.92938718,8.67904741,1.10229422,0.84849481,-3.08071037

>  <Name>
1yrj_lig

>  <RI>
224

>  <Rbt.Current_Directory>
/home/itssahil/PROJECTS/Mol_Feturizer/New_Systems/rnas/1yrj

>  <Rbt.Executable>
rbdock ($Id: //depot/dev/client3/rdock/2013.1/src/exe/rbdock.cxx#4 $)

>  <Rbt.Library>
libRbt.so (2013.1, Build901 2013/11/27)

>  <Rbt.Parameter_File>
/export/apps/rDock/src/rDock_2013.1_src/data/scripts/dock_solv.prm

>  <Rbt.Receptor>
prm/pocket_docking_2.prm

>  <SCORE>
-15.4026

>  <SCORE.INTER>
-20.7787

>  <SCORE.INTER.CONST>
1

>  <SCORE.INTER.POLAR>
-1.46042

>  <SCORE.INTER.ROT>
6

>  <SCORE.INTER.SOLV>
15.5594

>  <SCORE.INTER.VDW>
-21.7709

>  <SCORE.INTER.norm>
-0.561587

>  <SCORE.INTRA>
3.18741

>  <SCORE.INTRA.DIHEDRAL>
0.360472

>  <SCORE.INTRA.DIHEDRAL.0>
15.6389

>  <SCORE.INTRA.POLAR>
0

>  <SCORE.INTRA.POLAR.0>
0

>  <SCORE.INTRA.REPUL>
0

>  <SCORE.INTRA.REPUL.0>
0

>  <SCORE.INTRA.SOLV>
2.89376

>  <SCORE.INTRA.SOLV.lig_0>
-90.9181

>  <SCORE.INTRA.VDW>
1.56029

>  <SCORE.INTRA.VDW.0>
-3.14158

>  <SCORE.INTRA.norm>
0.0861461

>  <SCORE.RESTR>
2.18874

>  <SCORE.RESTR.CAVITY>
2.18874

>  <SCORE.RESTR.norm>
0.0591552

>  <SCORE.SYSTEM>
0

>  <SCORE.SYSTEM.CONST>
0

>  <SCORE.SYSTEM.DIHEDRAL>
0

>  <SCORE.SYSTEM.SOLV>
0

>  <SCORE.SYSTEM.norm>
0

>  <SCORE.heavy>
37

>  <SCORE.norm>
-0.416286

>  <RMSD>
10.405

$$$$
1yrj_lig
 OpenBabel11021811423D
libRbt.so/2013.1/901 2013/11/27
 37 40  0  0  0  0  0  0  0  0999 V2000
   40.0577    1.1542    9.8348 C   0  0  1  0  0  0  0  0  0  0  0  0
   38.7201    1.3223    9.0878 C   0  0  1  0  0  0  0  0  0  0  0  0
   38.7330    2.5490    8.1619 C   0  0  0  0  0  0  0  0  0  0  0  0
   39.1075    3.8200    8.9681 C   0  0  1  0  0  0  0  0  0  0  0  0
   40.4725    3.6258    9.6552 C   0  0  1  0  0  0  0  0  0  0  0  0
   40.8373    4.9432   10.4611 C   0  0  1  0  0  0  0  0  0  0  0  0
   40.8919    6.1406    9.4985 C   0  0  1  0  0  0  0  0  0  0  0  0
   39.5158    6.2615    8.7997 C   0  0  2  0  0  0  0  0  0  0  0  0
   40.2619    7.9722   11.1582 C   0  0  0  0  0  0  0  0  0  0  0  0
   38.3596    0.1144    8.3275 N   0  0  0  0  0  0  0  0  0  0  0  0
   41.2846    7.3777   10.2419 N   0  0  0  0  0  0  0  0  0  0  0  0
   41.1269    0.6675    9.0022 O   0  0  0  0  0  0  0  0  0  0  0  0
   40.3952    2.4231   10.5090 O   0  0  0  0  0  0  0  0  0  0  0  0
   39.1716    5.0259    8.1113 O   0  0  0  0  0  0  0  0  0  0  0  0
   39.8234    5.2104   11.4073 O   0  0  0  0  0  0  0  0  0  0  0  0
   39.4980    7.3163    7.8371 O   0  0  0  0  0  0  0  0  0  0  0  0
   38.4916    8.3200    8.1080 C   0  0  2  0  0  0  0  0  0  0  0  0
   37.0748    7.8889    7.6952 C   0  0  1  0  0  0  0  0  0  0  0  0
   36.9415    7.8091    6.1511 C   0  0  2  0  0  0  0  0  0  0  0  0
   37.2897    9.1448    5.5350 C   0  0  1  0  0  0  0  0  0  0  0  0
   38.7294    9.5363    5.9442 C   0  0  1  0  0  0  0  0  0  0  0  0
   39.1485   10.9013    5.4028 C   0  0  0  0  0  0  0  0  0  0  0  0
   37.1583    9.0361    4.0673 N   0  0  0  0  0  0  0  0  0  0  0  0
   38.8287    9.5847    7.4139 O   0  0  0  0  0  0  0  0  0  0  0  0
   36.7803    6.6365    8.3306 O   0  0  0  0  0  0  0  0  0  0  0  0
   35.5909    7.4785    5.7998 O   0  0  0  0  0  0  0  0  0  0  0  0
   38.6680   11.0516    4.0935 O   0  0  0  0  0  0  0  0  0  0  0  0
   42.2379   -0.2472    9.4957 C   0  0  1  0  0  0  0  0  0  0  0  0
   41.6490   -1.6725    9.5828 C   0  0  1  0  0  0  0  0  0  0  0  0
   42.7258   -2.6974   10.0145 C   0  0  2  0  0  0  0  0  0  0  0  0
   43.8917   -2.6827    9.0188 C   0  0  1  0  0  0  0  0  0  0  0  0
   44.5165   -1.2659    8.9487 C   0  0  0  0  0  0  0  0  0  0  0  0
   43.4388   -0.2713    8.5044 C   0  0  2  0  0  0  0  0  0  0  0  0
   44.9222   -3.6565    9.4435 N   0  0  0  0  0  0  0  0  0  0  0  0
   44.0691    1.0442    8.4333 N   0  0  0  0  0  0  0  0  0  0  0  0
   40.5838   -1.6837   10.5581 O   0  0  0  0  0  0  0  0  0  0  0  0
   42.1286   -4.0113   10.0553 O   0  0  0  0  0  0  0  0  0  0  0  0
  1  2  1  0  0  0  0
  1 12  1  6  0  0  0
  1 13  1  0  0  0  0
  2  3  1  0  0  0  0
  2 10  1  6  0  0  0
  4  3  1  6  0  0  0
  4  5  1  0  0  0  0
  4 14  1  0  0  0  0
  5  6  1  0  0  0  0
  5 13  1  1  0  0  0
  6  7  1  0  0  0  0
  6 15  1  1  0  0  0
  7  8  1  0  0  0  0
  7 11  1  1  0  0  0
  8 14  1  0  0  0  0
  8 16  1  6  0  0  0
  9 11  1  0  0  0  0
 17 16  1  6  0  0  0
 17 18  1  0  0  0  0
 17 24  1  0  0  0  0
 18 19  1  0  0  0  0
 18 25  1  1  0  0  0
 19 20  1  0  0  0  0
 19 26  1  1  0  0  0
 20 21  1  0  0  0  0
 20 23  1  6  0  0  0
 21 22  1  6  0  0  0
 21 24  1  0  0  0  0
 22 27  1  0  0  0  0
 28 12  1  6  0  0  0
 28 29  1  0  0  0  0
 28 33  1  0  0  0  0
 29 30  1  0  0  0  0
 29 36  1  1  0  0  0
 30 31  1  0  0  0  0
 30 37  1  6  0  0  0
 31 32  1  0  0  0  0
 31 34  1  1  0  0  0
 32 33  1  0  0  0  0
 33 35  1  1  0  0  0
M  END
>  <CHROM.1>
-146.34865249,-72.37768105,-121.12722685,-78.30250157,-39.83123455,77.75620713
40.05194483,3.99108037,8.47767741,1.06861967,0.68855033,-3.08213940

>  <Name>
1yrj_lig

>  <RI>
224

>  <Rbt.Current_Directory>
/home/itssahil/PROJECTS/Mol_Feturizer/New_Systems/rnas/1yrj

>  <Rbt.Executable>
rbdock ($Id: //depot/dev/client3/rdock/2013.1/src/exe/rbdock.cxx#4 $)

>  <Rbt.Library>
libRbt.so (2013.1, Build901 2013/11/27)

>  <Rbt.Parameter_File>
/export/apps/rDock/src/rDock_2013.1_src/data/scripts/dock_solv.prm

>  <Rbt.Receptor>
prm/pocket_docking_2.prm

>  <SCORE>
-17.4144

>  <SCORE.INTER>
-21.7692

>  <SCORE.INTER.CONST>
1

>  <SCORE.INTER.POLAR>
-2.08405

>  <SCORE.INTER.ROT>
6

>  <SCORE.INTER.SOLV>
17.7452

>  <SCORE.INTER.VDW>
-21.081

>  <SCORE.INTER.norm>
-0.588356

>  <SCORE.INTRA>
3.36182

>  <SCORE.INTRA.DIHEDRAL>
0.271475

>  <SCORE.INTRA.DIHEDRAL.0>
15.6389

>  <SCORE.INTRA.POLAR>
0

>  <SCORE.INTRA.POLAR.0>
0

>  <SCORE.INTRA.REPUL>
0

>  <SCORE.INTRA.REPUL.0>
0

>  <SCORE.INTRA.SOLV>
0.173637

>  <SCORE.INTRA.SOLV.lig_0>
-90.9181

>  <SCORE.INTRA.VDW>
3.13926

>  <SCORE.INTRA.VDW.0>
-3.14158

>  <SCORE.INTRA.norm>
0.0908599

>  <SCORE.RESTR>
0.992916

>  <SCORE.RESTR.CAVITY>
0.992916

>  <SCORE.RESTR.norm>
0.0268356

>  <SCORE.SYSTEM>
0

>  <SCORE.SYSTEM.CONST>
0

>  <SCORE.SYSTEM.DIHEDRAL>
0

>  <SCORE.SYSTEM.SOLV>
0

>  <SCORE.SYSTEM.norm>
0

>  <SCORE.heavy>
37

>  <SCORE.norm>
-0.47066

>  <RMSD>
10.425

$$$$
1yrj_lig
 OpenBabel11021811423D
libRbt.so/2013.1/901 2013/11/27
 37 40  0  0  0  0  0  0  0  0999 V2000
   37.8978   11.1203   10.1991 C   0  0  1  0  0  0  0  0  0  0  0  0
   36.7357   10.1950    9.7883 C   0  0  1  0  0  0  0  0  0  0  0  0
   37.1606    9.1905    8.7053 C   0  0  0  0  0  0  0  0  0  0  0  0
   37.7578    9.9426    7.4874 C   0  0  1  0  0  0  0  0  0  0  0  0
   38.9460   10.8142    7.9362 C   0  0  1  0  0  0  0  0  0  0  0  0
   39.5457   11.5612    6.6711 C   0  0  1  0  0  0  0  0  0  0  0  0
   40.0071   10.5281    5.6304 C   0  0  1  0  0  0  0  0  0  0  0  0
   38.7908    9.6489    5.2507 C   0  0  2  0  0  0  0  0  0  0  0  0
   41.6404   10.4589    3.6723 C   0  0  0  0  0  0  0  0  0  0  0  0
   36.1631    9.4855   10.9441 N   0  0  0  0  0  0  0  0  0  0  0  0
   40.6199   11.2228    4.4560 N   0  0  0  0  0  0  0  0  0  0  0  0
   38.8907   10.4725   11.0162 O   0  0  0  0  0  0  0  0  0  0  0  0
   38.4732   11.7371    8.9878 O   0  0  0  0  0  0  0  0  0  0  0  0
   38.2191    9.0146    6.4296 O   0  0  0  0  0  0  0  0  0  0  0  0
   38.5377   12.3448    6.0673 O   0  0  0  0  0  0  0  0  0  0  0  0
   39.1463    8.6169    4.3297 O   0  0  0  0  0  0  0  0  0  0  0  0
   38.0750    7.6753    4.0855 C   0  0  2  0  0  0  0  0  0  0  0  0
   38.4317    6.6041    3.0420 C   0  0  1  0  0  0  0  0  0  0  0  0
   38.5518    7.2223    1.6236 C   0  0  2  0  0  0  0  0  0  0  0  0
   37.2599    7.9140    1.2528 C   0  0  1  0  0  0  0  0  0  0  0  0
   36.9442    9.0043    2.3040 C   0  0  1  0  0  0  0  0  0  0  0  0
   35.6251    9.7242    2.0329 C   0  0  0  0  0  0  0  0  0  0  0  0
   37.4065    8.4952   -0.0977 N   0  0  0  0  0  0  0  0  0  0  0  0
   36.8558    8.3899    3.6408 O   0  0  0  0  0  0  0  0  0  0  0  0
   39.6432    5.9559    3.4557 O   0  0  0  0  0  0  0  0  0  0  0  0
   38.8103    6.1864    0.6660 O   0  0  0  0  0  0  0  0  0  0  0  0
   35.7372   10.4752    0.8534 O   0  0  0  0  0  0  0  0  0  0  0  0
   40.0660   11.1954   11.6569 C   0  0  1  0  0  0  0  0  0  0  0  0
   40.8936   11.8217   10.5129 C   0  0  1  0  0  0  0  0  0  0  0  0
   42.0836   12.6419   11.0672 C   0  0  2  0  0  0  0  0  0  0  0  0
   41.5695   13.7487   11.9955 C   0  0  1  0  0  0  0  0  0  0  0  0
   40.7676   13.1315   13.1697 C   0  0  0  0  0  0  0  0  0  0  0  0
   39.5867   12.3387   12.5997 C   0  0  2  0  0  0  0  0  0  0  0  0
   42.7127   14.5216   12.5305 N   0  0  0  0  0  0  0  0  0  0  0  0
   38.8483   11.7898   13.7338 N   0  0  0  0  0  0  0  0  0  0  0  0
   41.4114   10.7666    9.6734 O   0  0  0  0  0  0  0  0  0  0  0  0
   42.8052   13.2228    9.9597 O   0  0  0  0  0  0  0  0  0  0  0  0
  1  2  1  0  0  0  0
  1 12  1  6  0  0  0
  1 13  1  0  0  0  0
  2  3  1  0  0  0  0
  2 10  1  1  0  0  0
  4  3  1  1  0  0  0
  4  5  1  0  0  0  0
  4 14  1  0  0  0  0
  5  6  1  0  0  0  0
  5 13  1  1  0  0  0
  6  7  1  0  0  0  0
  6 15  1  6  0  0  0
  7  8  1  0  0  0  0
  7 11  1  6  0  0  0
  8 14  1  0  0  0  0
  8 16  1  6  0  0  0
  9 11  1  0  0  0  0
 17 16  1  6  0  0  0
 17 18  1  0  0  0  0
 17 24  1  0  0  0  0
 18 19  1  0  0  0  0
 18 25  1  1  0  0  0
 19 20  1  0  0  0  0
 19 26  1  6  0  0  0
 20 21  1  0  0  0  0
 20 23  1  6  0  0  0
 21 22  1  6  0  0  0
 21 24  1  0  0  0  0
 22 27  1  0  0  0  0
 28 12  1  6  0  0  0
 28 29  1  0  0  0  0
 28 33  1  0  0  0  0
 29 30  1  0  0  0  0
 29 36  1  6  0  0  0
 30 31  1  0  0  0  0
 30 37  1  6  0  0  0
 31 32  1  0  0  0  0
 31 34  1  1  0  0  0
 32 33  1  0  0  0  0
 33 35  1  1  0  0  0
M  END
>  <CHROM.1>
-174.15940918,153.14408339,172.59929601,177.14312146,-67.02155612,-59.90400617
38.99277021,10.22792408,6.89595617,1.30249381,0.45673900,1.28441233

>  <Name>
1yrj_lig

>  <RI>
0

>  <Rbt.Current_Directory>
/home/itssahil/PROJECTS/Mol_Feturizer/New_Systems/rnas/1yrj

>  <Rbt.Executable>
rbdock ($Id: //depot/dev/client3/rdock/2013.1/src/exe/rbdock.cxx#4 $)

>  <Rbt.Library>
libRbt.so (2013.1, Build901 2013/11/27)

>  <Rbt.Parameter_File>
/export/apps/rDock/src/rDock_2013.1_src/data/scripts/dock_solv.prm

>  <Rbt.Receptor>
prm/pocket_docking_8.prm

>  <SCORE>
-21.1322

>  <SCORE.INTER>
-13.9574

>  <SCORE.INTER.CONST>
1

>  <SCORE.INTER.POLAR>
-0.660042

>  <SCORE.INTER.ROT>
6

>  <SCORE.INTER.SOLV>
11.9335

>  <SCORE.INTER.VDW>
-18.6827

>  <SCORE.INTER.norm>
-0.377228

>  <SCORE.INTRA>
-7.17474

>  <SCORE.INTRA.DIHEDRAL>
-14.3788

>  <SCORE.INTRA.DIHEDRAL.0>
15.6389

>  <SCORE.INTRA.POLAR>
0

>  <SCORE.INTRA.POLAR.0>
0

>  <SCORE.INTRA.REPUL>
0

>  <SCORE.INTRA.REPUL.0>
0

>  <SCORE.INTRA.SOLV>
-1.00684

>  <SCORE.INTRA.SOLV.lig_0>
-90.9181

>  <SCORE.INTRA.VDW>
0.518089

>  <SCORE.INTRA.VDW.0>
-3.14158

>  <SCORE.INTRA.norm>
-0.193912

>  <SCORE.RESTR>
0

>  <SCORE.RESTR.CAVITY>
0

>  <SCORE.RESTR.norm>
0

>  <SCORE.SYSTEM>
0

>  <SCORE.SYSTEM.CONST>
0

>  <SCORE.SYSTEM.DIHEDRAL>
0

>  <SCORE.SYSTEM.SOLV>
0

>  <SCORE.SYSTEM.norm>
0

>  <SCORE.heavy>
37

>  <SCORE.norm>
-0.57114

>  <RMSD>
10.438

$$$$
1yrj_lig
 OpenBabel11021811423D
libRbt.so/2013.1/901 2013/11/27
 37 40  0  0  0  0  0  0  0  0999 V2000
   38.8731   -0.1947    9.5164 C   0  0  1  0  0  0  0  0  0  0  0  0
   37.7464    0.0401    8.4912 C   0  0  1  0  0  0  0  0  0  0  0  0
   38.0715    1.2041    7.5416 C   0  0  0  0  0  0  0  0  0  0  0  0
   38.3849    2.4850    8.3582 C   0  0  1  0  0  0  0  0  0  0  0  0
   39.5484    2.2184    9.3320 C   0  0  1  0  0  0  0  0  0  0  0  0
   39.8567    3.5463   10.1443 C   0  0  1  0  0  0  0  0  0  0  0  0
   40.2273    4.6755    9.1691 C   0  0  1  0  0  0  0  0  0  0  0  0
   39.0486    4.8694    8.1844 C   0  0  2  0  0  0  0  0  0  0  0  0
   41.7768    5.8630   10.8109 C   0  0  0  0  0  0  0  0  0  0  0  0
   37.4429   -1.1765    7.7199 N   0  0  0  0  0  0  0  0  0  0  0  0
   40.5686    5.9174    9.9296 N   0  0  0  0  0  0  0  0  0  0  0  0
   40.0436   -0.8179    8.9555 O   0  0  0  0  0  0  0  0  0  0  0  0
   39.1783    1.0794   10.1963 O   0  0  0  0  0  0  0  0  0  0  0  0
   38.7431    3.6282    7.4879 O   0  0  0  0  0  0  0  0  0  0  0  0
   38.6951    3.9533   10.8367 O   0  0  0  0  0  0  0  0  0  0  0  0
   39.3353    5.8628    7.1993 O   0  0  0  0  0  0  0  0  0  0  0  0
   39.4178    7.2007    7.7443 C   0  0  2  0  0  0  0  0  0  0  0  0
   38.0467    7.8008    8.0958 C   0  0  1  0  0  0  0  0  0  0  0  0
   37.2221    8.1009    6.8159 C   0  0  2  0  0  0  0  0  0  0  0  0
   37.9945    9.0360    5.9138 C   0  0  1  0  0  0  0  0  0  0  0  0
   39.3545    8.3920    5.5545 C   0  0  1  0  0  0  0  0  0  0  0  0
   40.2243    9.2933    4.6810 C   0  0  0  0  0  0  0  0  0  0  0  0
   37.1874    9.2986    4.7042 N   0  0  0  0  0  0  0  0  0  0  0  0
   40.1045    8.1018    6.7897 O   0  0  0  0  0  0  0  0  0  0  0  0
   37.3691    6.8941    8.9777 O   0  0  0  0  0  0  0  0  0  0  0  0
   35.9833    8.7276    7.1757 O   0  0  0  0  0  0  0  0  0  0  0  0
   39.6052    9.4741    3.4353 O   0  0  0  0  0  0  0  0  0  0  0  0
   41.1741   -1.4044    9.7876 C   0  0  1  0  0  0  0  0  0  0  0  0
   40.6464   -2.7144   10.4133 C   0  0  1  0  0  0  0  0  0  0  0  0
   41.7500   -3.4283   11.2309 C   0  0  2  0  0  0  0  0  0  0  0  0
   42.9523   -3.7364   10.3305 C   0  0  1  0  0  0  0  0  0  0  0  0
   43.5156   -2.4257    9.7243 C   0  0  0  0  0  0  0  0  0  0  0  0
   42.4128   -1.7446    8.9070 C   0  0  2  0  0  0  0  0  0  0  0  0
   44.0077   -4.4086   11.1208 N   0  0  0  0  0  0  0  0  0  0  0  0
   42.9862   -0.5271    8.3397 N   0  0  0  0  0  0  0  0  0  0  0  0
   39.5454   -2.4053   11.2955 O   0  0  0  0  0  0  0  0  0  0  0  0
   41.2109   -4.6543   11.7703 O   0  0  0  0  0  0  0  0  0  0  0  0
  1  2  1  0  0  0  0
  1 12  1  6  0  0  0
  1 13  1  0  0  0  0
  2  3  1  0  0  0  0
  2 10  1  6  0  0  0
  4  3  1  6  0  0  0
  4  5  1  0  0  0  0
  4 14  1  0  0  0  0
  5  6  1  0  0  0  0
  5 13  1  1  0  0  0
  6  7  1  0  0  0  0
  6 15  1  6  0  0  0
  7  8  1  0  0  0  0
  7 11  1  1  0  0  0
  8 14  1  0  0  0  0
  8 16  1  6  0  0  0
  9 11  1  0  0  0  0
 17 16  1  6  0  0  0
 17 18  1  0  0  0  0
 17 24  1  0  0  0  0
 18 19  1  0  0  0  0
 18 25  1  1  0  0  0
 19 20  1  0  0  0  0
 19 26  1  1  0  0  0
 20 21  1  0  0  0  0
 20 23  1  6  0  0  0
 21 22  1  6  0  0  0
 21 24  1  0  0  0  0
 22 27  1  0  0  0  0
 28 12  1  6  0  0  0
 28 29  1  0  0  0  0
 28 33  1  0  0  0  0
 29 30  1  0  0  0  0
 29 36  1  1  0  0  0
 30 31  1  0  0  0  0
 30 37  1  6  0  0  0
 31 32  1  0  0  0  0
 31 34  1  1  0  0  0
 32 33  1  0  0  0  0
 33 35  1  1  0  0  0
M  END
>  <CHROM.1>
-167.42063580,64.47510951,-68.35232574,-74.77029523,-65.20930268,72.92170623
39.71455636,2.96316252,8.55843002,1.32757018,-0.00529470,2.79795963

>  <Name>
1yrj_lig

>  <RI>
0

>  <Rbt.Current_Directory>
/home/itssahil/PROJECTS/Mol_Feturizer/New_Systems/rnas/1yrj

>  <Rbt.Executable>
rbdock ($Id: //depot/dev/client3/rdock/2013.1/src/exe/rbdock.cxx#4 $)

>  <Rbt.Library>
libRbt.so (2013.1, Build901 2013/11/27)

>  <Rbt.Parameter_File>
/export/apps/rDock/src/rDock_2013.1_src/data/scripts/dock_solv.prm

>  <Rbt.Receptor>
prm/pocket_docking_3.prm

>  <SCORE>
-22.6206

>  <SCORE.INTER>
-18.0769

>  <SCORE.INTER.CONST>
1

>  <SCORE.INTER.POLAR>
-0.959166

>  <SCORE.INTER.ROT>
6

>  <SCORE.INTER.SOLV>
14.7723

>  <SCORE.INTER.VDW>
-21.3781

>  <SCORE.INTER.norm>
-0.488564

>  <SCORE.INTRA>
-4.58865

>  <SCORE.INTRA.DIHEDRAL>
-12.5253

>  <SCORE.INTRA.DIHEDRAL.0>
15.6389

>  <SCORE.INTRA.POLAR>
0

>  <SCORE.INTRA.POLAR.0>
0

>  <SCORE.INTRA.REPUL>
0

>  <SCORE.INTRA.REPUL.0>
0

>  <SCORE.INTRA.SOLV>
-0.164307

>  <SCORE.INTRA.SOLV.lig_0>
-90.9181

>  <SCORE.INTRA.VDW>
1.75615

>  <SCORE.INTRA.VDW.0>
-3.14158

>  <SCORE.INTRA.norm>
-0.124018

>  <SCORE.RESTR>
0.0448711

>  <SCORE.RESTR.CAVITY>
0.0448711

>  <SCORE.RESTR.norm>
0.00121273

>  <SCORE.SYSTEM>
0

>  <SCORE.SYSTEM.CONST>
0

>  <SCORE.SYSTEM.DIHEDRAL>
0

>  <SCORE.SYSTEM.SOLV>
0

>  <SCORE.SYSTEM.norm>
0

>  <SCORE.heavy>
37

>  <SCORE.norm>
-0.611369

>  <RMSD>
10.443

$$$$
1yrj_lig
 OpenBabel11021811423D
libRbt.so/2013.1/901 2013/11/27
 37 40  0  0  0  0  0  0  0  0999 V2000
   39.7335    0.6222    9.4771 C   0  0  1  0  0  0  0  0  0  0  0  0
   38.4088    0.5789    8.6905 C   0  0  1  0  0  0  0  0  0  0  0  0
   38.2857    1.7588    7.7133 C   0  0  0  0  0  0  0  0  0  0  0  0
   38.4620    3.0994    8.4733 C   0  0  1  0  0  0  0  0  0  0  0  0
   39.8192    3.1183    9.2019 C   0  0  1  0  0  0  0  0  0  0  0  0
   39.9796    4.5034    9.9593 C   0  0  1  0  0  0  0  0  0  0  0  0
   39.9028    5.6585    8.9477 C   0  0  1  0  0  0  0  0  0  0  0  0
   38.5449    5.5652    8.2104 C   0  0  2  0  0  0  0  0  0  0  0  0
   41.5056    7.3216   10.0302 C   0  0  0  0  0  0  0  0  0  0  0  0
   38.2365   -0.6955    7.9740 N   0  0  0  0  0  0  0  0  0  0  0  0
   40.1037    6.9656    9.6468 N   0  0  0  0  0  0  0  0  0  0  0  0
   40.8831    0.2520    8.6931 O   0  0  0  0  0  0  0  0  0  0  0  0
   39.8775    1.9506   10.1044 O   0  0  0  0  0  0  0  0  0  0  0  0
   38.3903    4.2684    7.5673 O   0  0  0  0  0  0  0  0  0  0  0  0
   38.9108    4.6683   10.8675 O   0  0  0  0  0  0  0  0  0  0  0  0
   38.4154    6.5693    7.2032 O   0  0  0  0  0  0  0  0  0  0  0  0
   37.2845    7.4470    7.4136 C   0  0  2  0  0  0  0  0  0  0  0  0
   37.0248    8.3992    6.2348 C   0  0  1  0  0  0  0  0  0  0  0  0
   38.1493    9.4619    6.1154 C   0  0  2  0  0  0  0  0  0  0  0  0
   38.2636   10.2374    7.4078 C   0  0  1  0  0  0  0  0  0  0  0  0
   38.5539    9.2563    8.5683 C   0  0  1  0  0  0  0  0  0  0  0  0
   38.6375    9.9519    9.9251 C   0  0  0  0  0  0  0  0  0  0  0  0
   39.3432   11.2361    7.2650 N   0  0  0  0  0  0  0  0  0  0  0  0
   37.4800    8.2495    8.6434 O   0  0  0  0  0  0  0  0  0  0  0  0
   36.8908    7.6144    5.0410 O   0  0  0  0  0  0  0  0  0  0  0  0
   37.8379   10.3770    5.0558 O   0  0  0  0  0  0  0  0  0  0  0  0
   37.4017   10.5457   10.2220 O   0  0  0  0  0  0  0  0  0  0  0  0
   41.8722   -0.8314    9.0961 C   0  0  1  0  0  0  0  0  0  0  0  0
   41.0481   -2.0811    9.4772 C   0  0  1  0  0  0  0  0  0  0  0  0
   41.9704   -3.2699    9.8408 C   0  0  2  0  0  0  0  0  0  0  0  0
   42.8891   -3.6007    8.6587 C   0  0  1  0  0  0  0  0  0  0  0  0
   43.7494   -2.3654    8.2888 C   0  0  0  0  0  0  0  0  0  0  0  0
   42.8178   -1.2071    7.9170 C   0  0  2  0  0  0  0  0  0  0  0  0
   43.7754   -4.7305    9.0170 N   0  0  0  0  0  0  0  0  0  0  0  0
   43.6635   -0.0716    7.5588 N   0  0  0  0  0  0  0  0  0  0  0  0
   40.2226   -1.7706   10.6209 O   0  0  0  0  0  0  0  0  0  0  0  0
   41.1506   -4.4139   10.1634 O   0  0  0  0  0  0  0  0  0  0  0  0
  1  2  1  0  0  0  0
  1 12  1  6  0  0  0
  1 13  1  0  0  0  0
  2  3  1  0  0  0  0
  2 10  1  6  0  0  0
  4  3  1  6  0  0  0
  4  5  1  0  0  0  0
  4 14  1  0  0  0  0
  5  6  1  0  0  0  0
  5 13  1  1  0  0  0
  6  7  1  0  0  0  0
  6 15  1  1  0  0  0
  7  8  1  0  0  0  0
  7 11  1  1  0  0  0
  8 14  1  0  0  0  0
  8 16  1  6  0  0  0
  9 11  1  0  0  0  0
 17 16  1  6  0  0  0
 17 18  1  0  0  0  0
 17 24  1  0  0  0  0
 18 19  1  0  0  0  0
 18 25  1  6  0  0  0
 19 20  1  0  0  0  0
 19 26  1  6  0  0  0
 20 21  1  0  0  0  0
 20 23  1  6  0  0  0
 21 22  1  1  0  0  0
 21 24  1  0  0  0  0
 22 27  1  0  0  0  0
 28 12  1  6  0  0  0
 28 29  1  0  0  0  0
 28 33  1  0  0  0  0
 29 30  1  0  0  0  0
 29 36  1  1  0  0  0
 30 31  1  0  0  0  0
 30 37  1  6  0  0  0
 31 32  1  0  0  0  0
 31 34  1  1  0  0  0
 32 33  1  0  0  0  0
 33 35  1  1  0  0  0
M  END
>  <CHROM.1>
-126.31293544,76.75835215,-120.48863324,-171.87727598,62.30403193,49.35094651
39.68446410,3.68677293,8.52825963,-1.03286141,-0.94558473,0.32639482

>  <Name>
1yrj_lig

>  <RI>
0

>  <Rbt.Current_Directory>
/home/itssahil/PROJECTS/Mol_Feturizer/New_Systems/rnas/1yrj

>  <Rbt.Executable>
rbdock ($Id: //depot/dev/client3/rdock/2013.1/src/exe/rbdock.cxx#4 $)

>  <Rbt.Library>
libRbt.so (2013.1, Build901 2013/11/27)

>  <Rbt.Parameter_File>
/export/apps/rDock/src/rDock_2013.1_src/data/scripts/dock_solv.prm

>  <Rbt.Receptor>
prm/pocket_docking_3.prm

>  <SCORE>
-17.5367

>  <SCORE.INTER>
-18.1319

>  <SCORE.INTER.CONST>
1

>  <SCORE.INTER.POLAR>
-1.03814

>  <SCORE.INTER.ROT>
6

>  <SCORE.INTER.SOLV>
10.9716

>  <SCORE.INTER.VDW>
-19.8847

>  <SCORE.INTER.norm>
-0.490051

>  <SCORE.INTRA>
0.595182

>  <SCORE.INTRA.DIHEDRAL>
-0.388822

>  <SCORE.INTRA.DIHEDRAL.0>
15.6389

>  <SCORE.INTRA.POLAR>
0

>  <SCORE.INTRA.POLAR.0>
0

>  <SCORE.INTRA.REPUL>
0

>  <SCORE.INTRA.REPUL.0>
0

>  <SCORE.INTRA.SOLV>
0.809334

>  <SCORE.INTRA.SOLV.lig_0>
-90.9181

>  <SCORE.INTRA.VDW>
0.384926

>  <SCORE.INTRA.VDW.0>
-3.14158

>  <SCORE.INTRA.norm>
0.016086

>  <SCORE.RESTR>
0

>  <SCORE.RESTR.CAVITY>
0

>  <SCORE.RESTR.norm>
0

>  <SCORE.SYSTEM>
0

>  <SCORE.SYSTEM.CONST>
0

>  <SCORE.SYSTEM.DIHEDRAL>
0

>  <SCORE.SYSTEM.SOLV>
0

>  <SCORE.SYSTEM.norm>
0

>  <SCORE.heavy>
37

>  <SCORE.norm>
-0.473965

>  <RMSD>
10.444

$$$$
1yrj_lig
 OpenBabel11021811423D
libRbt.so/2013.1/901 2013/11/27
 37 40  0  0  0  0  0  0  0  0999 V2000
   37.7980    9.8000   11.5955 C   0  0  1  0  0  0  0  0  0  0  0  0
   36.5164    9.3381   10.8747 C   0  0  1  0  0  0  0  0  0  0  0  0
   36.8222    8.7410    9.4918 C   0  0  0  0  0  0  0  0  0  0  0  0
   37.6291    9.7561    8.6408 C   0  0  1  0  0  0  0  0  0  0  0  0
   38.9238   10.1500    9.3767 C   0  0  1  0  0  0  0  0  0  0  0  0
   39.7354   11.1774    8.4801 C   0  0  1  0  0  0  0  0  0  0  0  0
   40.0690   10.5315    7.1255 C   0  0  1  0  0  0  0  0  0  0  0  0
   38.7406   10.1107    6.4511 C   0  0  2  0  0  0  0  0  0  0  0  0
   41.7378   10.8737    5.2270 C   0  0  0  0  0  0  0  0  0  0  0  0
   35.7457    8.3798   11.6837 N   0  0  0  0  0  0  0  0  0  0  0  0
   40.8777   11.4754    6.2935 N   0  0  0  0  0  0  0  0  0  0  0  0
   38.5968    8.7157   12.1047 O   0  0  0  0  0  0  0  0  0  0  0  0
   38.5581   10.6940   10.7002 O   0  0  0  0  0  0  0  0  0  0  0  0
   37.9831    9.2121    7.3099 O   0  0  0  0  0  0  0  0  0  0  0  0
   38.9322   12.3095    8.2196 O   0  0  0  0  0  0  0  0  0  0  0  0
   38.9623    9.4425    5.2086 O   0  0  0  0  0  0  0  0  0  0  0  0
   37.8775    9.6136    4.2664 C   0  0  2  0  0  0  0  0  0  0  0  0
   37.3273    8.2848    3.7232 C   0  0  1  0  0  0  0  0  0  0  0  0
   38.3589    7.5891    2.7957 C   0  0  2  0  0  0  0  0  0  0  0  0
   38.7331    8.5122    1.6587 C   0  0  1  0  0  0  0  0  0  0  0  0
   39.3100    9.8263    2.2363 C   0  0  1  0  0  0  0  0  0  0  0  0
   39.6714   10.8408    1.1538 C   0  0  0  0  0  0  0  0  0  0  0  0
   39.7178    7.8252    0.7976 N   0  0  0  0  0  0  0  0  0  0  0  0
   38.3159   10.4522    3.1266 O   0  0  0  0  0  0  0  0  0  0  0  0
   36.9564    7.4600    4.8372 O   0  0  0  0  0  0  0  0  0  0  0  0
   37.7863    6.3935    2.2482 O   0  0  0  0  0  0  0  0  0  0  0  0
   38.6709   11.8214    1.0804 O   0  0  0  0  0  0  0  0  0  0  0  0
   40.0431    8.8644   12.5524 C   0  0  1  0  0  0  0  0  0  0  0  0
   40.9061    8.9711   11.2758 C   0  0  1  0  0  0  0  0  0  0  0  0
   42.3975    9.1940   11.6256 C   0  0  2  0  0  0  0  0  0  0  0  0
   42.5544   10.4704   12.4605 C   0  0  1  0  0  0  0  0  0  0  0  0
   41.7221   10.3621   13.7637 C   0  0  0  0  0  0  0  0  0  0  0  0
   40.2490   10.1583   13.3944 C   0  0  2  0  0  0  0  0  0  0  0  0
   43.9807   10.6714   12.8007 N   0  0  0  0  0  0  0  0  0  0  0  0
   39.4982   10.0791   14.6445 N   0  0  0  0  0  0  0  0  0  0  0  0
   40.7871    7.7447   10.5224 O   0  0  0  0  0  0  0  0  0  0  0  0
   43.1511    9.3110   10.3996 O   0  0  0  0  0  0  0  0  0  0  0  0
  1  2  1  0  0  0  0
  1 12  1  6  0  0  0
  1 13  1  0  0  0  0
  2  3  1  0  0  0  0
  2 10  1  1  0  0  0
  4  3  1  1  0  0  0
  4  5  1  0  0  0  0
  4 14  1  0  0  0  0
  5  6  1  0  0  0  0
  5 13  1  1  0  0  0
  6  7  1  0  0  0  0
  6 15  1  6  0  0  0
  7  8  1  0  0  0  0
  7 11  1  6  0  0  0
  8 14  1  0  0  0  0
  8 16  1  6  0  0  0
  9 11  1  0  0  0  0
 17 16  1  1  0  0  0
 17 18  1  0  0  0  0
 17 24  1  0  0  0  0
 18 19  1  0  0  0  0
 18 25  1  1  0  0  0
 19 20  1  0  0  0  0
 19 26  1  6  0  0  0
 20 21  1  0  0  0  0
 20 23  1  6  0  0  0
 21 22  1  6  0  0  0
 21 24  1  0  0  0  0
 22 27  1  0  0  0  0
 28 12  1  6  0  0  0
 28 29  1  0  0  0  0
 28 33  1  0  0  0  0
 29 30  1  0  0  0  0
 29 36  1  1  0  0  0
 30 31  1  0  0  0  0
 30 37  1  6  0  0  0
 31 32  1  0  0  0  0
 31 34  1  1  0  0  0
 32 33  1  0  0  0  0
 33 35  1  1  0  0  0
M  END
>  <CHROM.1>
164.82714829,156.23205962,-151.27677923,-126.34150174,101.89866606,-75.48661598
39.33408025,9.59512519,7.78697589,1.38674945,0.37757522,1.58813928

>  <Name>
1yrj_lig

>  <RI>
0

>  <Rbt.Current_Directory>
/home/itssahil/PROJECTS/Mol_Feturizer/New_Systems/rnas/1yrj

>  <Rbt.Executable>
rbdock ($Id: //depot/dev/client3/rdock/2013.1/src/exe/rbdock.cxx#4 $)

>  <Rbt.Library>
libRbt.so (2013.1, Build901 2013/11/27)

>  <Rbt.Parameter_File>
/export/apps/rDock/src/rDock_2013.1_src/data/scripts/dock_solv.prm

>  <Rbt.Receptor>
prm/pocket_docking_6.prm

>  <SCORE>
-16.4423

>  <SCORE.INTER>
-16.2644

>  <SCORE.INTER.CONST>
1

>  <SCORE.INTER.POLAR>
-2.42974

>  <SCORE.INTER.ROT>
6

>  <SCORE.INTER.SOLV>
11.5314

>  <SCORE.INTER.VDW>
-14.1876

>  <SCORE.INTER.norm>
-0.439579

>  <SCORE.INTRA>
-0.177903

>  <SCORE.INTRA.DIHEDRAL>
1.55302

>  <SCORE.INTRA.DIHEDRAL.0>
15.6389

>  <SCORE.INTRA.POLAR>
0

>  <SCORE.INTRA.POLAR.0>
0

>  <SCORE.INTRA.REPUL>
0

>  <SCORE.INTRA.REPUL.0>
0

>  <SCORE.INTRA.SOLV>
-1.24889

>  <SCORE.INTRA.SOLV.lig_0>
-90.9181

>  <SCORE.INTRA.VDW>
-0.32997

>  <SCORE.INTRA.VDW.0>
-3.14158

>  <SCORE.INTRA.norm>
-0.0048082

>  <SCORE.RESTR>
0

>  <SCORE.RESTR.CAVITY>
0

>  <SCORE.RESTR.norm>
0

>  <SCORE.SYSTEM>
0

>  <SCORE.SYSTEM.CONST>
0

>  <SCORE.SYSTEM.DIHEDRAL>
0

>  <SCORE.SYSTEM.SOLV>
0

>  <SCORE.SYSTEM.norm>
0

>  <SCORE.heavy>
37

>  <SCORE.norm>
-0.444388

>  <RMSD>
10.453

$$$$
1yrj_lig
 OpenBabel11021811423D
libRbt.so/2013.1/901 2013/11/27
 37 40  0  0  0  0  0  0  0  0999 V2000
   38.9775   -0.1851    9.5302 C   0  0  1  0  0  0  0  0  0  0  0  0
   37.9834    0.1051    8.3888 C   0  0  1  0  0  0  0  0  0  0  0  0
   38.4198    1.3129    7.5443 C   0  0  0  0  0  0  0  0  0  0  0  0
   38.6302    2.5506    8.4552 C   0  0  1  0  0  0  0  0  0  0  0  0
   39.6672    2.2309    9.5485 C   0  0  1  0  0  0  0  0  0  0  0  0
   39.8730    3.5157   10.4568 C   0  0  1  0  0  0  0  0  0  0  0  0
   40.3578    4.6897    9.5908 C   0  0  1  0  0  0  0  0  0  0  0  0
   39.3071    4.9374    8.4812 C   0  0  2  0  0  0  0  0  0  0  0  0
   42.0026    6.1063   10.9304 C   0  0  0  0  0  0  0  0  0  0  0  0
   37.7773   -1.0705    7.5272 N   0  0  0  0  0  0  0  0  0  0  0  0
   40.6027    5.8911   10.4476 N   0  0  0  0  0  0  0  0  0  0  0  0
   40.2083   -0.7856    9.0854 O   0  0  0  0  0  0  0  0  0  0  0  0
   39.1964    1.0525   10.3042 O   0  0  0  0  0  0  0  0  0  0  0  0
   39.0900    3.7335    7.6923 O   0  0  0  0  0  0  0  0  0  0  0  0
   38.6354    3.8937   11.0225 O   0  0  0  0  0  0  0  0  0  0  0  0
   39.7100    5.9768    7.5885 O   0  0  0  0  0  0  0  0  0  0  0  0
   39.5382    7.3030    8.1410 C   0  0  2  0  0  0  0  0  0  0  0  0
   38.0782    7.7844    8.1266 C   0  0  1  0  0  0  0  0  0  0  0  0
   37.5907    8.0504    6.6776 C   0  0  2  0  0  0  0  0  0  0  0  0
   38.4901    9.0656    6.0104 C   0  0  1  0  0  0  0  0  0  0  0  0
   39.9451    8.5398    6.0142 C   0  0  1  0  0  0  0  0  0  0  0  0
   40.9337    9.5282    5.3999 C   0  0  0  0  0  0  0  0  0  0  0  0
   38.0043    9.2939    4.6337 N   0  0  0  0  0  0  0  0  0  0  0  0
   40.3716    8.2788    7.4007 O   0  0  0  0  0  0  0  0  0  0  0  0
   37.2729    6.8054    8.7990 O   0  0  0  0  0  0  0  0  0  0  0  0
   36.2536    8.5684    6.7057 O   0  0  0  0  0  0  0  0  0  0  0  0
   41.0433   10.6547    6.2286 O   0  0  0  0  0  0  0  0  0  0  0  0
   40.5045   -2.2754    9.1685 C   0  0  1  0  0  0  0  0  0  0  0  0
   42.0004   -2.4616    8.8312 C   0  0  1  0  0  0  0  0  0  0  0  0
   42.4212   -3.9461    8.9542 C   0  0  2  0  0  0  0  0  0  0  0  0
   42.1478   -4.4519   10.3756 C   0  0  1  0  0  0  0  0  0  0  0  0
   40.6424   -4.3052   10.7146 C   0  0  0  0  0  0  0  0  0  0  0  0
   40.2517   -2.8278   10.6026 C   0  0  2  0  0  0  0  0  0  0  0  0
   42.5419   -5.8744   10.4831 N   0  0  0  0  0  0  0  0  0  0  0  0
   38.8355   -2.7291   10.9456 N   0  0  0  0  0  0  0  0  0  0  0  0
   42.2354   -2.0261    7.4743 O   0  0  0  0  0  0  0  0  0  0  0  0
   43.8289   -4.0579    8.6533 O   0  0  0  0  0  0  0  0  0  0  0  0
  1  2  1  0  0  0  0
  1 12  1  6  0  0  0
  1 13  1  0  0  0  0
  2  3  1  0  0  0  0
  2 10  1  6  0  0  0
  4  3  1  6  0  0  0
  4  5  1  0  0  0  0
  4 14  1  0  0  0  0
  5  6  1  0  0  0  0
  5 13  1  1  0  0  0
  6  7  1  0  0  0  0
  6 15  1  6  0  0  0
  7  8  1  0  0  0  0
  7 11  1  1  0  0  0
  8 14  1  0  0  0  0
  8 16  1  6  0  0  0
  9 11  1  0  0  0  0
 17 16  1  6  0  0  0
 17 18  1  0  0  0  0
 17 24  1  0  0  0  0
 18 19  1  0  0  0  0
 18 25  1  6  0  0  0
 19 20  1  0  0  0  0
 19 26  1  1  0  0  0
 20 21  1  0  0  0  0
 20 23  1  6  0  0  0
 21 22  1  1  0  0  0
 21 24  1  0  0  0  0
 22 27  1  0  0  0  0
 28 12  1  1  0  0  0
 28 29  1  0  0  0  0
 28 33  1  0  0  0  0
 29 30  1  0  0  0  0
 29 36  1  6  0  0  0
 30 31  1  0  0  0  0
 30 37  1  1  0  0  0
 31 32  1  0  0  0  0
 31 34  1  6  0  0  0
 32 33  1  0  0  0  0
 33 35  1  6  0  0  0
M  END
>  <CHROM.1>
-99.59582569,94.64975955,-76.86320376,-76.94300620,67.89925823,-170.04135487
39.82666207,2.83925835,8.55465364,1.39573896,-0.13153803,2.89786163

>  <Name>
1yrj_lig

>  <RI>
0

>  <Rbt.Current_Directory>
/home/itssahil/PROJECTS/Mol_Feturizer/New_Systems/rnas/1yrj

>  <Rbt.Executable>
rbdock ($Id: //depot/dev/client3/rdock/2013.1/src/exe/rbdock.cxx#4 $)

>  <Rbt.Library>
libRbt.so (2013.1, Build901 2013/11/27)

>  <Rbt.Parameter_File>
/export/apps/rDock/src/rDock_2013.1_src/data/scripts/dock_solv.prm

>  <Rbt.Receptor>
prm/pocket_docking_3.prm

>  <SCORE>
-18.3075

>  <SCORE.INTER>
-16.6277

>  <SCORE.INTER.CONST>
1

>  <SCORE.INTER.POLAR>
-0.87564

>  <SCORE.INTER.ROT>
6

>  <SCORE.INTER.SOLV>
14.5183

>  <SCORE.INTER.VDW>
-20.6058

>  <SCORE.INTER.norm>
-0.449398

>  <SCORE.INTRA>
-1.67974

>  <SCORE.INTRA.DIHEDRAL>
-6.21899

>  <SCORE.INTRA.DIHEDRAL.0>
15.6389

>  <SCORE.INTRA.POLAR>
0

>  <SCORE.INTRA.POLAR.0>
0

>  <SCORE.INTRA.REPUL>
0

>  <SCORE.INTRA.REPUL.0>
0

>  <SCORE.INTRA.SOLV>
1.4661

>  <SCORE.INTRA.SOLV.lig_0>
-90.9181

>  <SCORE.INTRA.VDW>
0.696705

>  <SCORE.INTRA.VDW.0>
-3.14158

>  <SCORE.INTRA.norm>
-0.0453985

>  <SCORE.RESTR>
0

>  <SCORE.RESTR.CAVITY>
0

>  <SCORE.RESTR.norm>
0

>  <SCORE.SYSTEM>
0

>  <SCORE.SYSTEM.CONST>
0

>  <SCORE.SYSTEM.DIHEDRAL>
0

>  <SCORE.SYSTEM.SOLV>
0

>  <SCORE.SYSTEM.norm>
0

>  <SCORE.heavy>
37

>  <SCORE.norm>
-0.494796

>  <RMSD>
10.468

$$$$
1yrj_lig
 OpenBabel11021811423D
libRbt.so/2013.1/901 2013/11/27
 37 40  0  0  0  0  0  0  0  0999 V2000
   41.3935   11.2839   10.2657 C   0  0  1  0  0  0  0  0  0  0  0  0
   42.4713   12.0945    9.5194 C   0  0  1  0  0  0  0  0  0  0  0  0
   41.9890   12.5438    8.1309 C   0  0  0  0  0  0  0  0  0  0  0  0
   41.5175   11.3161    7.3086 C   0  0  1  0  0  0  0  0  0  0  0  0
   40.4070   10.5667    8.0689 C   0  0  1  0  0  0  0  0  0  0  0  0
   39.9344    9.3249    7.2014 C   0  0  1  0  0  0  0  0  0  0  0  0
   39.4113    9.8131    5.8407 C   0  0  1  0  0  0  0  0  0  0  0  0
   40.5463   10.5994    5.1408 C   0  0  2  0  0  0  0  0  0  0  0  0
   37.4399    8.4125    5.0291 C   0  0  0  0  0  0  0  0  0  0  0  0
   42.9249   13.2564   10.3012 N   0  0  0  0  0  0  0  0  0  0  0  0
   38.9168    8.6531    5.0361 N   0  0  0  0  0  0  0  0  0  0  0  0
   40.3099   12.0885   10.7673 O   0  0  0  0  0  0  0  0  0  0  0  0
   40.9299   10.1848    9.3963 O   0  0  0  0  0  0  0  0  0  0  0  0
   41.0057   11.7015    5.9736 O   0  0  0  0  0  0  0  0  0  0  0  0
   41.0385    8.4812    6.9491 O   0  0  0  0  0  0  0  0  0  0  0  0
   40.1241   11.1447    3.8903 O   0  0  0  0  0  0  0  0  0  0  0  0
   41.2167   11.6590    3.0932 C   0  0  2  0  0  0  0  0  0  0  0  0
   40.7863   12.1082    1.6873 C   0  0  1  0  0  0  0  0  0  0  0  0
   40.3847   10.8929    0.8097 C   0  0  2  0  0  0  0  0  0  0  0  0
   41.5357    9.9168    0.7251 C   0  0  1  0  0  0  0  0  0  0  0  0
   41.9255    9.4615    2.1513 C   0  0  1  0  0  0  0  0  0  0  0  0
   43.1171    8.5067    2.1634 C   0  0  0  0  0  0  0  0  0  0  0  0
   41.1222    8.7709   -0.1112 N   0  0  0  0  0  0  0  0  0  0  0  0
   42.2824   10.6378    2.9645 O   0  0  0  0  0  0  0  0  0  0  0  0
   39.7177   13.0561    1.8231 O   0  0  0  0  0  0  0  0  0  0  0  0
   40.0619   11.3395   -0.5144 O   0  0  0  0  0  0  0  0  0  0  0  0
   42.7819    7.3332    1.4718 O   0  0  0  0  0  0  0  0  0  0  0  0
   38.9663   11.5250   11.2050 C   0  0  1  0  0  0  0  0  0  0  0  0
   38.2358   11.0480    9.9303 C   0  0  1  0  0  0  0  0  0  0  0  0
   36.8770   10.3923   10.2765 C   0  0  2  0  0  0  0  0  0  0  0  0
   37.0945    9.2033   11.2198 C   0  0  1  0  0  0  0  0  0  0  0  0
   37.7943    9.6742   12.5203 C   0  0  0  0  0  0  0  0  0  0  0  0
   39.1426   10.3045   12.1562 C   0  0  2  0  0  0  0  0  0  0  0  0
   35.7909    8.5881   11.5554 N   0  0  0  0  0  0  0  0  0  0  0  0
   39.7767   10.7178   13.4053 N   0  0  0  0  0  0  0  0  0  0  0  0
   37.9946   12.1843    9.0721 O   0  0  0  0  0  0  0  0  0  0  0  0
   36.2512    9.9444    9.0548 O   0  0  0  0  0  0  0  0  0  0  0  0
  1  2  1  0  0  0  0
  1 12  1  6  0  0  0
  1 13  1  0  0  0  0
  2  3  1  0  0  0  0
  2 10  1  1  0  0  0
  4  3  1  1  0  0  0
  4  5  1  0  0  0  0
  4 14  1  0  0  0  0
  5  6  1  0  0  0  0
  5 13  1  1  0  0  0
  6  7  1  0  0  0  0
  6 15  1  6  0  0  0
  7  8  1  0  0  0  0
  7 11  1  6  0  0  0
  8 14  1  0  0  0  0
  8 16  1  6  0  0  0
  9 11  1  0  0  0  0
 17 16  1  6  0  0  0
 17 18  1  0  0  0  0
 17 24  1  0  0  0  0
 18 19  1  0  0  0  0
 18 25  1  1  0  0  0
 19 20  1  0  0  0  0
 19 26  1  6  0  0  0
 20 21  1  0  0  0  0
 20 23  1  6  0  0  0
 21 22  1  6  0  0  0
 21 24  1  0  0  0  0
 22 27  1  0  0  0  0
 28 12  1  6  0  0  0
 28 29  1  0  0  0  0
 28 33  1  0  0  0  0
 29 30  1  0  0  0  0
 29 36  1  6  0  0  0
 30 31  1  0  0  0  0
 30 37  1  6  0  0  0
 31 32  1  0  0  0  0
 31 34  1  1  0  0  0
 32 33  1  0  0  0  0
 33 35  1  1  0  0  0
M  END
>  <CHROM.1>
163.24059733,99.18876798,-168.71393667,173.82675785,-62.78267270,-70.20967213
40.08699378,10.50621067,6.57824839,-1.84853037,-0.51602924,-1.75893485

>  <Name>
1yrj_lig

>  <RI>
0

>  <Rbt.Current_Directory>
/home/itssahil/PROJECTS/Mol_Feturizer/New_Systems/rnas/1yrj

>  <Rbt.Executable>
rbdock ($Id: //depot/dev/client3/rdock/2013.1/src/exe/rbdock.cxx#4 $)

>  <Rbt.Library>
libRbt.so (2013.1, Build901 2013/11/27)

>  <Rbt.Parameter_File>
/export/apps/rDock/src/rDock_2013.1_src/data/scripts/dock_solv.prm

>  <Rbt.Receptor>
prm/pocket_docking_7.prm

>  <SCORE>
-23.988

>  <SCORE.INTER>
-17.9091

>  <SCORE.INTER.CONST>
1

>  <SCORE.INTER.POLAR>
-1.15608

>  <SCORE.INTER.ROT>
6

>  <SCORE.INTER.SOLV>
14.0421

>  <SCORE.INTER.VDW>
-20.3665

>  <SCORE.INTER.norm>
-0.484029

>  <SCORE.INTRA>
-6.08355

>  <SCORE.INTRA.DIHEDRAL>
-12.0511

>  <SCORE.INTRA.DIHEDRAL.0>
15.6389

>  <SCORE.INTRA.POLAR>
0

>  <SCORE.INTRA.POLAR.0>
0

>  <SCORE.INTRA.REPUL>
0

>  <SCORE.INTRA.REPUL.0>
0

>  <SCORE.INTRA.SOLV>
-0.504555

>  <SCORE.INTRA.SOLV.lig_0>
-90.9181

>  <SCORE.INTRA.VDW>
0.194299

>  <SCORE.INTRA.VDW.0>
-3.14158

>  <SCORE.INTRA.norm>
-0.16442

>  <SCORE.RESTR>
0.00465088

>  <SCORE.RESTR.CAVITY>
0.00465088

>  <SCORE.RESTR.norm>
0.000125699

>  <SCORE.SYSTEM>
0

>  <SCORE.SYSTEM.CONST>
0

>  <SCORE.SYSTEM.DIHEDRAL>
0

>  <SCORE.SYSTEM.SOLV>
0

>  <SCORE.SYSTEM.norm>
0

>  <SCORE.heavy>
37

>  <SCORE.norm>
-0.648323

>  <RMSD>
10.500

$$$$
1yrj_lig
 OpenBabel11021811423D
libRbt.so/2013.1/901 2013/11/27
 37 40  0  0  0  0  0  0  0  0999 V2000
   39.5798   -3.7556   10.0556 C   0  0  1  0  0  0  0  0  0  0  0  0
   38.3088   -2.9916   10.4756 C   0  0  1  0  0  0  0  0  0  0  0  0
   38.1755   -1.6525    9.7330 C   0  0  0  0  0  0  0  0  0  0  0  0
   39.4553   -0.8007    9.9383 C   0  0  1  0  0  0  0  0  0  0  0  0
   40.6925   -1.5833    9.4588 C   0  0  1  0  0  0  0  0  0  0  0  0
   41.9844   -0.6857    9.6676 C   0  0  1  0  0  0  0  0  0  0  0  0
   41.8406    0.6217    8.8717 C   0  0  1  0  0  0  0  0  0  0  0  0
   40.5597    1.3435    9.3562 C   0  0  2  0  0  0  0  0  0  0  0  0
   44.0141    1.4898    7.8575 C   0  0  0  0  0  0  0  0  0  0  0  0
   37.0936   -3.8009   10.2879 N   0  0  0  0  0  0  0  0  0  0  0  0
   43.0759    1.4515    9.0226 N   0  0  0  0  0  0  0  0  0  0  0  0
   39.4903   -4.3500    8.7472 O   0  0  0  0  0  0  0  0  0  0  0  0
   40.7465   -2.8624   10.1953 O   0  0  0  0  0  0  0  0  0  0  0  0
   39.3923    0.4864    9.2089 O   0  0  0  0  0  0  0  0  0  0  0  0
   42.0983   -0.3372   11.0315 O   0  0  0  0  0  0  0  0  0  0  0  0
   40.3145    2.5437    8.6221 O   0  0  0  0  0  0  0  0  0  0  0  0
   39.0131    3.1187    8.8854 C   0  0  2  0  0  0  0  0  0  0  0  0
   38.5167    4.0426    7.7614 C   0  0  1  0  0  0  0  0  0  0  0  0
   39.3582    5.3448    7.6944 C   0  0  2  0  0  0  0  0  0  0  0  0
   39.3101    6.0576    9.0264 C   0  0  1  0  0  0  0  0  0  0  0  0
   39.8427    5.1137   10.1304 C   0  0  1  0  0  0  0  0  0  0  0  0
   39.7846    5.7384   11.5226 C   0  0  0  0  0  0  0  0  0  0  0  0
   40.1226    7.2882    8.9328 N   0  0  0  0  0  0  0  0  0  0  0  0
   39.0365    3.8801   10.1561 O   0  0  0  0  0  0  0  0  0  0  0  0
   38.5496    3.3111    6.5273 O   0  0  0  0  0  0  0  0  0  0  0  0
   38.8224    6.2144    6.6876 O   0  0  0  0  0  0  0  0  0  0  0  0
   38.4499    6.0145   11.8548 O   0  0  0  0  0  0  0  0  0  0  0  0
   40.6331   -5.0945    8.0732 C   0  0  1  0  0  0  0  0  0  0  0  0
   40.9173   -6.3547    8.9199 C   0  0  1  0  0  0  0  0  0  0  0  0
   42.0270   -7.2219    8.2774 C   0  0  2  0  0  0  0  0  0  0  0  0
   41.6128   -7.6370    6.8606 C   0  0  1  0  0  0  0  0  0  0  0  0
   41.3599   -6.3808    5.9884 C   0  0  0  0  0  0  0  0  0  0  0  0
   40.2483   -5.5463    6.6332 C   0  0  2  0  0  0  0  0  0  0  0  0
   42.6826   -8.4562    6.2483 N   0  0  0  0  0  0  0  0  0  0  0  0
   40.0279   -4.3852    5.7753 N   0  0  0  0  0  0  0  0  0  0  0  0
   41.3520   -5.9500   10.2364 O   0  0  0  0  0  0  0  0  0  0  0  0
   42.2335   -8.3945    9.0942 O   0  0  0  0  0  0  0  0  0  0  0  0
  1  2  1  0  0  0  0
  1 12  1  6  0  0  0
  1 13  1  0  0  0  0
  2  3  1  0  0  0  0
  2 10  1  6  0  0  0
  4  3  1  6  0  0  0
  4  5  1  0  0  0  0
  4 14  1  0  0  0  0
  5  6  1  0  0  0  0
  5 13  1  1  0  0  0
  6  7  1  0  0  0  0
  6 15  1  1  0  0  0
  7  8  1  0  0  0  0
  7 11  1  1  0  0  0
  8 14  1  0  0  0  0
  8 16  1  6  0  0  0
  9 11  1  0  0  0  0
 17 16  1  6  0  0  0
 17 18  1  0  0  0  0
 17 24  1  0  0  0  0
 18 19  1  0  0  0  0
 18 25  1  6  0  0  0
 19 20  1  0  0  0  0
 19 26  1  6  0  0  0
 20 21  1  0  0  0  0
 20 23  1  6  0  0  0
 21 22  1  1  0  0  0
 21 24  1  0  0  0  0
 22 27  1  0  0  0  0
 28 12  1  1  0  0  0
 28 29  1  0  0  0  0
 28 33  1  0  0  0  0
 29 30  1  0  0  0  0
 29 36  1  1  0  0  0
 30 31  1  0  0  0  0
 30 37  1  1  0  0  0
 31 32  1  0  0  0  0
 31 34  1  6  0  0  0
 32 33  1  0  0  0  0
 33 35  1  6  0  0  0
M  END
>  <CHROM.1>
176.73345734,104.59463658,169.87951443,-157.59535725,62.02932914,64.84186280
40.28871517,-0.61063493,8.87758778,1.30026794,-1.02941887,2.99927965

>  <Name>
1yrj_lig

>  <RI>
0

>  <Rbt.Current_Directory>
/home/itssahil/PROJECTS/Mol_Feturizer/New_Systems/rnas/1yrj

>  <Rbt.Executable>
rbdock ($Id: //depot/dev/client3/rdock/2013.1/src/exe/rbdock.cxx#4 $)

>  <Rbt.Library>
libRbt.so (2013.1, Build901 2013/11/27)

>  <Rbt.Parameter_File>
/export/apps/rDock/src/rDock_2013.1_src/data/scripts/dock_solv.prm

>  <Rbt.Receptor>
prm/pocket_docking_6.prm

>  <SCORE>
-22.176

>  <SCORE.INTER>
-16.2288

>  <SCORE.INTER.CONST>
1

>  <SCORE.INTER.POLAR>
-1.41353

>  <SCORE.INTER.ROT>
6

>  <SCORE.INTER.SOLV>
13.4564

>  <SCORE.INTER.VDW>
-18.1929

>  <SCORE.INTER.norm>
-0.438617

>  <SCORE.INTRA>
-5.94714

>  <SCORE.INTRA.DIHEDRAL>
-11.6408

>  <SCORE.INTRA.DIHEDRAL.0>
15.6389

>  <SCORE.INTRA.POLAR>
0

>  <SCORE.INTRA.POLAR.0>
0

>  <SCORE.INTRA.REPUL>
0

>  <SCORE.INTRA.REPUL.0>
0

>  <SCORE.INTRA.SOLV>
-2.34736

>  <SCORE.INTRA.SOLV.lig_0>
-90.9181

>  <SCORE.INTRA.VDW>
1.04692

>  <SCORE.INTRA.VDW.0>
-3.14158

>  <SCORE.INTRA.norm>
-0.160734

>  <SCORE.RESTR>
0

>  <SCORE.RESTR.CAVITY>
0

>  <SCORE.RESTR.norm>
0

>  <SCORE.SYSTEM>
0

>  <SCORE.SYSTEM.CONST>
0

>  <SCORE.SYSTEM.DIHEDRAL>
0

>  <SCORE.SYSTEM.SOLV>
0

>  <SCORE.SYSTEM.norm>
0

>  <SCORE.heavy>
37

>  <SCORE.norm>
-0.59935

>  <RMSD>
10.542

$$$$
1yrj_lig
 OpenBabel11021811423D
libRbt.so/2013.1/901 2013/11/27
 37 40  0  0  0  0  0  0  0  0999 V2000
   40.6465   11.0819    9.1853 C   0  0  1  0  0  0  0  0  0  0  0  0
   41.5445   11.8160    8.1704 C   0  0  1  0  0  0  0  0  0  0  0  0
   41.0316   11.6529    6.7307 C   0  0  0  0  0  0  0  0  0  0  0  0
   40.8825   10.1479    6.3866 C   0  0  1  0  0  0  0  0  0  0  0  0
   39.9382    9.4670    7.3954 C   0  0  1  0  0  0  0  0  0  0  0  0
   39.7930    7.9336    7.0135 C   0  0  1  0  0  0  0  0  0  0  0  0
   39.2304    7.8061    5.5885 C   0  0  1  0  0  0  0  0  0  0  0  0
   40.1878    8.5466    4.6233 C   0  0  2  0  0  0  0  0  0  0  0  0
   38.1066    5.5737    6.0983 C   0  0  0  0  0  0  0  0  0  0  0  0
   41.6928   13.2433    8.4992 N   0  0  0  0  0  0  0  0  0  0  0  0
   39.0430    6.3638    5.2392 N   0  0  0  0  0  0  0  0  0  0  0  0
   39.3900   11.7418    9.4278 O   0  0  0  0  0  0  0  0  0  0  0  0
   40.4781    9.6805    8.7534 O   0  0  0  0  0  0  0  0  0  0  0  0
   40.3530    9.9374    5.0199 O   0  0  0  0  0  0  0  0  0  0  0  0
   41.0680    7.3261    7.0180 O   0  0  0  0  0  0  0  0  0  0  0  0
   39.7060    8.5310    3.2790 O   0  0  0  0  0  0  0  0  0  0  0  0
   38.5903    9.4263    3.0615 C   0  0  2  0  0  0  0  0  0  0  0  0
   37.7773    9.0913    1.8004 C   0  0  1  0  0  0  0  0  0  0  0  0
   38.5925    9.3879    0.5136 C   0  0  2  0  0  0  0  0  0  0  0  0
   39.0208   10.8375    0.4986 C   0  0  1  0  0  0  0  0  0  0  0  0
   39.8603   11.1352    1.7635 C   0  0  1  0  0  0  0  0  0  0  0  0
   40.2962   12.5959    1.8548 C   0  0  0  0  0  0  0  0  0  0  0  0
   39.7971   11.0875   -0.7335 N   0  0  0  0  0  0  0  0  0  0  0  0
   39.0669   10.8258    2.9664 O   0  0  0  0  0  0  0  0  0  0  0  0
   37.3672    7.7184    1.8785 O   0  0  0  0  0  0  0  0  0  0  0  0
   37.7801    9.1363   -0.6411 O   0  0  0  0  0  0  0  0  0  0  0  0
   41.1018   12.7724    2.9896 O   0  0  0  0  0  0  0  0  0  0  0  0
   38.4367   11.3655   10.5521 C   0  0  1  0  0  0  0  0  0  0  0  0
   37.9232    9.9393   10.2551 C   0  0  1  0  0  0  0  0  0  0  0  0
   36.9914    9.4338   11.3831 C   0  0  2  0  0  0  0  0  0  0  0  0
   37.7378    9.4430   12.7224 C   0  0  1  0  0  0  0  0  0  0  0  0
   38.2273   10.8766   13.0514 C   0  0  0  0  0  0  0  0  0  0  0  0
   39.1597   11.3502   11.9314 C   0  0  2  0  0  0  0  0  0  0  0  0
   36.8381    8.9694   13.7979 N   0  0  0  0  0  0  0  0  0  0  0  0
   39.6121   12.6927   12.2859 N   0  0  0  0  0  0  0  0  0  0  0  0
   37.1817    9.9538    9.0157 O   0  0  0  0  0  0  0  0  0  0  0  0
   36.5625    8.0919   11.0669 O   0  0  0  0  0  0  0  0  0  0  0  0
  1  2  1  0  0  0  0
  1 12  1  6  0  0  0
  1 13  1  0  0  0  0
  2  3  1  0  0  0  0
  2 10  1  1  0  0  0
  4  3  1  1  0  0  0
  4  5  1  0  0  0  0
  4 14  1  0  0  0  0
  5  6  1  0  0  0  0
  5 13  1  1  0  0  0
  6  7  1  0  0  0  0
  6 15  1  6  0  0  0
  7  8  1  0  0  0  0
  7 11  1  6  0  0  0
  8 14  1  0  0  0  0
  8 16  1  6  0  0  0
  9 11  1  0  0  0  0
 17 16  1  6  0  0  0
 17 18  1  0  0  0  0
 17 24  1  0  0  0  0
 18 19  1  0  0  0  0
 18 25  1  1  0  0  0
 19 20  1  0  0  0  0
 19 26  1  6  0  0  0
 20 21  1  0  0  0  0
 20 23  1  6  0  0  0
 21 22  1  1  0  0  0
 21 24  1  0  0  0  0
 22 27  1  0  0  0  0
 28 12  1  6  0  0  0
 28 29  1  0  0  0  0
 28 33  1  0  0  0  0
 29 30  1  0  0  0  0
 29 36  1  6  0  0  0
 30 31  1  0  0  0  0
 30 37  1  6  0  0  0
 31 32  1  0  0  0  0
 31 34  1  1  0  0  0
 32 33  1  0  0  0  0
 33 35  1  1  0  0  0
M  END
>  <CHROM.1>
-168.83110465,60.32573952,74.03378736,-160.77060338,-177.24995277,-65.41891522
39.21012023,9.89796197,6.45258632,-1.70349792,-1.04721163,-1.72848392

>  <Name>
1yrj_lig

>  <RI>
0

>  <Rbt.Current_Directory>
/home/itssahil/PROJECTS/Mol_Feturizer/New_Systems/rnas/1yrj

>  <Rbt.Executable>
rbdock ($Id: //depot/dev/client3/rdock/2013.1/src/exe/rbdock.cxx#4 $)

>  <Rbt.Library>
libRbt.so (2013.1, Build901 2013/11/27)

>  <Rbt.Parameter_File>
/export/apps/rDock/src/rDock_2013.1_src/data/scripts/dock_solv.prm

>  <Rbt.Receptor>
prm/pocket_docking_7.prm

>  <SCORE>
-22.727

>  <SCORE.INTER>
-16.8089

>  <SCORE.INTER.CONST>
1

>  <SCORE.INTER.POLAR>
-1.69993

>  <SCORE.INTER.ROT>
6

>  <SCORE.INTER.SOLV>
14.6189

>  <SCORE.INTER.VDW>
-18.0124

>  <SCORE.INTER.norm>
-0.454293

>  <SCORE.INTRA>
-5.91814

>  <SCORE.INTRA.DIHEDRAL>
-12.1723

>  <SCORE.INTRA.DIHEDRAL.0>
15.6389

>  <SCORE.INTRA.POLAR>
0

>  <SCORE.INTRA.POLAR.0>
0

>  <SCORE.INTRA.REPUL>
0

>  <SCORE.INTRA.REPUL.0>
0

>  <SCORE.INTRA.SOLV>
-1.16417

>  <SCORE.INTRA.SOLV.lig_0>
-90.9181

>  <SCORE.INTRA.VDW>
0.750108

>  <SCORE.INTRA.VDW.0>
-3.14158

>  <SCORE.INTRA.norm>
-0.15995

>  <SCORE.RESTR>
0

>  <SCORE.RESTR.CAVITY>
0

>  <SCORE.RESTR.norm>
0

>  <SCORE.SYSTEM>
0

>  <SCORE.SYSTEM.CONST>
0

>  <SCORE.SYSTEM.DIHEDRAL>
0

>  <SCORE.SYSTEM.SOLV>
0

>  <SCORE.SYSTEM.norm>
0

>  <SCORE.heavy>
37

>  <SCORE.norm>
-0.614243

>  <RMSD>
10.569

$$$$
1yrj_lig
 OpenBabel11021811423D
libRbt.so/2013.1/901 2013/11/27
 37 40  0  0  0  0  0  0  0  0999 V2000
   39.6072    8.7356    8.9565 C   0  0  1  0  0  0  0  0  0  0  0  0
   38.9190   10.0546    8.5540 C   0  0  1  0  0  0  0  0  0  0  0  0
   37.9573    9.8595    7.3711 C   0  0  0  0  0  0  0  0  0  0  0  0
   38.7068    9.2119    6.1775 C   0  0  1  0  0  0  0  0  0  0  0  0
   39.3347    7.8740    6.6120 C   0  0  1  0  0  0  0  0  0  0  0  0
   40.0829    7.2273    5.3711 C   0  0  1  0  0  0  0  0  0  0  0  0
   39.0834    6.9987    4.2256 C   0  0  1  0  0  0  0  0  0  0  0  0
   38.4466    8.3618    3.8611 C   0  0  2  0  0  0  0  0  0  0  0  0
   40.1522    7.2210    1.9202 C   0  0  0  0  0  0  0  0  0  0  0  0
   38.2128   10.6743    9.6873 N   0  0  0  0  0  0  0  0  0  0  0  0
   39.7703    6.3428    3.0700 N   0  0  0  0  0  0  0  0  0  0  0  0
   38.7404    7.8213    9.6535 O   0  0  0  0  0  0  0  0  0  0  0  0
   40.2267    8.1315    7.7607 O   0  0  0  0  0  0  0  0  0  0  0  0
   37.8122    8.9669    5.0232 O   0  0  0  0  0  0  0  0  0  0  0  0
   41.0671    8.1228    4.8977 O   0  0  0  0  0  0  0  0  0  0  0  0
   37.4548    8.2310    2.8419 O   0  0  0  0  0  0  0  0  0  0  0  0
   36.8204    9.4851    2.4978 C   0  0  2  0  0  0  0  0  0  0  0  0
   35.9781    9.4094    1.2139 C   0  0  1  0  0  0  0  0  0  0  0  0
   36.8790    9.2314   -0.0371 C   0  0  2  0  0  0  0  0  0  0  0  0
   37.8727   10.3674   -0.1213 C   0  0  1  0  0  0  0  0  0  0  0  0
   38.7236   10.3986    1.1704 C   0  0  1  0  0  0  0  0  0  0  0  0
   39.7258   11.5505    1.1917 C   0  0  0  0  0  0  0  0  0  0  0  0
   38.7173   10.1678   -1.3172 N   0  0  0  0  0  0  0  0  0  0  0  0
   37.8395   10.5488    2.3400 O   0  0  0  0  0  0  0  0  0  0  0  0
   35.0310    8.3410    1.3570 O   0  0  0  0  0  0  0  0  0  0  0  0
   36.0688    9.2403   -1.2205 O   0  0  0  0  0  0  0  0  0  0  0  0
   40.7066   11.3339    0.2124 O   0  0  0  0  0  0  0  0  0  0  0  0
   39.1116    6.3829    9.9817 C   0  0  1  0  0  0  0  0  0  0  0  0
   39.0017    5.5739    8.6704 C   0  0  1  0  0  0  0  0  0  0  0  0
   39.4267    4.1009    8.8844 C   0  0  2  0  0  0  0  0  0  0  0  0
   40.8674    4.0420    9.4057 C   0  0  1  0  0  0  0  0  0  0  0  0
   40.9844    4.8195   10.7416 C   0  0  0  0  0  0  0  0  0  0  0  0
   40.5752    6.2768   10.5034 C   0  0  2  0  0  0  0  0  0  0  0  0
   41.2633    2.6319    9.6186 N   0  0  0  0  0  0  0  0  0  0  0  0
   40.7156    6.9777   11.7770 N   0  0  0  0  0  0  0  0  0  0  0  0
   37.6311    5.5974    8.2155 O   0  0  0  0  0  0  0  0  0  0  0  0
   39.3286    3.4001    7.6259 O   0  0  0  0  0  0  0  0  0  0  0  0
  1  2  1  0  0  0  0
  1 12  1  6  0  0  0
  1 13  1  0  0  0  0
  2  3  1  0  0  0  0
  2 10  1  1  0  0  0
  4  3  1  1  0  0  0
  4  5  1  0  0  0  0
  4 14  1  0  0  0  0
  5  6  1  0  0  0  0
  5 13  1  1  0  0  0
  6  7  1  0  0  0  0
  6 15  1  6  0  0  0
  7  8  1  0  0  0  0
  7 11  1  6  0  0  0
  8 14  1  0  0  0  0
  8 16  1  6  0  0  0
  9 11  1  0  0  0  0
 17 16  1  6  0  0  0
 17 18  1  0  0  0  0
 17 24  1  0  0  0  0
 18 19  1  0  0  0  0
 18 25  1  1  0  0  0
 19 20  1  0  0  0  0
 19 26  1  6  0  0  0
 20 21  1  0  0  0  0
 20 23  1  6  0  0  0
 21 22  1  6  0  0  0
 21 24  1  0  0  0  0
 22 27  1  0  0  0  0
 28 12  1  6  0  0  0
 28 29  1  0  0  0  0
 28 33  1  0  0  0  0
 29 30  1  0  0  0  0
 29 36  1  1  0  0  0
 30 31  1  0  0  0  0
 30 37  1  6  0  0  0
 31 32  1  0  0  0  0
 31 34  1  1  0  0  0
 32 33  1  0  0  0  0
 33 35  1  1  0  0  0
M  END
>  <CHROM.1>
170.91439531,-101.30098348,178.80433591,167.81408729,-67.65345263,-75.40064908
38.87105201,7.94832720,5.31537659,0.42072444,-1.34375242,0.83733171

>  <Name>
1yrj_lig

>  <RI>
0

>  <Rbt.Current_Directory>
/home/itssahil/PROJECTS/Mol_Feturizer/New_Systems/rnas/1yrj

>  <Rbt.Executable>
rbdock ($Id: //depot/dev/client3/rdock/2013.1/src/exe/rbdock.cxx#4 $)

>  <Rbt.Library>
libRbt.so (2013.1, Build901 2013/11/27)

>  <Rbt.Parameter_File>
/export/apps/rDock/src/rDock_2013.1_src/data/scripts/dock_solv.prm

>  <Rbt.Receptor>
prm/pocket_docking_7.prm

>  <SCORE>
-18.6385

>  <SCORE.INTER>
-14.7629

>  <SCORE.INTER.CONST>
1

>  <SCORE.INTER.POLAR>
-1.57728

>  <SCORE.INTER.ROT>
6

>  <SCORE.INTER.SOLV>
15.1365

>  <SCORE.INTER.VDW>
-17.2298

>  <SCORE.INTER.norm>
-0.398997

>  <SCORE.INTRA>
-3.87559

>  <SCORE.INTRA.DIHEDRAL>
-12.1737

>  <SCORE.INTRA.DIHEDRAL.0>
15.6389

>  <SCORE.INTRA.POLAR>
0

>  <SCORE.INTRA.POLAR.0>
0

>  <SCORE.INTRA.REPUL>
0

>  <SCORE.INTRA.REPUL.0>
0

>  <SCORE.INTRA.SOLV>
-0.471972

>  <SCORE.INTRA.SOLV.lig_0>
-90.9181

>  <SCORE.INTRA.VDW>
2.44724

>  <SCORE.INTRA.VDW.0>
-3.14158

>  <SCORE.INTRA.norm>
-0.104746

>  <SCORE.RESTR>
0

>  <SCORE.RESTR.CAVITY>
0

>  <SCORE.RESTR.norm>
0

>  <SCORE.SYSTEM>
0

>  <SCORE.SYSTEM.CONST>
0

>  <SCORE.SYSTEM.DIHEDRAL>
0

>  <SCORE.SYSTEM.SOLV>
0

>  <SCORE.SYSTEM.norm>
0

>  <SCORE.heavy>
37

>  <SCORE.norm>
-0.503742

>  <RMSD>
10.764

$$$$
1yrj_lig
 OpenBabel11021811423D
libRbt.so/2013.1/901 2013/11/27
 37 40  0  0  0  0  0  0  0  0999 V2000
   38.2475   10.9180   10.6174 C   0  0  1  0  0  0  0  0  0  0  0  0
   37.0070   10.8734    9.7039 C   0  0  1  0  0  0  0  0  0  0  0  0
   37.2602   10.0411    8.4367 C   0  0  0  0  0  0  0  0  0  0  0  0
   38.5087   10.5774    7.6889 C   0  0  1  0  0  0  0  0  0  0  0  0
   39.7331   10.5564    8.6235 C   0  0  1  0  0  0  0  0  0  0  0  0
   40.9973   11.0967    7.8311 C   0  0  1  0  0  0  0  0  0  0  0  0
   41.2529   10.2127    6.5996 C   0  0  1  0  0  0  0  0  0  0  0  0
   39.9787   10.2288    5.7207 C   0  0  2  0  0  0  0  0  0  0  0  0
   43.7455    9.9402    6.1312 C   0  0  0  0  0  0  0  0  0  0  0  0
   35.8193   10.3710   10.4139 N   0  0  0  0  0  0  0  0  0  0  0  0
   42.4732   10.6850    5.8748 N   0  0  0  0  0  0  0  0  0  0  0  0
   38.4878    9.6875   11.3255 O   0  0  0  0  0  0  0  0  0  0  0  0
   39.4136   11.3543    9.8246 O   0  0  0  0  0  0  0  0  0  0  0  0
   38.8185    9.7828    6.4784 O   0  0  0  0  0  0  0  0  0  0  0  0
   40.7349   12.4032    7.3635 O   0  0  0  0  0  0  0  0  0  0  0  0
   40.1074    9.3790    4.5801 O   0  0  0  0  0  0  0  0  0  0  0  0
   39.0085    9.5047    3.6472 C   0  0  2  0  0  0  0  0  0  0  0  0
   38.9745    8.3871    2.5920 C   0  0  1  0  0  0  0  0  0  0  0  0
   40.1619    8.5163    1.6012 C   0  0  2  0  0  0  0  0  0  0  0  0
   40.1321    9.8737    0.9368 C   0  0  1  0  0  0  0  0  0  0  0  0
   40.1974   10.9749    2.0214 C   0  0  1  0  0  0  0  0  0  0  0  0
   40.1235   12.3847    1.4392 C   0  0  0  0  0  0  0  0  0  0  0  0
   41.2749    9.9681    0.0049 N   0  0  0  0  0  0  0  0  0  0  0  0
   39.0695   10.8139    2.9565 O   0  0  0  0  0  0  0  0  0  0  0  0
   38.9702    7.1235    3.2720 O   0  0  0  0  0  0  0  0  0  0  0  0
   40.0577    7.5060    0.5886 O   0  0  0  0  0  0  0  0  0  0  0  0
   38.7798   12.7457    1.2599 O   0  0  0  0  0  0  0  0  0  0  0  0
   37.7293    9.2650   12.5747 C   0  0  1  0  0  0  0  0  0  0  0  0
   37.1975    7.8368   12.3230 C   0  0  1  0  0  0  0  0  0  0  0  0
   36.4628    7.2856   13.5690 C   0  0  2  0  0  0  0  0  0  0  0  0
   37.4105    7.2764   14.7743 C   0  0  1  0  0  0  0  0  0  0  0  0
   37.9235    8.7107   15.0615 C   0  0  0  0  0  0  0  0  0  0  0  0
   38.6606    9.2299   13.8225 C   0  0  2  0  0  0  0  0  0  0  0  0
   36.6987    6.7589   15.9643 N   0  0  0  0  0  0  0  0  0  0  0  0
   39.1424   10.5719   14.1383 N   0  0  0  0  0  0  0  0  0  0  0  0
   36.2700    7.8673   11.2163 O   0  0  0  0  0  0  0  0  0  0  0  0
   36.0102    5.9438   13.2874 O   0  0  0  0  0  0  0  0  0  0  0  0
  1  2  1  0  0  0  0
  1 12  1  6  0  0  0
  1 13  1  0  0  0  0
  2  3  1  0  0  0  0
  2 10  1  1  0  0  0
  4  3  1  1  0  0  0
  4  5  1  0  0  0  0
  4 14  1  0  0  0  0
  5  6  1  0  0  0  0
  5 13  1  1  0  0  0
  6  7  1  0  0  0  0
  6 15  1  6  0  0  0
  7  8  1  0  0  0  0
  7 11  1  6  0  0  0
  8 14  1  0  0  0  0
  8 16  1  6  0  0  0
  9 11  1  0  0  0  0
 17 16  1  1  0  0  0
 17 18  1  0  0  0  0
 17 24  1  0  0  0  0
 18 19  1  0  0  0  0
 18 25  1  1  0  0  0
 19 20  1  0  0  0  0
 19 26  1  6  0  0  0
 20 21  1  0  0  0  0
 20 23  1  6  0  0  0
 21 22  1  6  0  0  0
 21 24  1  0  0  0  0
 22 27  1  0  0  0  0
 28 12  1  6  0  0  0
 28 29  1  0  0  0  0
 28 33  1  0  0  0  0
 29 30  1  0  0  0  0
 29 36  1  6  0  0  0
 30 31  1  0  0  0  0
 30 37  1  6  0  0  0
 31 32  1  0  0  0  0
 31 34  1  1  0  0  0
 32 33  1  0  0  0  0
 33 35  1  1  0  0  0
M  END
>  <CHROM.1>
-78.89419981,99.28124481,-172.32197333,-167.09868500,84.99079588,127.99407029
38.99885227,9.63687137,7.62529009,-1.97400615,-0.91254929,-1.75383051

>  <Name>
1yrj_lig

>  <RI>
0

>  <Rbt.Current_Directory>
/home/itssahil/PROJECTS/Mol_Feturizer/New_Systems/rnas/1yrj

>  <Rbt.Executable>
rbdock ($Id: //depot/dev/client3/rdock/2013.1/src/exe/rbdock.cxx#4 $)

>  <Rbt.Library>
libRbt.so (2013.1, Build901 2013/11/27)

>  <Rbt.Parameter_File>
/export/apps/rDock/src/rDock_2013.1_src/data/scripts/dock_solv.prm

>  <Rbt.Receptor>
prm/pocket_docking_8.prm

>  <SCORE>
-24.2116

>  <SCORE.INTER>
-23.1862

>  <SCORE.INTER.CONST>
1

>  <SCORE.INTER.POLAR>
-3.10369

>  <SCORE.INTER.ROT>
6

>  <SCORE.INTER.SOLV>
13.9008

>  <SCORE.INTER.VDW>
-17.3454

>  <SCORE.INTER.norm>
-0.626654

>  <SCORE.INTRA>
-1.02543

>  <SCORE.INTRA.DIHEDRAL>
-3.1468

>  <SCORE.INTRA.DIHEDRAL.0>
15.6389

>  <SCORE.INTRA.POLAR>
0

>  <SCORE.INTRA.POLAR.0>
0

>  <SCORE.INTRA.REPUL>
0

>  <SCORE.INTRA.REPUL.0>
0

>  <SCORE.INTRA.SOLV>
0.505719

>  <SCORE.INTRA.SOLV.lig_0>
-90.9181

>  <SCORE.INTRA.VDW>
0.295114

>  <SCORE.INTRA.VDW.0>
-3.14158

>  <SCORE.INTRA.norm>
-0.0277143

>  <SCORE.RESTR>
0

>  <SCORE.RESTR.CAVITY>
0

>  <SCORE.RESTR.norm>
0

>  <SCORE.SYSTEM>
0

>  <SCORE.SYSTEM.CONST>
0

>  <SCORE.SYSTEM.DIHEDRAL>
0

>  <SCORE.SYSTEM.SOLV>
0

>  <SCORE.SYSTEM.norm>
0

>  <SCORE.heavy>
37

>  <SCORE.norm>
-0.654368

>  <RMSD>
10.940

$$$$
1yrj_lig
 OpenBabel11021811423D
libRbt.so/2013.1/901 2013/11/27
 37 40  0  0  0  0  0  0  0  0999 V2000
   43.2155   -5.0919   12.5176 C   0  0  1  0  0  0  0  0  0  0  0  0
   44.0836   -4.5720   11.3551 C   0  0  1  0  0  0  0  0  0  0  0  0
   43.3512   -3.5026   10.5289 C   0  0  0  0  0  0  0  0  0  0  0  0
   41.9903   -4.0552   10.0308 C   0  0  1  0  0  0  0  0  0  0  0  0
   41.1375   -4.5154   11.2282 C   0  0  1  0  0  0  0  0  0  0  0  0
   39.7478   -5.0632   10.6925 C   0  0  1  0  0  0  0  0  0  0  0  0
   39.0193   -3.9547    9.9154 C   0  0  1  0  0  0  0  0  0  0  0  0
   39.9365   -3.4947    8.7564 C   0  0  2  0  0  0  0  0  0  0  0  0
   36.5516   -3.4719    9.4866 C   0  0  0  0  0  0  0  0  0  0  0  0
   45.3786   -4.0534   11.8253 N   0  0  0  0  0  0  0  0  0  0  0  0
   37.6858   -4.4473    9.4501 N   0  0  0  0  0  0  0  0  0  0  0  0
   43.0914   -4.1594   13.6076 O   0  0  0  0  0  0  0  0  0  0  0  0
   41.9074   -5.5223   11.9864 O   0  0  0  0  0  0  0  0  0  0  0  0
   41.2268   -3.0472    9.2603 O   0  0  0  0  0  0  0  0  0  0  0  0
   39.9782   -6.1263    9.7918 O   0  0  0  0  0  0  0  0  0  0  0  0
   39.3603   -2.4178    8.0162 O   0  0  0  0  0  0  0  0  0  0  0  0
   40.2838   -1.8058    7.0855 C   0  0  2  0  0  0  0  0  0  0  0  0
   39.6104   -0.8152    6.1217 C   0  0  1  0  0  0  0  0  0  0  0  0
   38.6894   -1.5530    5.1139 C   0  0  2  0  0  0  0  0  0  0  0  0
   39.4873   -2.5811    4.3451 C   0  0  1  0  0  0  0  0  0  0  0  0
   40.1271   -3.5791    5.3392 C   0  0  1  0  0  0  0  0  0  0  0  0
   40.9949   -4.6288    4.6488 C   0  0  0  0  0  0  0  0  0  0  0  0
   38.5841   -3.2686    3.3991 N   0  0  0  0  0  0  0  0  0  0  0  0
   40.9791   -2.8470    6.2935 O   0  0  0  0  0  0  0  0  0  0  0  0
   38.8958    0.1566    6.8989 O   0  0  0  0  0  0  0  0  0  0  0  0
   38.1376   -0.6101    4.1848 O   0  0  0  0  0  0  0  0  0  0  0  0
   40.1840   -5.4608    3.8625 O   0  0  0  0  0  0  0  0  0  0  0  0
   44.2118   -3.8453   14.5877 C   0  0  1  0  0  0  0  0  0  0  0  0
   43.7435   -2.6497   15.4463 C   0  0  1  0  0  0  0  0  0  0  0  0
   44.7924   -2.2922   16.5271 C   0  0  2  0  0  0  0  0  0  0  0  0
   45.0481   -3.5047   17.4301 C   0  0  1  0  0  0  0  0  0  0  0  0
   45.5543   -4.7022   16.5859 C   0  0  0  0  0  0  0  0  0  0  0  0
   44.4951   -5.0491   15.5344 C   0  0  2  0  0  0  0  0  0  0  0  0
   46.0597   -3.1595   18.4538 N   0  0  0  0  0  0  0  0  0  0  0  0
   44.9997   -6.1892   14.7739 N   0  0  0  0  0  0  0  0  0  0  0  0
   43.5521   -1.5016   14.5913 O   0  0  0  0  0  0  0  0  0  0  0  0
   44.2938   -1.1885   17.3132 O   0  0  0  0  0  0  0  0  0  0  0  0
  1  2  1  0  0  0  0
  1 12  1  1  0  0  0
  1 13  1  0  0  0  0
  2  3  1  0  0  0  0
  2 10  1  1  0  0  0
  4  3  1  1  0  0  0
  4  5  1  0  0  0  0
  4 14  1  0  0  0  0
  5  6  1  0  0  0  0
  5 13  1  6  0  0  0
  6  7  1  0  0  0  0
  6 15  1  6  0  0  0
  7  8  1  0  0  0  0
  7 11  1  6  0  0  0
  8 14  1  0  0  0  0
  8 16  1  1  0  0  0
  9 11  1  0  0  0  0
 17 16  1  1  0  0  0
 17 18  1  0  0  0  0
 17 24  1  0  0  0  0
 18 19  1  0  0  0  0
 18 25  1  1  0  0  0
 19 20  1  0  0  0  0
 19 26  1  6  0  0  0
 20 21  1  0  0  0  0
 20 23  1  6  0  0  0
 21 22  1  6  0  0  0
 21 24  1  0  0  0  0
 22 27  1  0  0  0  0
 28 12  1  6  0  0  0
 28 29  1  0  0  0  0
 28 33  1  0  0  0  0
 29 30  1  0  0  0  0
 29 36  1  6  0  0  0
 30 31  1  0  0  0  0
 30 37  1  1  0  0  0
 31 32  1  0  0  0  0
 31 34  1  1  0  0  0
 32 33  1  0  0  0  0
 33 35  1  6  0  0  0
M  END
>  <CHROM.1>
-73.00093572,142.19338194,169.50666021,170.11833626,-66.56559422,171.27013326
41.59463533,-3.45528629,10.41410965,-0.45985983,1.02059714,-2.53149625

>  <Name>
1yrj_lig

>  <RI>
0

>  <Rbt.Current_Directory>
/home/itssahil/PROJECTS/Mol_Feturizer/New_Systems/rnas/1yrj

>  <Rbt.Executable>
rbdock ($Id: //depot/dev/client3/rdock/2013.1/src/exe/rbdock.cxx#4 $)

>  <Rbt.Library>
libRbt.so (2013.1, Build901 2013/11/27)

>  <Rbt.Parameter_File>
/export/apps/rDock/src/rDock_2013.1_src/data/scripts/dock_solv.prm

>  <Rbt.Receptor>
prm/pocket_docking_8.prm

>  <SCORE>
-7.16808

>  <SCORE.INTER>
-2.70578

>  <SCORE.INTER.CONST>
1

>  <SCORE.INTER.POLAR>
0

>  <SCORE.INTER.ROT>
6

>  <SCORE.INTER.SOLV>
11.4296

>  <SCORE.INTER.VDW>
-13.2137

>  <SCORE.INTER.norm>
-0.0731291

>  <SCORE.INTRA>
-4.46231

>  <SCORE.INTRA.DIHEDRAL>
-12.3818

>  <SCORE.INTRA.DIHEDRAL.0>
15.6389

>  <SCORE.INTRA.POLAR>
0

>  <SCORE.INTRA.POLAR.0>
0

>  <SCORE.INTRA.REPUL>
0

>  <SCORE.INTRA.REPUL.0>
0

>  <SCORE.INTRA.SOLV>
1.54548

>  <SCORE.INTRA.SOLV.lig_0>
-90.9181

>  <SCORE.INTRA.VDW>
0.955871

>  <SCORE.INTRA.VDW.0>
-3.14158

>  <SCORE.INTRA.norm>
-0.120603

>  <SCORE.RESTR>
0

>  <SCORE.RESTR.CAVITY>
0

>  <SCORE.RESTR.norm>
0

>  <SCORE.SYSTEM>
0

>  <SCORE.SYSTEM.CONST>
0

>  <SCORE.SYSTEM.DIHEDRAL>
0

>  <SCORE.SYSTEM.SOLV>
0

>  <SCORE.SYSTEM.norm>
0

>  <SCORE.heavy>
37

>  <SCORE.norm>
-0.193732

>  <RMSD>
11.111

$$$$
1yrj_lig
 OpenBabel11021811423D
libRbt.so/2013.1/901 2013/11/27
 37 40  0  0  0  0  0  0  0  0999 V2000
   38.6711    8.9368    8.8825 C   0  0  1  0  0  0  0  0  0  0  0  0
   37.2016    8.4816    8.7893 C   0  0  1  0  0  0  0  0  0  0  0  0
   36.8665    7.9128    7.4012 C   0  0  0  0  0  0  0  0  0  0  0  0
   37.2208    8.9486    6.3024 C   0  0  1  0  0  0  0  0  0  0  0  0
   38.7085    9.3356    6.4020 C   0  0  1  0  0  0  0  0  0  0  0  0
   39.0469   10.3846    5.2605 C   0  0  1  0  0  0  0  0  0  0  0  0
   38.7490    9.7667    3.8847 C   0  0  1  0  0  0  0  0  0  0  0  0
   37.2581    9.3514    3.8545 C   0  0  2  0  0  0  0  0  0  0  0  0
   40.5660   11.0468    2.6331 C   0  0  0  0  0  0  0  0  0  0  0  0
   36.8616    7.5035    9.8357 N   0  0  0  0  0  0  0  0  0  0  0  0
   39.1130   10.7309    2.8006 N   0  0  0  0  0  0  0  0  0  0  0  0
   39.6088    7.8474    8.9674 O   0  0  0  0  0  0  0  0  0  0  0  0
   38.9634    9.8521    7.7620 O   0  0  0  0  0  0  0  0  0  0  0  0
   36.9520    8.4322    4.9409 O   0  0  0  0  0  0  0  0  0  0  0  0
   38.2147   11.5169    5.4018 O   0  0  0  0  0  0  0  0  0  0  0  0
   36.9089    8.7084    2.6280 O   0  0  0  0  0  0  0  0  0  0  0  0
   36.0207    9.4974    1.8020 C   0  0  2  0  0  0  0  0  0  0  0  0
   35.4331    8.7129    0.6176 C   0  0  1  0  0  0  0  0  0  0  0  0
   36.5266    8.3825   -0.4328 C   0  0  2  0  0  0  0  0  0  0  0  0
   37.1800    9.6578   -0.9138 C   0  0  1  0  0  0  0  0  0  0  0  0
   37.7866   10.4085    0.2953 C   0  0  1  0  0  0  0  0  0  0  0  0
   38.4279   11.7385   -0.0942 C   0  0  0  0  0  0  0  0  0  0  0  0
   38.2174    9.3110   -1.9071 N   0  0  0  0  0  0  0  0  0  0  0  0
   36.7287   10.6904    1.2822 O   0  0  0  0  0  0  0  0  0  0  0  0
   34.7970    7.5324    1.1284 O   0  0  0  0  0  0  0  0  0  0  0  0
   35.9317    7.7183   -1.5562 O   0  0  0  0  0  0  0  0  0  0  0  0
   38.5988   12.5279    1.0527 O   0  0  0  0  0  0  0  0  0  0  0  0
   41.1189    8.0282    9.0031 C   0  0  1  0  0  0  0  0  0  0  0  0
   41.5409    8.6043    7.6334 C   0  0  1  0  0  0  0  0  0  0  0  0
   43.0618    8.8895    7.5909 C   0  0  2  0  0  0  0  0  0  0  0  0
   43.4410    9.8754    8.7023 C   0  0  1  0  0  0  0  0  0  0  0  0
   43.0565    9.2936   10.0866 C   0  0  0  0  0  0  0  0  0  0  0  0
   41.5465    9.0345   10.1123 C   0  0  2  0  0  0  0  0  0  0  0  0
   44.8976   10.1349    8.6629 N   0  0  0  0  0  0  0  0  0  0  0  0
   41.2222    8.5056   11.4344 N   0  0  0  0  0  0  0  0  0  0  0  0
   41.2219    7.6464    6.6006 O   0  0  0  0  0  0  0  0  0  0  0  0
   43.3953    9.4475    6.3017 O   0  0  0  0  0  0  0  0  0  0  0  0
  1  2  1  0  0  0  0
  1 12  1  6  0  0  0
  1 13  1  0  0  0  0
  2  3  1  0  0  0  0
  2 10  1  1  0  0  0
  4  3  1  1  0  0  0
  4  5  1  0  0  0  0
  4 14  1  0  0  0  0
  5  6  1  0  0  0  0
  5 13  1  1  0  0  0
  6  7  1  0  0  0  0
  6 15  1  1  0  0  0
  7  8  1  0  0  0  0
  7 11  1  6  0  0  0
  8 14  1  0  0  0  0
  8 16  1  6  0  0  0
  9 11  1  0  0  0  0
 17 16  1  6  0  0  0
 17 18  1  0  0  0  0
 17 24  1  0  0  0  0
 18 19  1  0  0  0  0
 18 25  1  1  0  0  0
 19 20  1  0  0  0  0
 19 26  1  6  0  0  0
 20 21  1  0  0  0  0
 20 23  1  6  0  0  0
 21 22  1  6  0  0  0
 21 24  1  0  0  0  0
 22 27  1  0  0  0  0
 28 12  1  6  0  0  0
 28 29  1  0  0  0  0
 28 33  1  0  0  0  0
 29 30  1  0  0  0  0
 29 36  1  6  0  0  0
 30 31  1  0  0  0  0
 30 37  1  6  0  0  0
 31 32  1  0  0  0  0
 31 34  1  1  0  0  0
 32 33  1  0  0  0  0
 33 35  1  1  0  0  0
M  END
>  <CHROM.1>
177.04117754,66.93787887,-111.23567497,-169.11106834,162.90010791,-66.13131371
38.92686841,9.31326567,4.90091080,1.07200706,0.34330829,1.82513596

>  <Name>
1yrj_lig

>  <RI>
0

>  <Rbt.Current_Directory>
/home/itssahil/PROJECTS/Mol_Feturizer/New_Systems/rnas/1yrj

>  <Rbt.Executable>
rbdock ($Id: //depot/dev/client3/rdock/2013.1/src/exe/rbdock.cxx#4 $)

>  <Rbt.Library>
libRbt.so (2013.1, Build901 2013/11/27)

>  <Rbt.Parameter_File>
/export/apps/rDock/src/rDock_2013.1_src/data/scripts/dock_solv.prm

>  <Rbt.Receptor>
prm/pocket_docking_8.prm

>  <SCORE>
-23.6401

>  <SCORE.INTER>
-20.8706

>  <SCORE.INTER.CONST>
1

>  <SCORE.INTER.POLAR>
-2.45394

>  <SCORE.INTER.ROT>
6

>  <SCORE.INTER.SOLV>
14.3683

>  <SCORE.INTER.VDW>
-18.1233

>  <SCORE.INTER.norm>
-0.564069

>  <SCORE.INTRA>
-2.76951

>  <SCORE.INTRA.DIHEDRAL>
-6.91221

>  <SCORE.INTRA.DIHEDRAL.0>
15.6389

>  <SCORE.INTRA.POLAR>
0

>  <SCORE.INTRA.POLAR.0>
0

>  <SCORE.INTRA.REPUL>
0

>  <SCORE.INTRA.REPUL.0>
0

>  <SCORE.INTRA.SOLV>
0.769386

>  <SCORE.INTRA.SOLV.lig_0>
-90.9181

>  <SCORE.INTRA.VDW>
0.301899

>  <SCORE.INTRA.VDW.0>
-3.14158

>  <SCORE.INTRA.norm>
-0.0748517

>  <SCORE.RESTR>
0

>  <SCORE.RESTR.CAVITY>
0

>  <SCORE.RESTR.norm>
0

>  <SCORE.SYSTEM>
0

>  <SCORE.SYSTEM.CONST>
0

>  <SCORE.SYSTEM.DIHEDRAL>
0

>  <SCORE.SYSTEM.SOLV>
0

>  <SCORE.SYSTEM.norm>
0

>  <SCORE.heavy>
37

>  <SCORE.norm>
-0.638921

>  <RMSD>
11.222

$$$$
1yrj_lig
 OpenBabel11021811423D
libRbt.so/2013.1/901 2013/11/27
 37 40  0  0  0  0  0  0  0  0999 V2000
   41.9919   -6.8768   12.5658 C   0  0  1  0  0  0  0  0  0  0  0  0
   40.5389   -7.0169   13.0605 C   0  0  1  0  0  0  0  0  0  0  0  0
   39.5540   -6.2473   12.1661 C   0  0  0  0  0  0  0  0  0  0  0  0
   39.9853   -4.7616   12.0556 C   0  0  1  0  0  0  0  0  0  0  0  0
   41.4230   -4.6687   11.5104 C   0  0  1  0  0  0  0  0  0  0  0  0
   41.8340   -3.1403   11.3951 C   0  0  1  0  0  0  0  0  0  0  0  0
   40.8603   -2.4119   10.4545 C   0  0  1  0  0  0  0  0  0  0  0  0
   39.4286   -2.5769   11.0197 C   0  0  2  0  0  0  0  0  0  0  0  0
   41.1630   -0.3886    8.9309 C   0  0  0  0  0  0  0  0  0  0  0  0
   40.1300   -8.4266   13.1726 N   0  0  0  0  0  0  0  0  0  0  0  0
   41.2705   -0.9817   10.3005 N   0  0  0  0  0  0  0  0  0  0  0  0
   42.2755   -7.6457   11.3820 O   0  0  0  0  0  0  0  0  0  0  0  0
   42.3085   -5.4444   12.4023 O   0  0  0  0  0  0  0  0  0  0  0  0
   39.0880   -3.9841   11.1709 O   0  0  0  0  0  0  0  0  0  0  0  0
   41.7292   -2.5291   12.6640 O   0  0  0  0  0  0  0  0  0  0  0  0
   38.4483   -1.9800   10.1698 O   0  0  0  0  0  0  0  0  0  0  0  0
   38.3442   -2.6234    8.8780 C   0  0  2  0  0  0  0  0  0  0  0  0
   37.5006   -1.8286    7.8679 C   0  0  1  0  0  0  0  0  0  0  0  0
   36.0016   -1.8265    8.2695 C   0  0  2  0  0  0  0  0  0  0  0  0
   35.4966   -3.2469    8.3804 C   0  0  1  0  0  0  0  0  0  0  0  0
   36.3455   -4.0109    9.4241 C   0  0  1  0  0  0  0  0  0  0  0  0
   35.9336   -5.4745    9.5658 C   0  0  0  0  0  0  0  0  0  0  0  0
   34.0711   -3.2122    8.7678 N   0  0  0  0  0  0  0  0  0  0  0  0
   37.7640   -3.9785    9.0254 O   0  0  0  0  0  0  0  0  0  0  0  0
   38.0390   -0.5019    7.7741 O   0  0  0  0  0  0  0  0  0  0  0  0
   35.2348   -1.1425    7.2689 O   0  0  0  0  0  0  0  0  0  0  0  0
   36.6644   -6.0662   10.6068 O   0  0  0  0  0  0  0  0  0  0  0  0
   41.8489   -7.2351    9.9807 C   0  0  1  0  0  0  0  0  0  0  0  0
   43.1103   -6.7191    9.2537 C   0  0  1  0  0  0  0  0  0  0  0  0
   42.7939   -6.3363    7.7876 C   0  0  2  0  0  0  0  0  0  0  0  0
   42.2297   -7.5500    7.0395 C   0  0  1  0  0  0  0  0  0  0  0  0
   40.9416   -8.0563    7.7375 C   0  0  0  0  0  0  0  0  0  0  0  0
   41.2807   -8.4445    9.1805 C   0  0  2  0  0  0  0  0  0  0  0  0
   41.9192   -7.1743    5.6421 N   0  0  0  0  0  0  0  0  0  0  0  0
   40.0494   -8.9315    9.7966 N   0  0  0  0  0  0  0  0  0  0  0  0
   43.6041   -5.5482    9.9401 O   0  0  0  0  0  0  0  0  0  0  0  0
   44.0091   -5.8859    7.1510 O   0  0  0  0  0  0  0  0  0  0  0  0
  1  2  1  0  0  0  0
  1 12  1  6  0  0  0
  1 13  1  0  0  0  0
  2  3  1  0  0  0  0
  2 10  1  6  0  0  0
  4  3  1  6  0  0  0
  4  5  1  0  0  0  0
  4 14  1  0  0  0  0
  5  6  1  0  0  0  0
  5 13  1  1  0  0  0
  6  7  1  0  0  0  0
  6 15  1  1  0  0  0
  7  8  1  0  0  0  0
  7 11  1  1  0  0  0
  8 14  1  0  0  0  0
  8 16  1  6  0  0  0
  9 11  1  0  0  0  0
 17 16  1  1  0  0  0
 17 18  1  0  0  0  0
 17 24  1  0  0  0  0
 18 19  1  0  0  0  0
 18 25  1  1  0  0  0
 19 20  1  0  0  0  0
 19 26  1  6  0  0  0
 20 21  1  0  0  0  0
 20 23  1  1  0  0  0
 21 22  1  6  0  0  0
 21 24  1  0  0  0  0
 22 27  1  0  0  0  0
 28 12  1  1  0  0  0
 28 29  1  0  0  0  0
 28 33  1  0  0  0  0
 29 30  1  0  0  0  0
 29 36  1  1  0  0  0
 30 31  1  0  0  0  0
 30 37  1  6  0  0  0
 31 32  1  0  0  0  0
 31 34  1  6  0  0  0
 32 33  1  0  0  0  0
 33 35  1  1  0  0  0
M  END
>  <CHROM.1>
77.23836166,139.63568876,65.06797456,-168.72133971,-174.86003743,104.98032813
39.86917485,-4.68861428,9.83304738,-0.67954704,-0.34698816,0.11576431

>  <Name>
1yrj_lig

>  <RI>
0

>  <Rbt.Current_Directory>
/home/itssahil/PROJECTS/Mol_Feturizer/New_Systems/rnas/1yrj

>  <Rbt.Executable>
rbdock ($Id: //depot/dev/client3/rdock/2013.1/src/exe/rbdock.cxx#4 $)

>  <Rbt.Library>
libRbt.so (2013.1, Build901 2013/11/27)

>  <Rbt.Parameter_File>
/export/apps/rDock/src/rDock_2013.1_src/data/scripts/dock_solv.prm

>  <Rbt.Receptor>
prm/pocket_docking_6.prm

>  <SCORE>
-7.3992

>  <SCORE.INTER>
-4.45745

>  <SCORE.INTER.CONST>
1

>  <SCORE.INTER.POLAR>
-0.629338

>  <SCORE.INTER.ROT>
6

>  <SCORE.INTER.SOLV>
9.66907

>  <SCORE.INTER.VDW>
-11.6969

>  <SCORE.INTER.norm>
-0.120472

>  <SCORE.INTRA>
-2.94175

>  <SCORE.INTRA.DIHEDRAL>
-6.31342

>  <SCORE.INTRA.DIHEDRAL.0>
15.6389

>  <SCORE.INTRA.POLAR>
0

>  <SCORE.INTRA.POLAR.0>
0

>  <SCORE.INTRA.REPUL>
0

>  <SCORE.INTRA.REPUL.0>
0

>  <SCORE.INTRA.SOLV>
2.2882

>  <SCORE.INTRA.SOLV.lig_0>
-90.9181

>  <SCORE.INTRA.VDW>
-0.92914

>  <SCORE.INTRA.VDW.0>
-3.14158

>  <SCORE.INTRA.norm>
-0.0795067

>  <SCORE.RESTR>
0

>  <SCORE.RESTR.CAVITY>
0

>  <SCORE.RESTR.norm>
0

>  <SCORE.SYSTEM>
0

>  <SCORE.SYSTEM.CONST>
0

>  <SCORE.SYSTEM.DIHEDRAL>
0

>  <SCORE.SYSTEM.SOLV>
0

>  <SCORE.SYSTEM.norm>
0

>  <SCORE.heavy>
37

>  <SCORE.norm>
-0.199978

>  <RMSD>
11.336

$$$$
1yrj_lig
 OpenBabel11021811423D
libRbt.so/2013.1/901 2013/11/27
 37 40  0  0  0  0  0  0  0  0999 V2000
   33.0700    4.8970   18.6010 C   0  0  1  0  0  0  0  0  0  0  0  0
   34.3843    4.1630   18.9317 C   0  0  1  0  0  0  0  0  0  0  0  0
   35.6114    4.9216   18.4017 C   0  0  0  0  0  0  0  0  0  0  0  0
   35.4612    5.1787   16.8795 C   0  0  1  0  0  0  0  0  0  0  0  0
   34.1614    5.9575   16.6016 C   0  0  1  0  0  0  0  0  0  0  0  0
   34.0389    6.2181   15.0412 C   0  0  1  0  0  0  0  0  0  0  0  0
   35.2553    7.0219   14.5535 C   0  0  1  0  0  0  0  0  0  0  0  0
   36.5338    6.2207   14.8997 C   0  0  2  0  0  0  0  0  0  0  0  0
   34.7454    8.7127   12.7129 C   0  0  0  0  0  0  0  0  0  0  0  0
   34.5255    3.9121   20.3754 N   0  0  0  0  0  0  0  0  0  0  0  0
   35.1228    7.3154   13.0928 N   0  0  0  0  0  0  0  0  0  0  0  0
   32.8454    6.0698   19.4055 O   0  0  0  0  0  0  0  0  0  0  0  0
   33.0304    5.1846   17.1538 O   0  0  0  0  0  0  0  0  0  0  0  0
   36.6029    5.9427   16.3269 O   0  0  0  0  0  0  0  0  0  0  0  0
   34.0496    4.9828   14.3567 O   0  0  0  0  0  0  0  0  0  0  0  0
   37.7203    6.9273   14.5354 O   0  0  0  0  0  0  0  0  0  0  0  0
   38.2180    7.7881   15.5864 C   0  0  2  0  0  0  0  0  0  0  0  0
   37.7839    9.2546   15.4295 C   0  0  1  0  0  0  0  0  0  0  0  0
   38.4797    9.9171   14.2109 C   0  0  2  0  0  0  0  0  0  0  0  0
   39.9808    9.8219   14.3611 C   0  0  1  0  0  0  0  0  0  0  0  0
   40.3884    8.3348   14.4868 C   0  0  1  0  0  0  0  0  0  0  0  0
   41.8900    8.1475   14.6917 C   0  0  0  0  0  0  0  0  0  0  0  0
   40.6138   10.4557   13.1860 N   0  0  0  0  0  0  0  0  0  0  0  0
   39.6974    7.7297   15.6396 O   0  0  0  0  0  0  0  0  0  0  0  0
   36.3533    9.2936   15.3249 O   0  0  0  0  0  0  0  0  0  0  0  0
   38.1114   11.3013   14.1385 O   0  0  0  0  0  0  0  0  0  0  0  0
   42.2815    8.7817   15.8801 O   0  0  0  0  0  0  0  0  0  0  0  0
   33.3534    7.4574   19.0437 C   0  0  1  0  0  0  0  0  0  0  0  0
   32.1753    8.2192   18.3973 C   0  0  1  0  0  0  0  0  0  0  0  0
   32.5726    9.6748   18.0515 C   0  0  2  0  0  0  0  0  0  0  0  0
   33.0263   10.4090   19.3189 C   0  0  1  0  0  0  0  0  0  0  0  0
   34.2328    9.6754   19.9583 C   0  0  0  0  0  0  0  0  0  0  0  0
   33.8130    8.2436   20.3071 C   0  0  2  0  0  0  0  0  0  0  0  0
   33.4151   11.7961   18.9793 N   0  0  0  0  0  0  0  0  0  0  0  0
   34.9674    7.5933   20.9215 N   0  0  0  0  0  0  0  0  0  0  0  0
   31.7888    7.5447   17.1801 O   0  0  0  0  0  0  0  0  0  0  0  0
   31.4310   10.3450   17.4753 O   0  0  0  0  0  0  0  0  0  0  0  0
  1  2  1  0  0  0  0
  1 12  1  1  0  0  0
  1 13  1  0  0  0  0
  2  3  1  0  0  0  0
  2 10  1  1  0  0  0
  4  3  1  1  0  0  0
  4  5  1  0  0  0  0
  4 14  1  0  0  0  0
  5  6  1  0  0  0  0
  5 13  1  6  0  0  0
  6  7  1  0  0  0  0
  6 15  1  6  0  0  0
  7  8  1  0  0  0  0
  7 11  1  6  0  0  0
  8 14  1  0  0  0  0
  8 16  1  1  0  0  0
  9 11  1  0  0  0  0
 17 16  1  6  0  0  0
 17 18  1  0  0  0  0
 17 24  1  0  0  0  0
 18 19  1  0  0  0  0
 18 25  1  6  0  0  0
 19 20  1  0  0  0  0
 19 26  1  1  0  0  0
 20 21  1  0  0  0  0
 20 23  1  6  0  0  0
 21 22  1  1  0  0  0
 21 24  1  0  0  0  0
 22 27  1  0  0  0  0
 28 12  1  1  0  0  0
 28 29  1  0  0  0  0
 28 33  1  0  0  0  0
 29 30  1  0  0  0  0
 29 36  1  6  0  0  0
 30 31  1  0  0  0  0
 30 37  1  1  0  0  0
 31 32  1  0  0  0  0
 31 34  1  6  0  0  0
 32 33  1  0  0  0  0
 33 35  1  6  0  0  0
M  END
>  <CHROM.1>
88.25620438,104.80481628,89.42251207,-97.27932955,61.01527822,98.88874188
35.73306339,7.71733321,16.57445227,-2.91583122,0.57778336,-0.00117184

>  <Name>
1yrj_lig

>  <RI>
0

>  <Rbt.Current_Directory>
/home/itssahil/PROJECTS/Mol_Feturizer/New_Systems/rnas/1yrj

>  <Rbt.Executable>
rbdock ($Id: //depot/dev/client3/rdock/2013.1/src/exe/rbdock.cxx#4 $)

>  <Rbt.Library>
libRbt.so (2013.1, Build901 2013/11/27)

>  <Rbt.Parameter_File>
/export/apps/rDock/src/rDock_2013.1_src/data/scripts/dock_solv.prm

>  <Rbt.Receptor>
prm/blind_docking_60.prm

>  <SCORE>
-9.01936

>  <SCORE.INTER>
-12.2948

>  <SCORE.INTER.CONST>
1

>  <SCORE.INTER.POLAR>
-1.22941

>  <SCORE.INTER.ROT>
6

>  <SCORE.INTER.SOLV>
13.7336

>  <SCORE.INTER.VDW>
-16.2764

>  <SCORE.INTER.norm>
-0.332291

>  <SCORE.INTRA>
3.2754

>  <SCORE.INTRA.DIHEDRAL>
2.30205

>  <SCORE.INTRA.DIHEDRAL.0>
15.6389

>  <SCORE.INTRA.POLAR>
0

>  <SCORE.INTRA.POLAR.0>
0

>  <SCORE.INTRA.REPUL>
0

>  <SCORE.INTRA.REPUL.0>
0

>  <SCORE.INTRA.SOLV>
2.33351

>  <SCORE.INTRA.SOLV.lig_0>
-90.9181

>  <SCORE.INTRA.VDW>
0.957617

>  <SCORE.INTRA.VDW.0>
-3.14158

>  <SCORE.INTRA.norm>
0.0885243

>  <SCORE.RESTR>
6.32134e-06

>  <SCORE.RESTR.CAVITY>
6.32134e-06

>  <SCORE.RESTR.norm>
1.70847e-07

>  <SCORE.SYSTEM>
0

>  <SCORE.SYSTEM.CONST>
0

>  <SCORE.SYSTEM.DIHEDRAL>
0

>  <SCORE.SYSTEM.SOLV>
0

>  <SCORE.SYSTEM.norm>
0

>  <SCORE.heavy>
37

>  <SCORE.norm>
-0.243767

>  <RMSD>
12.126

$$$$
1yrj_lig
 OpenBabel11021811423D
libRbt.so/2013.1/901 2013/11/27
 37 40  0  0  0  0  0  0  0  0999 V2000
   33.0927    4.9333   18.5769 C   0  0  1  0  0  0  0  0  0  0  0  0
   34.3908    4.1631   18.8888 C   0  0  1  0  0  0  0  0  0  0  0  0
   35.6303    4.8855   18.3373 C   0  0  0  0  0  0  0  0  0  0  0  0
   35.4632    5.1432   16.8170 C   0  0  1  0  0  0  0  0  0  0  0  0
   34.1817    5.9579   16.5577 C   0  0  1  0  0  0  0  0  0  0  0  0
   34.0418    6.2183   14.9986 C   0  0  1  0  0  0  0  0  0  0  0  0
   35.2725    6.9863   14.4895 C   0  0  1  0  0  0  0  0  0  0  0  0
   36.5332    6.1500   14.8176 C   0  0  2  0  0  0  0  0  0  0  0  0
   34.8648    8.7031   12.6476 C   0  0  0  0  0  0  0  0  0  0  0  0
   34.5478    3.9116   20.3307 N   0  0  0  0  0  0  0  0  0  0  0  0
   35.1251    7.2801   13.0303 N   0  0  0  0  0  0  0  0  0  0  0  0
   32.9141    6.1138   19.3817 O   0  0  0  0  0  0  0  0  0  0  0  0
   33.0383    5.2186   17.1298 O   0  0  0  0  0  0  0  0  0  0  0  0
   36.6171    5.8733   16.2443 O   0  0  0  0  0  0  0  0  0  0  0  0
   34.0067    4.9817   14.3175 O   0  0  0  0  0  0  0  0  0  0  0  0
   37.7332    6.8219   14.4327 O   0  0  0  0  0  0  0  0  0  0  0  0
   38.4049    7.4701   15.5382 C   0  0  2  0  0  0  0  0  0  0  0  0
   37.7528    8.7995   15.9521 C   0  0  1  0  0  0  0  0  0  0  0  0
   37.9557    9.8857   14.8625 C   0  0  2  0  0  0  0  0  0  0  0  0
   39.4312   10.0791   14.5973 C   0  0  1  0  0  0  0  0  0  0  0  0
   40.0515    8.7326   14.1551 C   0  0  1  0  0  0  0  0  0  0  0  0
   41.5562    8.8252   13.9116 C   0  0  0  0  0  0  0  0  0  0  0  0
   39.5917   11.1136   13.5545 N   0  0  0  0  0  0  0  0  0  0  0  0
   39.8258    7.7184   15.2005 O   0  0  0  0  0  0  0  0  0  0  0  0
   36.3650    8.5566   16.2244 O   0  0  0  0  0  0  0  0  0  0  0  0
   37.4022   11.1299   15.3124 O   0  0  0  0  0  0  0  0  0  0  0  0
   42.2016    9.1759   15.1068 O   0  0  0  0  0  0  0  0  0  0  0  0
   33.5552    7.4579   19.0708 C   0  0  1  0  0  0  0  0  0  0  0  0
   32.4794    8.3270   18.3828 C   0  0  1  0  0  0  0  0  0  0  0  0
   33.0153    9.7481   18.0838 C   0  0  2  0  0  0  0  0  0  0  0  0
   33.4660   10.4224   19.3851 C   0  0  1  0  0  0  0  0  0  0  0  0
   34.5728    9.5791   20.0682 C   0  0  0  0  0  0  0  0  0  0  0  0
   34.0164    8.1835   20.3695 C   0  0  2  0  0  0  0  0  0  0  0  0
   33.9872   11.7759   19.0907 N   0  0  0  0  0  0  0  0  0  0  0  0
   35.0797    7.4281   21.0265 N   0  0  0  0  0  0  0  0  0  0  0  0
   32.0981    7.7057   17.1359 O   0  0  0  0  0  0  0  0  0  0  0  0
   31.9645   10.5218   17.4659 O   0  0  0  0  0  0  0  0  0  0  0  0
  1  2  1  0  0  0  0
  1 12  1  1  0  0  0
  1 13  1  0  0  0  0
  2  3  1  0  0  0  0
  2 10  1  1  0  0  0
  4  3  1  1  0  0  0
  4  5  1  0  0  0  0
  4 14  1  0  0  0  0
  5  6  1  0  0  0  0
  5 13  1  6  0  0  0
  6  7  1  0  0  0  0
  6 15  1  6  0  0  0
  7  8  1  0  0  0  0
  7 11  1  6  0  0  0
  8 14  1  0  0  0  0
  8 16  1  1  0  0  0
  9 11  1  0  0  0  0
 17 16  1  6  0  0  0
 17 18  1  0  0  0  0
 17 24  1  0  0  0  0
 18 19  1  0  0  0  0
 18 25  1  6  0  0  0
 19 20  1  0  0  0  0
 19 26  1  1  0  0  0
 20 21  1  0  0  0  0
 20 23  1  6  0  0  0
 21 22  1  1  0  0  0
 21 24  1  0  0  0  0
 22 27  1  0  0  0  0
 28 12  1  1  0  0  0
 28 29  1  0  0  0  0
 28 33  1  0  0  0  0
 29 30  1  0  0  0  0
 29 36  1  6  0  0  0
 30 31  1  0  0  0  0
 30 37  1  1  0  0  0
 31 32  1  0  0  0  0
 31 34  1  6  0  0  0
 32 33  1  0  0  0  0
 33 35  1  6  0  0  0
M  END
>  <CHROM.1>
82.75824337,108.46274640,100.18127441,-77.77517423,62.17722871,99.75118769
35.74669319,7.73162813,16.60291659,-3.03598443,0.66654411,0.26589170

>  <Name>
1yrj_lig

>  <RI>
0

>  <Rbt.Current_Directory>
/home/itssahil/PROJECTS/Mol_Feturizer/New_Systems/rnas/1yrj

>  <Rbt.Executable>
rbdock ($Id: //depot/dev/client3/rdock/2013.1/src/exe/rbdock.cxx#4 $)

>  <Rbt.Library>
libRbt.so (2013.1, Build901 2013/11/27)

>  <Rbt.Parameter_File>
/export/apps/rDock/src/rDock_2013.1_src/data/scripts/dock_solv.prm

>  <Rbt.Receptor>
prm/blind_docking_100.prm

>  <SCORE>
-7.34169

>  <SCORE.INTER>
-10.742

>  <SCORE.INTER.CONST>
1

>  <SCORE.INTER.POLAR>
-1.21352

>  <SCORE.INTER.ROT>
6

>  <SCORE.INTER.SOLV>
13.4928

>  <SCORE.INTER.VDW>
-15.2139

>  <SCORE.INTER.norm>
-0.290325

>  <SCORE.INTRA>
3.40032

>  <SCORE.INTRA.DIHEDRAL>
0.0053963

>  <SCORE.INTRA.DIHEDRAL.0>
15.6389

>  <SCORE.INTRA.POLAR>
0

>  <SCORE.INTRA.POLAR.0>
0

>  <SCORE.INTRA.REPUL>
0

>  <SCORE.INTRA.REPUL.0>
0

>  <SCORE.INTRA.SOLV>
2.95339

>  <SCORE.INTRA.SOLV.lig_0>
-90.9181

>  <SCORE.INTRA.VDW>
1.92092

>  <SCORE.INTRA.VDW.0>
-3.14158

>  <SCORE.INTRA.norm>
0.0919005

>  <SCORE.RESTR>
0

>  <SCORE.RESTR.CAVITY>
0

>  <SCORE.RESTR.norm>
0

>  <SCORE.SYSTEM>
0

>  <SCORE.SYSTEM.CONST>
0

>  <SCORE.SYSTEM.DIHEDRAL>
0

>  <SCORE.SYSTEM.SOLV>
0

>  <SCORE.SYSTEM.norm>
0

>  <SCORE.heavy>
37

>  <SCORE.norm>
-0.198424

>  <RMSD>
12.171

$$$$
1yrj_lig
 OpenBabel11021811423D
libRbt.so/2013.1/901 2013/11/27
 37 40  0  0  0  0  0  0  0  0999 V2000
   34.2833    3.7188   17.5302 C   0  0  1  0  0  0  0  0  0  0  0  0
   35.7323    3.8102   18.0475 C   0  0  1  0  0  0  0  0  0  0  0  0
   36.3196    5.2176   17.8561 C   0  0  0  0  0  0  0  0  0  0  0  0
   36.2102    5.6417   16.3682 C   0  0  1  0  0  0  0  0  0  0  0  0
   34.7407    5.5839   15.9098 C   0  0  1  0  0  0  0  0  0  0  0  0
   34.6554    6.0343   14.3906 C   0  0  1  0  0  0  0  0  0  0  0  0
   35.2028    7.4632   14.2427 C   0  0  1  0  0  0  0  0  0  0  0  0
   36.6614    7.4775   14.7612 C   0  0  2  0  0  0  0  0  0  0  0  0
   34.1104    9.0199   12.5427 C   0  0  0  0  0  0  0  0  0  0  0  0
   35.8392    3.4015   19.4577 N   0  0  0  0  0  0  0  0  0  0  0  0
   35.0794    7.9143   12.8219 N   0  0  0  0  0  0  0  0  0  0  0  0
   33.3233    4.3690   18.3838 O   0  0  0  0  0  0  0  0  0  0  0  0
   34.2361    4.2152   16.1409 O   0  0  0  0  0  0  0  0  0  0  0  0
   36.7286    7.0095   16.1380 O   0  0  0  0  0  0  0  0  0  0  0  0
   35.4687    5.1890   13.6041 O   0  0  0  0  0  0  0  0  0  0  0  0
   37.2294    8.7871   14.7178 O   0  0  0  0  0  0  0  0  0  0  0  0
   38.1691    9.0380   15.7890 C   0  0  2  0  0  0  0  0  0  0  0  0
   38.3997   10.5339   16.0591 C   0  0  1  0  0  0  0  0  0  0  0  0
   39.1684   11.2021   14.8883 C   0  0  2  0  0  0  0  0  0  0  0  0
   40.4856   10.4942   14.6671 C   0  0  1  0  0  0  0  0  0  0  0  0
   40.2186    8.9998   14.3690 C   0  0  1  0  0  0  0  0  0  0  0  0
   41.5025    8.1951   14.1795 C   0  0  0  0  0  0  0  0  0  0  0  0
   41.1907   11.1489   13.5457 N   0  0  0  0  0  0  0  0  0  0  0  0
   39.4716    8.3992   15.4887 O   0  0  0  0  0  0  0  0  0  0  0  0
   37.1265   11.1521   16.2952 O   0  0  0  0  0  0  0  0  0  0  0  0
   39.4320   12.5757   15.2056 O   0  0  0  0  0  0  0  0  0  0  0  0
   42.3079    8.3258   15.3206 O   0  0  0  0  0  0  0  0  0  0  0  0
   33.3269    5.8604   18.6838 C   0  0  1  0  0  0  0  0  0  0  0  0
   32.0393    6.4515   18.0685 C   0  0  1  0  0  0  0  0  0  0  0  0
   31.9139    7.9630   18.3783 C   0  0  2  0  0  0  0  0  0  0  0  0
   31.9094    8.1881   19.8950 C   0  0  1  0  0  0  0  0  0  0  0  0
   33.2138    7.6323   20.5214 C   0  0  0  0  0  0  0  0  0  0  0  0
   33.3093    6.1336   20.2170 C   0  0  2  0  0  0  0  0  0  0  0  0
   31.8006    9.6356   20.1838 N   0  0  0  0  0  0  0  0  0  0  0  0
   34.5380    5.6451   20.8370 N   0  0  0  0  0  0  0  0  0  0  0  0
   32.0778    6.2757   16.6355 O   0  0  0  0  0  0  0  0  0  0  0  0
   30.6849    8.4562   17.8029 O   0  0  0  0  0  0  0  0  0  0  0  0
  1  2  1  0  0  0  0
  1 12  1  1  0  0  0
  1 13  1  0  0  0  0
  2  3  1  0  0  0  0
  2 10  1  1  0  0  0
  4  3  1  1  0  0  0
  4  5  1  0  0  0  0
  4 14  1  0  0  0  0
  5  6  1  0  0  0  0
  5 13  1  6  0  0  0
  6  7  1  0  0  0  0
  6 15  1  6  0  0  0
  7  8  1  0  0  0  0
  7 11  1  6  0  0  0
  8 14  1  0  0  0  0
  8 16  1  1  0  0  0
  9 11  1  0  0  0  0
 17 16  1  6  0  0  0
 17 18  1  0  0  0  0
 17 24  1  0  0  0  0
 18 19  1  0  0  0  0
 18 25  1  6  0  0  0
 19 20  1  0  0  0  0
 19 26  1  1  0  0  0
 20 21  1  0  0  0  0
 20 23  1  6  0  0  0
 21 22  1  1  0  0  0
 21 24  1  0  0  0  0
 22 27  1  0  0  0  0
 28 12  1  1  0  0  0
 28 29  1  0  0  0  0
 28 33  1  0  0  0  0
 29 30  1  0  0  0  0
 29 36  1  6  0  0  0
 30 31  1  0  0  0  0
 30 37  1  1  0  0  0
 31 32  1  0  0  0  0
 31 34  1  6  0  0  0
 32 33  1  0  0  0  0
 33 35  1  1  0  0  0
M  END
>  <CHROM.1>
62.55867483,112.37865566,146.91475366,-159.48834640,56.89126271,114.43719122
35.91087917,7.50785955,16.45227221,-2.69704723,0.53014410,-0.00175569

>  <Name>
1yrj_lig

>  <RI>
0

>  <Rbt.Current_Directory>
/home/itssahil/PROJECTS/Mol_Feturizer/New_Systems/rnas/1yrj

>  <Rbt.Executable>
rbdock ($Id: //depot/dev/client3/rdock/2013.1/src/exe/rbdock.cxx#4 $)

>  <Rbt.Library>
libRbt.so (2013.1, Build901 2013/11/27)

>  <Rbt.Parameter_File>
/export/apps/rDock/src/rDock_2013.1_src/data/scripts/dock_solv.prm

>  <Rbt.Receptor>
prm/blind_docking_60.prm

>  <SCORE>
-14.8519

>  <SCORE.INTER>
-16.5394

>  <SCORE.INTER.CONST>
1

>  <SCORE.INTER.POLAR>
-3.04981

>  <SCORE.INTER.ROT>
6

>  <SCORE.INTER.SOLV>
15.9367

>  <SCORE.INTER.VDW>
-13.7724

>  <SCORE.INTER.norm>
-0.44701

>  <SCORE.INTRA>
1.67313

>  <SCORE.INTRA.DIHEDRAL>
-1.2387

>  <SCORE.INTRA.DIHEDRAL.0>
15.6389

>  <SCORE.INTRA.POLAR>
0

>  <SCORE.INTRA.POLAR.0>
0

>  <SCORE.INTRA.REPUL>
0

>  <SCORE.INTRA.REPUL.0>
0

>  <SCORE.INTRA.SOLV>
2.77088

>  <SCORE.INTRA.SOLV.lig_0>
-90.9181

>  <SCORE.INTRA.VDW>
0.907044

>  <SCORE.INTRA.VDW.0>
-3.14158

>  <SCORE.INTRA.norm>
0.0452198

>  <SCORE.RESTR>
0.0143723

>  <SCORE.RESTR.CAVITY>
0.0143723

>  <SCORE.RESTR.norm>
0.000388441

>  <SCORE.SYSTEM>
0

>  <SCORE.SYSTEM.CONST>
0

>  <SCORE.SYSTEM.DIHEDRAL>
0

>  <SCORE.SYSTEM.SOLV>
0

>  <SCORE.SYSTEM.norm>
0

>  <SCORE.heavy>
37

>  <SCORE.norm>
-0.401402

>  <RMSD>
12.341

$$$$
1yrj_lig
 OpenBabel11021811423D
libRbt.so/2013.1/901 2013/11/27
 37 40  0  0  0  0  0  0  0  0999 V2000
   33.3510    4.3534   18.1668 C   0  0  1  0  0  0  0  0  0  0  0  0
   34.7604    3.8144   18.4809 C   0  0  1  0  0  0  0  0  0  0  0  0
   35.8570    4.8129   18.0775 C   0  0  0  0  0  0  0  0  0  0  0  0
   35.7050    5.1942   16.5818 C   0  0  1  0  0  0  0  0  0  0  0  0
   34.3012    5.7742   16.3252 C   0  0  1  0  0  0  0  0  0  0  0  0
   34.1770    6.1675   14.7929 C   0  0  1  0  0  0  0  0  0  0  0  0
   35.2544    7.2042   14.4354 C   0  0  1  0  0  0  0  0  0  0  0  0
   36.6393    6.5919   14.7571 C   0  0  2  0  0  0  0  0  0  0  0  0
   34.3612    8.8842   12.7364 C   0  0  0  0  0  0  0  0  0  0  0  0
   34.9044    3.4455   19.8988 N   0  0  0  0  0  0  0  0  0  0  0  0
   35.1122    7.6181   13.0051 N   0  0  0  0  0  0  0  0  0  0  0  0
   32.9135    5.3865   19.0693 O   0  0  0  0  0  0  0  0  0  0  0  0
   33.3011    4.7753   16.7532 O   0  0  0  0  0  0  0  0  0  0  0  0
   36.7172    6.1862   16.1529 O   0  0  0  0  0  0  0  0  0  0  0  0
   34.4109    5.0259   13.9949 O   0  0  0  0  0  0  0  0  0  0  0  0
   37.7003    7.5159   14.5118 O   0  0  0  0  0  0  0  0  0  0  0  0
   37.4126    8.8539   14.9815 C   0  0  2  0  0  0  0  0  0  0  0  0
   38.5951    9.8232   14.8210 C   0  0  1  0  0  0  0  0  0  0  0  0
   39.7521    9.4599   15.7894 C   0  0  2  0  0  0  0  0  0  0  0  0
   39.2508    9.4668   17.2154 C   0  0  1  0  0  0  0  0  0  0  0  0
   38.0827    8.4616   17.3512 C   0  0  1  0  0  0  0  0  0  0  0  0
   37.4811    8.4387   18.7545 C   0  0  0  0  0  0  0  0  0  0  0  0
   40.3715    9.1134   18.1113 N   0  0  0  0  0  0  0  0  0  0  0  0
   37.0098    8.8215   16.4068 O   0  0  0  0  0  0  0  0  0  0  0  0
   39.0110    9.8053   13.4478 O   0  0  0  0  0  0  0  0  0  0  0  0
   40.8050   10.4259   15.6671 O   0  0  0  0  0  0  0  0  0  0  0  0
   36.9017    9.6852   19.0342 O   0  0  0  0  0  0  0  0  0  0  0  0
   33.3073    6.8501   18.9389 C   0  0  1  0  0  0  0  0  0  0  0  0
   32.1254    7.5811   18.2645 C   0  0  1  0  0  0  0  0  0  0  0  0
   32.4010    9.0997   18.1460 C   0  0  2  0  0  0  0  0  0  0  0  0
   32.6491    9.6970   19.5363 C   0  0  1  0  0  0  0  0  0  0  0  0
   33.8569    8.9973   20.2105 C   0  0  0  0  0  0  0  0  0  0  0  0
   33.5563    7.4998   20.3324 C   0  0  2  0  0  0  0  0  0  0  0  0
   32.9228   11.1464   19.4146 N   0  0  0  0  0  0  0  0  0  0  0  0
   34.7062    6.8810   20.9863 N   0  0  0  0  0  0  0  0  0  0  0  0
   31.9326    7.0422   16.9385 O   0  0  0  0  0  0  0  0  0  0  0  0
   31.2578    9.7343   17.5336 O   0  0  0  0  0  0  0  0  0  0  0  0
  1  2  1  0  0  0  0
  1 12  1  1  0  0  0
  1 13  1  0  0  0  0
  2  3  1  0  0  0  0
  2 10  1  1  0  0  0
  4  3  1  1  0  0  0
  4  5  1  0  0  0  0
  4 14  1  0  0  0  0
  5  6  1  0  0  0  0
  5 13  1  6  0  0  0
  6  7  1  0  0  0  0
  6 15  1  6  0  0  0
  7  8  1  0  0  0  0
  7 11  1  6  0  0  0
  8 14  1  0  0  0  0
  8 16  1  1  0  0  0
  9 11  1  0  0  0  0
 17 16  1  1  0  0  0
 17 18  1  0  0  0  0
 17 24  1  0  0  0  0
 18 19  1  0  0  0  0
 18 25  1  6  0  0  0
 19 20  1  0  0  0  0
 19 26  1  1  0  0  0
 20 21  1  0  0  0  0
 20 23  1  1  0  0  0
 21 22  1  1  0  0  0
 21 24  1  0  0  0  0
 22 27  1  0  0  0  0
 28 12  1  1  0  0  0
 28 29  1  0  0  0  0
 28 33  1  0  0  0  0
 29 30  1  0  0  0  0
 29 36  1  6  0  0  0
 30 31  1  0  0  0  0
 30 37  1  1  0  0  0
 31 32  1  0  0  0  0
 31 34  1  6  0  0  0
 32 33  1  0  0  0  0
 33 35  1  6  0  0  0
M  END
>  <CHROM.1>
81.94358984,97.22995495,42.99209712,175.37314377,64.29242553,99.72881062
35.49023436,7.56997085,16.98017737,2.93389511,0.60422373,1.01516091

>  <Name>
1yrj_lig

>  <RI>
0

>  <Rbt.Current_Directory>
/home/itssahil/PROJECTS/Mol_Feturizer/New_Systems/rnas/1yrj

>  <Rbt.Executable>
rbdock ($Id: //depot/dev/client3/rdock/2013.1/src/exe/rbdock.cxx#4 $)

>  <Rbt.Library>
libRbt.so (2013.1, Build901 2013/11/27)

>  <Rbt.Parameter_File>
/export/apps/rDock/src/rDock_2013.1_src/data/scripts/dock_solv.prm

>  <Rbt.Receptor>
prm/blind_docking_60.prm

>  <SCORE>
-10.1122

>  <SCORE.INTER>
-8.21891

>  <SCORE.INTER.CONST>
1

>  <SCORE.INTER.POLAR>
-1.04213

>  <SCORE.INTER.ROT>
6

>  <SCORE.INTER.SOLV>
18.3761

>  <SCORE.INTER.VDW>
-15.7309

>  <SCORE.INTER.norm>
-0.222133

>  <SCORE.INTRA>
-1.90437

>  <SCORE.INTRA.DIHEDRAL>
-5.77221

>  <SCORE.INTRA.DIHEDRAL.0>
15.6389

>  <SCORE.INTRA.POLAR>
0

>  <SCORE.INTRA.POLAR.0>
0

>  <SCORE.INTRA.REPUL>
0

>  <SCORE.INTRA.REPUL.0>
0

>  <SCORE.INTRA.SOLV>
3.03425

>  <SCORE.INTRA.SOLV.lig_0>
-90.9181

>  <SCORE.INTRA.VDW>
-0.53539

>  <SCORE.INTRA.VDW.0>
-3.14158

>  <SCORE.INTRA.norm>
-0.0514695

>  <SCORE.RESTR>
0.0110863

>  <SCORE.RESTR.CAVITY>
0.0110863

>  <SCORE.RESTR.norm>
0.000299629

>  <SCORE.SYSTEM>
0

>  <SCORE.SYSTEM.CONST>
0

>  <SCORE.SYSTEM.DIHEDRAL>
0

>  <SCORE.SYSTEM.SOLV>
0

>  <SCORE.SYSTEM.norm>
0

>  <SCORE.heavy>
37

>  <SCORE.norm>
-0.273303

>  <RMSD>
12.349

$$$$
1yrj_lig
 OpenBabel11021811423D
libRbt.so/2013.1/901 2013/11/27
 37 40  0  0  0  0  0  0  0  0999 V2000
   34.2890    3.7359   17.5614 C   0  0  1  0  0  0  0  0  0  0  0  0
   35.7436    3.8188   18.0642 C   0  0  1  0  0  0  0  0  0  0  0  0
   36.3368    5.2230   17.8679 C   0  0  0  0  0  0  0  0  0  0  0  0
   36.2148    5.6488   16.3815 C   0  0  1  0  0  0  0  0  0  0  0  0
   34.7405    5.5995   15.9377 C   0  0  1  0  0  0  0  0  0  0  0  0
   34.6425    6.0515   14.4198 C   0  0  1  0  0  0  0  0  0  0  0  0
   35.1964    7.4774   14.2674 C   0  0  1  0  0  0  0  0  0  0  0  0
   36.6601    7.4833   14.7713 C   0  0  2  0  0  0  0  0  0  0  0  0
   34.1112    9.0554   12.5825 C   0  0  0  0  0  0  0  0  0  0  0  0
   35.8624    3.4085   19.4730 N   0  0  0  0  0  0  0  0  0  0  0  0
   35.0612    7.9303   12.8482 N   0  0  0  0  0  0  0  0  0  0  0  0
   33.3412    4.3907   18.4251 O   0  0  0  0  0  0  0  0  0  0  0  0
   34.2307    4.2335   16.1729 O   0  0  0  0  0  0  0  0  0  0  0  0
   36.7385    7.0139   16.1470 O   0  0  0  0  0  0  0  0  0  0  0  0
   35.4432    5.2023   13.6246 O   0  0  0  0  0  0  0  0  0  0  0  0
   37.2350    8.7897   14.7230 O   0  0  0  0  0  0  0  0  0  0  0  0
   38.1558    8.9683   13.6213 C   0  0  2  0  0  0  0  0  0  0  0  0
   39.5631    8.4202   13.9086 C   0  0  1  0  0  0  0  0  0  0  0  0
   40.2877    9.2737   14.9832 C   0  0  2  0  0  0  0  0  0  0  0  0
   40.3621   10.7143   14.5318 C   0  0  1  0  0  0  0  0  0  0  0  0
   38.9310   11.2452   14.2797 C   0  0  1  0  0  0  0  0  0  0  0  0
   38.9143   12.6852   13.7718 C   0  0  0  0  0  0  0  0  0  0  0  0
   41.0515   11.5009   15.5755 N   0  0  0  0  0  0  0  0  0  0  0  0
   38.2633   10.4037   13.2705 O   0  0  0  0  0  0  0  0  0  0  0  0
   39.4413    7.0448   14.2995 O   0  0  0  0  0  0  0  0  0  0  0  0
   41.6214    8.7812   15.1719 O   0  0  0  0  0  0  0  0  0  0  0  0
   37.5903   13.1453   13.7168 O   0  0  0  0  0  0  0  0  0  0  0  0
   33.3142    5.8915   18.6726 C   0  0  1  0  0  0  0  0  0  0  0  0
   31.9640    6.4169   18.1371 C   0  0  1  0  0  0  0  0  0  0  0  0
   31.8085    7.9338   18.4036 C   0  0  2  0  0  0  0  0  0  0  0  0
   31.9094    8.2143   19.9077 C   0  0  1  0  0  0  0  0  0  0  0  0
   33.2758    7.7251   20.4519 C   0  0  0  0  0  0  0  0  0  0  0  0
   33.4016    6.2202   20.1925 C   0  0  2  0  0  0  0  0  0  0  0  0
   31.7710    9.6671   20.1542 N   0  0  0  0  0  0  0  0  0  0  0  0
   34.6899    5.7955   20.7337 N   0  0  0  0  0  0  0  0  0  0  0  0
   31.9014    6.1898   16.7122 O   0  0  0  0  0  0  0  0  0  0  0  0
   30.5231    8.3648   17.9068 O   0  0  0  0  0  0  0  0  0  0  0  0
  1  2  1  0  0  0  0
  1 12  1  1  0  0  0
  1 13  1  0  0  0  0
  2  3  1  0  0  0  0
  2 10  1  1  0  0  0
  4  3  1  1  0  0  0
  4  5  1  0  0  0  0
  4 14  1  0  0  0  0
  5  6  1  0  0  0  0
  5 13  1  6  0  0  0
  6  7  1  0  0  0  0
  6 15  1  6  0  0  0
  7  8  1  0  0  0  0
  7 11  1  6  0  0  0
  8 14  1  0  0  0  0
  8 16  1  1  0  0  0
  9 11  1  0  0  0  0
 17 16  1  1  0  0  0
 17 18  1  0  0  0  0
 17 24  1  0  0  0  0
 18 19  1  0  0  0  0
 18 25  1  1  0  0  0
 19 20  1  0  0  0  0
 19 26  1  6  0  0  0
 20 21  1  0  0  0  0
 20 23  1  1  0  0  0
 21 22  1  6  0  0  0
 21 24  1  0  0  0  0
 22 27  1  0  0  0  0
 28 12  1  1  0  0  0
 28 29  1  0  0  0  0
 28 33  1  0  0  0  0
 29 30  1  0  0  0  0
 29 36  1  6  0  0  0
 30 31  1  0  0  0  0
 30 37  1  1  0  0  0
 31 32  1  0  0  0  0
 31 34  1  6  0  0  0
 32 33  1  0  0  0  0
 33 35  1  6  0  0  0
M  END
>  <CHROM.1>
65.66881633,113.28389965,-104.05697038,-81.79014464,-173.15480913,116.81762453
35.80868316,7.57325620,16.21817694,-2.50945031,0.51070121,-0.24038459

>  <Name>
1yrj_lig

>  <RI>
0

>  <Rbt.Current_Directory>
/home/itssahil/PROJECTS/Mol_Feturizer/New_Systems/rnas/1yrj

>  <Rbt.Executable>
rbdock ($Id: //depot/dev/client3/rdock/2013.1/src/exe/rbdock.cxx#4 $)

>  <Rbt.Library>
libRbt.so (2013.1, Build901 2013/11/27)

>  <Rbt.Parameter_File>
/export/apps/rDock/src/rDock_2013.1_src/data/scripts/dock_solv.prm

>  <Rbt.Receptor>
prm/blind_docking_100.prm

>  <SCORE>
-16.3367

>  <SCORE.INTER>
-17.1167

>  <SCORE.INTER.CONST>
1

>  <SCORE.INTER.POLAR>
-3.01843

>  <SCORE.INTER.ROT>
6

>  <SCORE.INTER.SOLV>
17.4625

>  <SCORE.INTER.VDW>
-14.7706

>  <SCORE.INTER.norm>
-0.462615

>  <SCORE.INTRA>
0.666856

>  <SCORE.INTRA.DIHEDRAL>
1.17619

>  <SCORE.INTRA.DIHEDRAL.0>
15.6389

>  <SCORE.INTRA.POLAR>
0

>  <SCORE.INTRA.POLAR.0>
0

>  <SCORE.INTRA.REPUL>
0

>  <SCORE.INTRA.REPUL.0>
0

>  <SCORE.INTRA.SOLV>
2.7125

>  <SCORE.INTRA.SOLV.lig_0>
-90.9181

>  <SCORE.INTRA.VDW>
-1.27749

>  <SCORE.INTRA.VDW.0>
-3.14158

>  <SCORE.INTRA.norm>
0.0180231

>  <SCORE.RESTR>
0.113196

>  <SCORE.RESTR.CAVITY>
0.113196

>  <SCORE.RESTR.norm>
0.00305936

>  <SCORE.SYSTEM>
0

>  <SCORE.SYSTEM.CONST>
0

>  <SCORE.SYSTEM.DIHEDRAL>
0

>  <SCORE.SYSTEM.SOLV>
0

>  <SCORE.SYSTEM.norm>
0

>  <SCORE.heavy>
37

>  <SCORE.norm>
-0.441532

>  <RMSD>
12.361

$$$$
1yrj_lig
 OpenBabel11021811423D
libRbt.so/2013.1/901 2013/11/27
 37 40  0  0  0  0  0  0  0  0999 V2000
   34.1810    4.1167   17.7779 C   0  0  1  0  0  0  0  0  0  0  0  0
   35.6665    3.8075   18.0485 C   0  0  1  0  0  0  0  0  0  0  0  0
   36.5721    4.9968   17.6910 C   0  0  0  0  0  0  0  0  0  0  0  0
   36.3305    5.4260   16.2203 C   0  0  1  0  0  0  0  0  0  0  0  0
   34.8446    5.7735   16.0093 C   0  0  1  0  0  0  0  0  0  0  0  0
   34.6277    6.2211   14.5024 C   0  0  1  0  0  0  0  0  0  0  0  0
   35.5086    7.4425   14.1932 C   0  0  1  0  0  0  0  0  0  0  0  0
   36.9825    7.0565   14.4674 C   0  0  2  0  0  0  0  0  0  0  0  0
   34.2247    8.9506   12.5859 C   0  0  0  0  0  0  0  0  0  0  0  0
   35.8967    3.3933   19.4422 N   0  0  0  0  0  0  0  0  0  0  0  0
   35.2725    7.9019   12.7894 N   0  0  0  0  0  0  0  0  0  0  0  0
   33.5929    5.0116   18.7404 O   0  0  0  0  0  0  0  0  0  0  0  0
   34.0348    4.5987   16.3904 O   0  0  0  0  0  0  0  0  0  0  0  0
   37.1534    6.5962   15.8378 O   0  0  0  0  0  0  0  0  0  0  0  0
   35.0353    5.1796   13.6401 O   0  0  0  0  0  0  0  0  0  0  0  0
   37.8684    8.1581   14.2641 O   0  0  0  0  0  0  0  0  0  0  0  0
   37.9856    9.0182   15.4217 C   0  0  2  0  0  0  0  0  0  0  0  0
   37.2542   10.3607   15.2597 C   0  0  1  0  0  0  0  0  0  0  0  0
   37.9577   11.2581   14.2071 C   0  0  2  0  0  0  0  0  0  0  0  0
   39.3985   11.4841   14.6044 C   0  0  1  0  0  0  0  0  0  0  0  0
   40.1140   10.1182   14.7303 C   0  0  1  0  0  0  0  0  0  0  0  0
   41.5682   10.2503   15.1772 C   0  0  0  0  0  0  0  0  0  0  0  0
   40.0417   12.3362   13.5828 N   0  0  0  0  0  0  0  0  0  0  0  0
   39.4121    9.2831   15.7213 O   0  0  0  0  0  0  0  0  0  0  0  0
   35.8870   10.0920   14.9167 O   0  0  0  0  0  0  0  0  0  0  0  0
   37.2955   12.5283   14.1359 O   0  0  0  0  0  0  0  0  0  0  0  0
   42.0988    8.9750   15.4221 O   0  0  0  0  0  0  0  0  0  0  0  0
   33.7373    6.5252   18.6911 C   0  0  1  0  0  0  0  0  0  0  0  0
   32.4194    7.0897   18.1162 C   0  0  1  0  0  0  0  0  0  0  0  0
   32.4390    8.6373   18.0874 C   0  0  2  0  0  0  0  0  0  0  0  0
   32.6588    9.1847   19.5026 C   0  0  1  0  0  0  0  0  0  0  0  0
   33.9971    8.6553   20.0784 C   0  0  0  0  0  0  0  0  0  0  0  0
   33.9496    7.1242   20.1130 C   0  0  2  0  0  0  0  0  0  0  0  0
   32.6876   10.6640   19.4661 N   0  0  0  0  0  0  0  0  0  0  0  0
   35.2168    6.6661   20.6763 N   0  0  0  0  0  0  0  0  0  0  0  0
   32.2480    6.6050   16.7665 O   0  0  0  0  0  0  0  0  0  0  0  0
   31.1781    9.1096   17.5662 O   0  0  0  0  0  0  0  0  0  0  0  0
  1  2  1  0  0  0  0
  1 12  1  1  0  0  0
  1 13  1  0  0  0  0
  2  3  1  0  0  0  0
  2 10  1  1  0  0  0
  4  3  1  1  0  0  0
  4  5  1  0  0  0  0
  4 14  1  0  0  0  0
  5  6  1  0  0  0  0
  5 13  1  6  0  0  0
  6  7  1  0  0  0  0
  6 15  1  6  0  0  0
  7  8  1  0  0  0  0
  7 11  1  6  0  0  0
  8 14  1  0  0  0  0
  8 16  1  1  0  0  0
  9 11  1  0  0  0  0
 17 16  1  6  0  0  0
 17 18  1  0  0  0  0
 17 24  1  0  0  0  0
 18 19  1  0  0  0  0
 18 25  1  6  0  0  0
 19 20  1  0  0  0  0
 19 26  1  1  0  0  0
 20 21  1  0  0  0  0
 20 23  1  6  0  0  0
 21 22  1  1  0  0  0
 21 24  1  0  0  0  0
 22 27  1  0  0  0  0
 28 12  1  1  0  0  0
 28 29  1  0  0  0  0
 28 33  1  0  0  0  0
 29 30  1  0  0  0  0
 29 36  1  6  0  0  0
 30 31  1  0  0  0  0
 30 37  1  1  0  0  0
 31 32  1  0  0  0  0
 31 34  1  6  0  0  0
 32 33  1  0  0  0  0
 33 35  1  6  0  0  0
M  END
>  <CHROM.1>
81.68358945,91.89237205,84.84574317,-106.31825803,172.99526566,101.82181525
35.88260000,7.86054289,16.31164882,-2.51738319,0.52139606,-0.16091564

>  <Name>
1yrj_lig

>  <RI>
224

>  <Rbt.Current_Directory>
/home/itssahil/PROJECTS/Mol_Feturizer/New_Systems/rnas/1yrj

>  <Rbt.Executable>
rbdock ($Id: //depot/dev/client3/rdock/2013.1/src/exe/rbdock.cxx#4 $)

>  <Rbt.Library>
libRbt.so (2013.1, Build901 2013/11/27)

>  <Rbt.Parameter_File>
/export/apps/rDock/src/rDock_2013.1_src/data/scripts/dock_solv.prm

>  <Rbt.Receptor>
prm/blind_docking_80.prm

>  <SCORE>
-16.9081

>  <SCORE.INTER>
-19.2304

>  <SCORE.INTER.CONST>
1

>  <SCORE.INTER.POLAR>
-3.20857

>  <SCORE.INTER.ROT>
6

>  <SCORE.INTER.SOLV>
18.2159

>  <SCORE.INTER.VDW>
-15.797

>  <SCORE.INTER.norm>
-0.51974

>  <SCORE.INTRA>
2.32231

>  <SCORE.INTRA.DIHEDRAL>
1.93781

>  <SCORE.INTRA.DIHEDRAL.0>
15.6389

>  <SCORE.INTRA.POLAR>
0

>  <SCORE.INTRA.POLAR.0>
0

>  <SCORE.INTRA.REPUL>
0

>  <SCORE.INTRA.REPUL.0>
0

>  <SCORE.INTRA.SOLV>
2.01869

>  <SCORE.INTRA.SOLV.lig_0>
-90.9181

>  <SCORE.INTRA.VDW>
0.344059

>  <SCORE.INTRA.VDW.0>
-3.14158

>  <SCORE.INTRA.norm>
0.0627652

>  <SCORE.RESTR>
0

>  <SCORE.RESTR.CAVITY>
0

>  <SCORE.RESTR.norm>
0

>  <SCORE.SYSTEM>
0

>  <SCORE.SYSTEM.CONST>
0

>  <SCORE.SYSTEM.DIHEDRAL>
0

>  <SCORE.SYSTEM.SOLV>
0

>  <SCORE.SYSTEM.norm>
0

>  <SCORE.heavy>
37

>  <SCORE.norm>
-0.456975

>  <RMSD>
12.375

$$$$
1yrj_lig
 OpenBabel11021811423D
libRbt.so/2013.1/901 2013/11/27
 37 40  0  0  0  0  0  0  0  0999 V2000
   33.6885    3.6019   17.2334 C   0  0  1  0  0  0  0  0  0  0  0  0
   35.0692    3.2080   17.7937 C   0  0  1  0  0  0  0  0  0  0  0  0
   36.0125    4.4175   17.8913 C   0  0  0  0  0  0  0  0  0  0  0  0
   36.1275    5.1150   16.5108 C   0  0  1  0  0  0  0  0  0  0  0  0
   34.7312    5.5357   16.0142 C   0  0  1  0  0  0  0  0  0  0  0  0
   34.8785    6.2572   14.6086 C   0  0  1  0  0  0  0  0  0  0  0  0
   35.7858    7.4900   14.7520 C   0  0  1  0  0  0  0  0  0  0  0  0
   37.1557    7.0203   15.2989 C   0  0  2  0  0  0  0  0  0  0  0  0
   34.6243    8.7681   12.8748 C   0  0  0  0  0  0  0  0  0  0  0  0
   34.9616    2.5396   19.1009 N   0  0  0  0  0  0  0  0  0  0  0  0
   35.8892    8.2048   13.4422 N   0  0  0  0  0  0  0  0  0  0  0  0
   32.8679    4.3213   18.1728 O   0  0  0  0  0  0  0  0  0  0  0  0
   33.8747    4.3335   15.9650 O   0  0  0  0  0  0  0  0  0  0  0  0
   36.9971    6.3125   16.5610 O   0  0  0  0  0  0  0  0  0  0  0  0
   35.5024    5.3803   13.6940 O   0  0  0  0  0  0  0  0  0  0  0  0
   38.0442    8.1159   15.5223 O   0  0  0  0  0  0  0  0  0  0  0  0
   38.5845    8.6716   14.3005 C   0  0  2  0  0  0  0  0  0  0  0  0
   40.1149    8.8167   14.3219 C   0  0  1  0  0  0  0  0  0  0  0  0
   40.5587    9.9205   15.3183 C   0  0  2  0  0  0  0  0  0  0  0  0
   39.9068   11.2347   14.9540 C   0  0  1  0  0  0  0  0  0  0  0  0
   38.3693   11.0641   14.9700 C   0  0  1  0  0  0  0  0  0  0  0  0
   37.6279   12.3361   14.5647 C   0  0  0  0  0  0  0  0  0  0  0  0
   40.3441   12.2626   15.9213 N   0  0  0  0  0  0  0  0  0  0  0  0
   37.9815    9.9975   14.0296 O   0  0  0  0  0  0  0  0  0  0  0  0
   40.6856    7.5387   14.6384 O   0  0  0  0  0  0  0  0  0  0  0  0
   41.9826   10.0810   15.2579 O   0  0  0  0  0  0  0  0  0  0  0  0
   37.9431   12.6565   13.2359 O   0  0  0  0  0  0  0  0  0  0  0  0
   33.0967    5.7743   18.5609 C   0  0  1  0  0  0  0  0  0  0  0  0
   31.9465    6.5977   17.9402 C   0  0  1  0  0  0  0  0  0  0  0  0
   32.0508    8.0908   18.3351 C   0  0  2  0  0  0  0  0  0  0  0  0
   32.0188    8.2322   19.8616 C   0  0  1  0  0  0  0  0  0  0  0  0
   33.1906    7.4403   20.4961 C   0  0  0  0  0  0  0  0  0  0  0  0
   33.0587    5.9643   20.1063 C   0  0  2  0  0  0  0  0  0  0  0  0
   32.1301    9.6607   20.2323 N   0  0  0  0  0  0  0  0  0  0  0  0
   34.1670    5.2514   20.7359 N   0  0  0  0  0  0  0  0  0  0  0  0
   32.0163    6.4949   16.5013 O   0  0  0  0  0  0  0  0  0  0  0  0
   30.9412    8.8060   17.7503 O   0  0  0  0  0  0  0  0  0  0  0  0
  1  2  1  0  0  0  0
  1 12  1  1  0  0  0
  1 13  1  0  0  0  0
  2  3  1  0  0  0  0
  2 10  1  1  0  0  0
  4  3  1  1  0  0  0
  4  5  1  0  0  0  0
  4 14  1  0  0  0  0
  5  6  1  0  0  0  0
  5 13  1  6  0  0  0
  6  7  1  0  0  0  0
  6 15  1  6  0  0  0
  7  8  1  0  0  0  0
  7 11  1  6  0  0  0
  8 14  1  0  0  0  0
  8 16  1  1  0  0  0
  9 11  1  0  0  0  0
 17 16  1  1  0  0  0
 17 18  1  0  0  0  0
 17 24  1  0  0  0  0
 18 19  1  0  0  0  0
 18 25  1  1  0  0  0
 19 20  1  0  0  0  0
 19 26  1  6  0  0  0
 20 21  1  0  0  0  0
 20 23  1  1  0  0  0
 21 22  1  6  0  0  0
 21 24  1  0  0  0  0
 22 27  1  0  0  0  0
 28 12  1  1  0  0  0
 28 29  1  0  0  0  0
 28 33  1  0  0  0  0
 29 30  1  0  0  0  0
 29 36  1  6  0  0  0
 30 31  1  0  0  0  0
 30 37  1  6  0  0  0
 31 32  1  0  0  0  0
 31 34  1  6  0  0  0
 32 33  1  0  0  0  0
 33 35  1  1  0  0  0
M  END
>  <CHROM.1>
74.19460170,62.42957288,-74.23192984,-129.57189295,63.53763201,109.45155763
35.82826176,7.51801203,16.37269702,-2.55680024,0.53494586,-0.05319710

>  <Name>
1yrj_lig

>  <RI>
0

>  <Rbt.Current_Directory>
/home/itssahil/PROJECTS/Mol_Feturizer/New_Systems/rnas/1yrj

>  <Rbt.Executable>
rbdock ($Id: //depot/dev/client3/rdock/2013.1/src/exe/rbdock.cxx#4 $)

>  <Rbt.Library>
libRbt.so (2013.1, Build901 2013/11/27)

>  <Rbt.Parameter_File>
/export/apps/rDock/src/rDock_2013.1_src/data/scripts/dock_solv.prm

>  <Rbt.Receptor>
prm/blind_docking_60.prm

>  <SCORE>
-14.6062

>  <SCORE.INTER>
-15.6946

>  <SCORE.INTER.CONST>
1

>  <SCORE.INTER.POLAR>
-1.84616

>  <SCORE.INTER.ROT>
6

>  <SCORE.INTER.SOLV>
14.0232

>  <SCORE.INTER.VDW>
-16.5836

>  <SCORE.INTER.norm>
-0.424178

>  <SCORE.INTRA>
1.08841

>  <SCORE.INTRA.DIHEDRAL>
-0.217176

>  <SCORE.INTRA.DIHEDRAL.0>
15.6389

>  <SCORE.INTRA.POLAR>
0

>  <SCORE.INTRA.POLAR.0>
0

>  <SCORE.INTRA.REPUL>
0.0110058

>  <SCORE.INTRA.REPUL.0>
0

>  <SCORE.INTRA.SOLV>
3.14143

>  <SCORE.INTRA.SOLV.lig_0>
-90.9181

>  <SCORE.INTRA.VDW>
-0.42875

>  <SCORE.INTRA.VDW.0>
-3.14158

>  <SCORE.INTRA.norm>
0.0294164

>  <SCORE.RESTR>
0

>  <SCORE.RESTR.CAVITY>
0

>  <SCORE.RESTR.norm>
0

>  <SCORE.SYSTEM>
0

>  <SCORE.SYSTEM.CONST>
0

>  <SCORE.SYSTEM.DIHEDRAL>
0

>  <SCORE.SYSTEM.SOLV>
0

>  <SCORE.SYSTEM.norm>
0

>  <SCORE.heavy>
37

>  <SCORE.norm>
-0.394761

>  <RMSD>
12.439

$$$$
1yrj_lig
 OpenBabel11021811423D
libRbt.so/2013.1/901 2013/11/27
 37 40  0  0  0  0  0  0  0  0999 V2000
   34.4011    4.1723   17.7755 C   0  0  1  0  0  0  0  0  0  0  0  0
   35.9002    3.8408   17.9108 C   0  0  1  0  0  0  0  0  0  0  0  0
   36.7872    5.0194   17.4789 C   0  0  0  0  0  0  0  0  0  0  0  0
   36.4214    5.4600   16.0375 C   0  0  1  0  0  0  0  0  0  0  0  0
   34.9278    5.8294   15.9617 C   0  0  1  0  0  0  0  0  0  0  0  0
   34.5835    6.2883   14.4822 C   0  0  1  0  0  0  0  0  0  0  0  0
   35.4509    7.4989   14.1007 C   0  0  1  0  0  0  0  0  0  0  0  0
   36.9376    7.0909   14.2403 C   0  0  2  0  0  0  0  0  0  0  0  0
   34.0860    9.0679   12.6235 C   0  0  0  0  0  0  0  0  0  0  0  0
   36.2481    3.4158   19.2766 N   0  0  0  0  0  0  0  0  0  0  0  0
   35.0969    7.9694   12.7256 N   0  0  0  0  0  0  0  0  0  0  0  0
   33.9142    5.0699   18.7906 O   0  0  0  0  0  0  0  0  0  0  0  0
   34.1384    4.6639   16.4088 O   0  0  0  0  0  0  0  0  0  0  0  0
   37.2236    6.6206   15.5880 O   0  0  0  0  0  0  0  0  0  0  0  0
   34.8975    5.2460   13.5825 O   0  0  0  0  0  0  0  0  0  0  0  0
   37.8176    8.1811   13.9633 O   0  0  0  0  0  0  0  0  0  0  0  0
   37.3267    9.4505   14.4545 C   0  0  2  0  0  0  0  0  0  0  0  0
   37.9664   10.6621   13.7570 C   0  0  1  0  0  0  0  0  0  0  0  0
   39.4627   10.8045   14.1428 C   0  0  2  0  0  0  0  0  0  0  0  0
   39.5979   10.9246   15.6435 C   0  0  1  0  0  0  0  0  0  0  0  0
   38.9724    9.6786   16.3141 C   0  0  1  0  0  0  0  0  0  0  0  0
   39.0220    9.7391   17.8391 C   0  0  0  0  0  0  0  0  0  0  0  0
   41.0311   11.0538   15.9794 N   0  0  0  0  0  0  0  0  0  0  0  0
   37.5589    9.5602   15.9136 O   0  0  0  0  0  0  0  0  0  0  0  0
   37.7824   10.5177   12.3412 O   0  0  0  0  0  0  0  0  0  0  0  0
   40.0074   11.9844   13.5359 O   0  0  0  0  0  0  0  0  0  0  0  0
   40.2876    9.3263   18.2816 O   0  0  0  0  0  0  0  0  0  0  0  0
   33.0836    6.3106   18.4989 C   0  0  1  0  0  0  0  0  0  0  0  0
   31.6158    5.9646   18.8334 C   0  0  1  0  0  0  0  0  0  0  0  0
   30.6922    7.1905   18.6328 C   0  0  2  0  0  0  0  0  0  0  0  0
   31.1617    8.3504   19.5189 C   0  0  1  0  0  0  0  0  0  0  0  0
   32.6224    8.7331   19.1684 C   0  0  0  0  0  0  0  0  0  0  0  0
   33.5205    7.5114   19.3893 C   0  0  2  0  0  0  0  0  0  0  0  0
   30.2814    9.5224   19.3140 N   0  0  0  0  0  0  0  0  0  0  0  0
   34.8861    7.9163   19.0667 N   0  0  0  0  0  0  0  0  0  0  0  0
   31.1708    4.9037   17.9601 O   0  0  0  0  0  0  0  0  0  0  0  0
   29.3416    6.8185   18.9822 O   0  0  0  0  0  0  0  0  0  0  0  0
  1  2  1  0  0  0  0
  1 12  1  1  0  0  0
  1 13  1  0  0  0  0
  2  3  1  0  0  0  0
  2 10  1  1  0  0  0
  4  3  1  1  0  0  0
  4  5  1  0  0  0  0
  4 14  1  0  0  0  0
  5  6  1  0  0  0  0
  5 13  1  6  0  0  0
  6  7  1  0  0  0  0
  6 15  1  6  0  0  0
  7  8  1  0  0  0  0
  7 11  1  6  0  0  0
  8 14  1  0  0  0  0
  8 16  1  1  0  0  0
  9 11  1  0  0  0  0
 17 16  1  6  0  0  0
 17 18  1  0  0  0  0
 17 24  1  0  0  0  0
 18 19  1  0  0  0  0
 18 25  1  6  0  0  0
 19 20  1  0  0  0  0
 19 26  1  6  0  0  0
 20 21  1  0  0  0  0
 20 23  1  6  0  0  0
 21 22  1  1  0  0  0
 21 24  1  0  0  0  0
 22 27  1  0  0  0  0
 28 12  1  1  0  0  0
 28 29  1  0  0  0  0
 28 33  1  0  0  0  0
 29 30  1  0  0  0  0
 29 36  1  6  0  0  0
 30 31  1  0  0  0  0
 30 37  1  1  0  0  0
 31 32  1  0  0  0  0
 31 34  1  6  0  0  0
 32 33  1  0  0  0  0
 33 35  1  6  0  0  0
M  END
>  <CHROM.1>
131.08042543,94.01583635,37.78532575,-159.38137045,-82.05615877,102.36837718
35.58665216,7.63524060,16.41769243,-2.94628209,0.66253704,0.47659034

>  <Name>
1yrj_lig

>  <RI>
0

>  <Rbt.Current_Directory>
/home/itssahil/PROJECTS/Mol_Feturizer/New_Systems/rnas/1yrj

>  <Rbt.Executable>
rbdock ($Id: //depot/dev/client3/rdock/2013.1/src/exe/rbdock.cxx#4 $)

>  <Rbt.Library>
libRbt.so (2013.1, Build901 2013/11/27)

>  <Rbt.Parameter_File>
/export/apps/rDock/src/rDock_2013.1_src/data/scripts/dock_solv.prm

>  <Rbt.Receptor>
prm/blind_docking_60.prm

>  <SCORE>
-11.3577

>  <SCORE.INTER>
-14.4806

>  <SCORE.INTER.CONST>
1

>  <SCORE.INTER.POLAR>
-3.14693

>  <SCORE.INTER.ROT>
6

>  <SCORE.INTER.SOLV>
16.7286

>  <SCORE.INTER.VDW>
-12.3402

>  <SCORE.INTER.norm>
-0.391368

>  <SCORE.INTRA>
2.37986

>  <SCORE.INTRA.DIHEDRAL>
3.06308

>  <SCORE.INTRA.DIHEDRAL.0>
15.6389

>  <SCORE.INTRA.POLAR>
0

>  <SCORE.INTRA.POLAR.0>
0

>  <SCORE.INTRA.REPUL>
0.00156568

>  <SCORE.INTRA.REPUL.0>
0

>  <SCORE.INTRA.SOLV>
0.80479

>  <SCORE.INTRA.SOLV.lig_0>
-90.9181

>  <SCORE.INTRA.VDW>
0.438098

>  <SCORE.INTRA.VDW.0>
-3.14158

>  <SCORE.INTRA.norm>
0.0643205

>  <SCORE.RESTR>
0.743071

>  <SCORE.RESTR.CAVITY>
0.743071

>  <SCORE.RESTR.norm>
0.020083

>  <SCORE.SYSTEM>
0

>  <SCORE.SYSTEM.CONST>
0

>  <SCORE.SYSTEM.DIHEDRAL>
0

>  <SCORE.SYSTEM.SOLV>
0

>  <SCORE.SYSTEM.norm>
0

>  <SCORE.heavy>
37

>  <SCORE.norm>
-0.306965

>  <RMSD>
12.452

$$$$
1yrj_lig
 OpenBabel11021811423D
libRbt.so/2013.1/901 2013/11/27
 37 40  0  0  0  0  0  0  0  0999 V2000
   33.5600    3.5782   17.0770 C   0  0  1  0  0  0  0  0  0  0  0  0
   34.9298    3.3222   17.7356 C   0  0  1  0  0  0  0  0  0  0  0  0
   35.7436    4.6177   17.8838 C   0  0  0  0  0  0  0  0  0  0  0  0
   35.8869    5.3162   16.5064 C   0  0  1  0  0  0  0  0  0  0  0  0
   34.4947    5.5975   15.9100 C   0  0  1  0  0  0  0  0  0  0  0  0
   34.6695    6.3229   14.5095 C   0  0  1  0  0  0  0  0  0  0  0  0
   35.4420    7.6383   14.7007 C   0  0  1  0  0  0  0  0  0  0  0  0
   36.8093    7.3059   15.3460 C   0  0  2  0  0  0  0  0  0  0  0  0
   36.8194    9.1410   13.1674 C   0  0  0  0  0  0  0  0  0  0  0  0
   34.7961    2.6531   19.0400 N   0  0  0  0  0  0  0  0  0  0  0  0
   35.5673    8.3532   13.3928 N   0  0  0  0  0  0  0  0  0  0  0  0
   32.6108    4.2195   17.9492 O   0  0  0  0  0  0  0  0  0  0  0  0
   33.7630    4.3180   15.8160 O   0  0  0  0  0  0  0  0  0  0  0  0
   36.6318    6.5923   16.6023 O   0  0  0  0  0  0  0  0  0  0  0  0
   35.4369    5.5059   13.6504 O   0  0  0  0  0  0  0  0  0  0  0  0
   37.5707    8.4833   15.6173 O   0  0  0  0  0  0  0  0  0  0  0  0
   38.7805    8.2212   16.3665 C   0  0  2  0  0  0  0  0  0  0  0  0
   39.1079    9.3146   17.3965 C   0  0  1  0  0  0  0  0  0  0  0  0
   39.5260   10.6354   16.6972 C   0  0  2  0  0  0  0  0  0  0  0  0
   40.7120   10.3860   15.7938 C   0  0  1  0  0  0  0  0  0  0  0  0
   40.3418    9.3042   14.7517 C   0  0  1  0  0  0  0  0  0  0  0  0
   41.5030    8.9536   13.8239 C   0  0  0  0  0  0  0  0  0  0  0  0
   41.0829   11.6582   15.1400 N   0  0  0  0  0  0  0  0  0  0  0  0
   39.9313    8.0705   15.4458 O   0  0  0  0  0  0  0  0  0  0  0  0
   37.9665    9.4895   18.2484 O   0  0  0  0  0  0  0  0  0  0  0  0
   39.8960   11.6079   17.6843 O   0  0  0  0  0  0  0  0  0  0  0  0
   41.0845    7.9869   12.8974 O   0  0  0  0  0  0  0  0  0  0  0  0
   32.7638    5.6398   18.4726 C   0  0  1  0  0  0  0  0  0  0  0  0
   31.5328    6.4380   17.9894 C   0  0  1  0  0  0  0  0  0  0  0  0
   31.5595    7.8886   18.5291 C   0  0  2  0  0  0  0  0  0  0  0  0
   31.5952    7.8765   20.0619 C   0  0  1  0  0  0  0  0  0  0  0  0
   32.8464    7.1097   20.5611 C   0  0  0  0  0  0  0  0  0  0  0  0
   32.7914    5.6736   20.0295 C   0  0  2  0  0  0  0  0  0  0  0  0
   31.6319    9.2659   20.5707 N   0  0  0  0  0  0  0  0  0  0  0  0
   33.9738    4.9812   20.5346 N   0  0  0  0  0  0  0  0  0  0  0  0
   31.5367    6.4824   16.5459 O   0  0  0  0  0  0  0  0  0  0  0  0
   30.3778    8.5788   18.0688 O   0  0  0  0  0  0  0  0  0  0  0  0
  1  2  1  0  0  0  0
  1 12  1  1  0  0  0
  1 13  1  0  0  0  0
  2  3  1  0  0  0  0
  2 10  1  1  0  0  0
  4  3  1  1  0  0  0
  4  5  1  0  0  0  0
  4 14  1  0  0  0  0
  5  6  1  0  0  0  0
  5 13  1  6  0  0  0
  6  7  1  0  0  0  0
  6 15  1  6  0  0  0
  7  8  1  0  0  0  0
  7 11  1  6  0  0  0
  8 14  1  0  0  0  0
  8 16  1  1  0  0  0
  9 11  1  0  0  0  0
 17 16  1  6  0  0  0
 17 18  1  0  0  0  0
 17 24  1  0  0  0  0
 18 19  1  0  0  0  0
 18 25  1  6  0  0  0
 19 20  1  0  0  0  0
 19 26  1  1  0  0  0
 20 21  1  0  0  0  0
 20 23  1  6  0  0  0
 21 22  1  6  0  0  0
 21 24  1  0  0  0  0
 22 27  1  0  0  0  0
 28 12  1  1  0  0  0
 28 29  1  0  0  0  0
 28 33  1  0  0  0  0
 29 30  1  0  0  0  0
 29 36  1  6  0  0  0
 30 31  1  0  0  0  0
 30 37  1  1  0  0  0
 31 32  1  0  0  0  0
 31 34  1  6  0  0  0
 32 33  1  0  0  0  0
 33 35  1  6  0  0  0
M  END
>  <CHROM.1>
66.33420205,-146.32744217,172.92236980,-142.66189081,-179.01453273,120.43418057
35.83923465,7.27236067,16.73581499,-3.04483193,0.58589615,0.64824619

>  <Name>
1yrj_lig

>  <RI>
0

>  <Rbt.Current_Directory>
/home/itssahil/PROJECTS/Mol_Feturizer/New_Systems/rnas/1yrj

>  <Rbt.Executable>
rbdock ($Id: //depot/dev/client3/rdock/2013.1/src/exe/rbdock.cxx#4 $)

>  <Rbt.Library>
libRbt.so (2013.1, Build901 2013/11/27)

>  <Rbt.Parameter_File>
/export/apps/rDock/src/rDock_2013.1_src/data/scripts/dock_solv.prm

>  <Rbt.Receptor>
prm/blind_docking_60.prm

>  <SCORE>
-12.2395

>  <SCORE.INTER>
-16.2007

>  <SCORE.INTER.CONST>
1

>  <SCORE.INTER.POLAR>
-1.71889

>  <SCORE.INTER.ROT>
6

>  <SCORE.INTER.SOLV>
12.769

>  <SCORE.INTER.VDW>
-16.9272

>  <SCORE.INTER.norm>
-0.437858

>  <SCORE.INTRA>
3.49473

>  <SCORE.INTRA.DIHEDRAL>
-2.26162

>  <SCORE.INTRA.DIHEDRAL.0>
15.6389

>  <SCORE.INTRA.POLAR>
0

>  <SCORE.INTRA.POLAR.0>
0

>  <SCORE.INTRA.REPUL>
0

>  <SCORE.INTRA.REPUL.0>
0

>  <SCORE.INTRA.SOLV>
2.5225

>  <SCORE.INTRA.SOLV.lig_0>
-90.9181

>  <SCORE.INTRA.VDW>
3.36429

>  <SCORE.INTRA.VDW.0>
-3.14158

>  <SCORE.INTRA.norm>
0.0944522

>  <SCORE.RESTR>
0.466479

>  <SCORE.RESTR.CAVITY>
0.466479

>  <SCORE.RESTR.norm>
0.0126075

>  <SCORE.SYSTEM>
0

>  <SCORE.SYSTEM.CONST>
0

>  <SCORE.SYSTEM.DIHEDRAL>
0

>  <SCORE.SYSTEM.SOLV>
0

>  <SCORE.SYSTEM.norm>
0

>  <SCORE.heavy>
37

>  <SCORE.norm>
-0.330798

>  <RMSD>
12.479

$$$$
1yrj_lig
 OpenBabel11021811423D
libRbt.so/2013.1/901 2013/11/27
 37 40  0  0  0  0  0  0  0  0999 V2000
   34.0779    3.8333   17.5890 C   0  0  1  0  0  0  0  0  0  0  0  0
   35.5626    3.6484   17.9588 C   0  0  1  0  0  0  0  0  0  0  0  0
   36.3768    4.9284   17.7117 C   0  0  0  0  0  0  0  0  0  0  0  0
   36.2015    5.3949   16.2429 C   0  0  1  0  0  0  0  0  0  0  0  0
   34.7086    5.6154   15.9338 C   0  0  1  0  0  0  0  0  0  0  0  0
   34.5587    6.1040   14.4315 C   0  0  1  0  0  0  0  0  0  0  0  0
   35.3421    7.4116   14.2318 C   0  0  1  0  0  0  0  0  0  0  0  0
   36.8222    7.1491   14.6016 C   0  0  2  0  0  0  0  0  0  0  0  0
   34.1626    8.9966   12.6183 C   0  0  0  0  0  0  0  0  0  0  0  0
   35.7306    3.1990   19.3505 N   0  0  0  0  0  0  0  0  0  0  0  0
   35.1647    7.9059   12.8312 N   0  0  0  0  0  0  0  0  0  0  0  0
   33.3420    4.6306   18.5356 O   0  0  0  0  0  0  0  0  0  0  0  0
   33.9865    4.3575   16.2122 O   0  0  0  0  0  0  0  0  0  0  0  0
   36.9372    6.6494   15.9640 O   0  0  0  0  0  0  0  0  0  0  0  0
   35.1218    5.1403   13.5662 O   0  0  0  0  0  0  0  0  0  0  0  0
   37.6139    8.3336   14.5036 O   0  0  0  0  0  0  0  0  0  0  0  0
   37.0359    9.4660   15.1945 C   0  0  2  0  0  0  0  0  0  0  0  0
   37.9611   10.6933   15.2327 C   0  0  1  0  0  0  0  0  0  0  0  0
   39.1890   10.4404   16.1473 C   0  0  2  0  0  0  0  0  0  0  0  0
   38.7271   10.0813   17.5410 C   0  0  1  0  0  0  0  0  0  0  0  0
   37.8238    8.8272   17.4726 C   0  0  1  0  0  0  0  0  0  0  0  0
   37.2706    8.4205   18.8365 C   0  0  0  0  0  0  0  0  0  0  0  0
   39.9160    9.8424   18.3853 N   0  0  0  0  0  0  0  0  0  0  0  0
   36.6789    9.0919   16.5828 O   0  0  0  0  0  0  0  0  0  0  0  0
   38.3434   11.0131   13.8871 O   0  0  0  0  0  0  0  0  0  0  0  0
   39.9895   11.6282   16.2197 O   0  0  0  0  0  0  0  0  0  0  0  0
   36.4259    9.4317   19.3180 O   0  0  0  0  0  0  0  0  0  0  0  0
   33.4479    6.1451   18.6333 C   0  0  1  0  0  0  0  0  0  0  0  0
   32.1487    6.7315   18.0380 C   0  0  1  0  0  0  0  0  0  0  0  0
   32.1279    8.2751   18.1520 C   0  0  2  0  0  0  0  0  0  0  0  0
   32.2548    8.6935   19.6217 C   0  0  1  0  0  0  0  0  0  0  0  0
   33.5733    8.1424   20.2221 C   0  0  0  0  0  0  0  0  0  0  0  0
   33.5655    6.6140   20.1138 C   0  0  2  0  0  0  0  0  0  0  0  0
   32.2454   10.1700   19.7223 N   0  0  0  0  0  0  0  0  0  0  0  0
   34.8118    6.1335   20.7043 N   0  0  0  0  0  0  0  0  0  0  0  0
   32.0649    6.3706   16.6421 O   0  0  0  0  0  0  0  0  0  0  0  0
   30.8851    8.7660   17.6051 O   0  0  0  0  0  0  0  0  0  0  0  0
  1  2  1  0  0  0  0
  1 12  1  1  0  0  0
  1 13  1  0  0  0  0
  2  3  1  0  0  0  0
  2 10  1  1  0  0  0
  4  3  1  1  0  0  0
  4  5  1  0  0  0  0
  4 14  1  0  0  0  0
  5  6  1  0  0  0  0
  5 13  1  6  0  0  0
  6  7  1  0  0  0  0
  6 15  1  6  0  0  0
  7  8  1  0  0  0  0
  7 11  1  6  0  0  0
  8 14  1  0  0  0  0
  8 16  1  1  0  0  0
  9 11  1  0  0  0  0
 17 16  1  1  0  0  0
 17 18  1  0  0  0  0
 17 24  1  0  0  0  0
 18 19  1  0  0  0  0
 18 25  1  6  0  0  0
 19 20  1  0  0  0  0
 19 26  1  1  0  0  0
 20 21  1  0  0  0  0
 20 23  1  1  0  0  0
 21 22  1  1  0  0  0
 21 24  1  0  0  0  0
 22 27  1  0  0  0  0
 28 12  1  1  0  0  0
 28 29  1  0  0  0  0
 28 33  1  0  0  0  0
 29 30  1  0  0  0  0
 29 36  1  6  0  0  0
 30 31  1  0  0  0  0
 30 37  1  1  0  0  0
 31 32  1  0  0  0  0
 31 34  1  6  0  0  0
 32 33  1  0  0  0  0
 33 35  1  6  0  0  0
M  END
>  <CHROM.1>
75.78151591,99.76596582,50.00816826,173.17562121,64.30183158,106.28139873
35.46963091,7.53916021,16.89957563,3.05516810,0.77424719,1.09339753

>  <Name>
1yrj_lig

>  <RI>
0

>  <Rbt.Current_Directory>
/home/itssahil/PROJECTS/Mol_Feturizer/New_Systems/rnas/1yrj

>  <Rbt.Executable>
rbdock ($Id: //depot/dev/client3/rdock/2013.1/src/exe/rbdock.cxx#4 $)

>  <Rbt.Library>
libRbt.so (2013.1, Build901 2013/11/27)

>  <Rbt.Parameter_File>
/export/apps/rDock/src/rDock_2013.1_src/data/scripts/dock_solv.prm

>  <Rbt.Receptor>
prm/blind_docking_60.prm

>  <SCORE>
-20.5474

>  <SCORE.INTER>
-18.3793

>  <SCORE.INTER.CONST>
1

>  <SCORE.INTER.POLAR>
-3.10732

>  <SCORE.INTER.ROT>
6

>  <SCORE.INTER.SOLV>
19.3751

>  <SCORE.INTER.VDW>
-15.9535

>  <SCORE.INTER.norm>
-0.496739

>  <SCORE.INTRA>
-2.2584

>  <SCORE.INTRA.DIHEDRAL>
-6.4224

>  <SCORE.INTRA.DIHEDRAL.0>
15.6389

>  <SCORE.INTRA.POLAR>
0

>  <SCORE.INTRA.POLAR.0>
0

>  <SCORE.INTRA.REPUL>
0

>  <SCORE.INTRA.REPUL.0>
0

>  <SCORE.INTRA.SOLV>
3.72804

>  <SCORE.INTRA.SOLV.lig_0>
-90.9181

>  <SCORE.INTRA.VDW>
-0.911221

>  <SCORE.INTRA.VDW.0>
-3.14158

>  <SCORE.INTRA.norm>
-0.0610379

>  <SCORE.RESTR>
0.0903283

>  <SCORE.RESTR.CAVITY>
0.0903283

>  <SCORE.RESTR.norm>
0.0024413

>  <SCORE.SYSTEM>
0

>  <SCORE.SYSTEM.CONST>
0

>  <SCORE.SYSTEM.DIHEDRAL>
0

>  <SCORE.SYSTEM.SOLV>
0

>  <SCORE.SYSTEM.norm>
0

>  <SCORE.heavy>
37

>  <SCORE.norm>
-0.555335

>  <RMSD>
12.520

$$$$
1yrj_lig
 OpenBabel11021811423D
libRbt.so/2013.1/901 2013/11/27
 37 40  0  0  0  0  0  0  0  0999 V2000
   33.9393    4.1203   17.6657 C   0  0  1  0  0  0  0  0  0  0  0  0
   35.3989    3.7169   17.9525 C   0  0  1  0  0  0  0  0  0  0  0  0
   36.3814    4.8502   17.6167 C   0  0  0  0  0  0  0  0  0  0  0  0
   36.1864    5.3050   16.1467 C   0  0  1  0  0  0  0  0  0  0  0  0
   34.7280    5.7460   15.9198 C   0  0  1  0  0  0  0  0  0  0  0  0
   34.5593    6.2179   14.4142 C   0  0  1  0  0  0  0  0  0  0  0  0
   35.5186    7.3843   14.1266 C   0  0  1  0  0  0  0  0  0  0  0  0
   36.9618    6.9051   14.4162 C   0  0  2  0  0  0  0  0  0  0  0  0
   34.3123    8.9439   12.5082 C   0  0  0  0  0  0  0  0  0  0  0  0
   35.5845    3.2785   19.3455 N   0  0  0  0  0  0  0  0  0  0  0  0
   35.3301    7.8683   12.7239 N   0  0  0  0  0  0  0  0  0  0  0  0
   33.3953    5.0426   18.6282 O   0  0  0  0  0  0  0  0  0  0  0  0
   33.8416    4.6211   16.2807 O   0  0  0  0  0  0  0  0  0  0  0  0
   37.0855    6.4244   15.7847 O   0  0  0  0  0  0  0  0  0  0  0  0
   34.9127    5.1596   13.5483 O   0  0  0  0  0  0  0  0  0  0  0  0
   37.9171    7.9508   14.2335 O   0  0  0  0  0  0  0  0  0  0  0  0
   38.0548    8.8075   15.3914 C   0  0  2  0  0  0  0  0  0  0  0  0
   37.4228   10.1959   15.2004 C   0  0  1  0  0  0  0  0  0  0  0  0
   38.2206   11.0370   14.1687 C   0  0  2  0  0  0  0  0  0  0  0  0
   39.6596   11.1663   14.6129 C   0  0  1  0  0  0  0  0  0  0  0  0
   40.2753    9.7554   14.7673 C   0  0  1  0  0  0  0  0  0  0  0  0
   41.7195    9.7903   15.2620 C   0  0  0  0  0  0  0  0  0  0  0  0
   40.3930   11.9664   13.6103 N   0  0  0  0  0  0  0  0  0  0  0  0
   39.4854    8.9760   15.7374 O   0  0  0  0  0  0  0  0  0  0  0  0
   36.0525   10.0194   14.8130 O   0  0  0  0  0  0  0  0  0  0  0  0
   37.6496   12.3491   14.0709 O   0  0  0  0  0  0  0  0  0  0  0  0
   42.1453    8.4854   15.5515 O   0  0  0  0  0  0  0  0  0  0  0  0
   32.3550    6.1016   18.2952 C   0  0  1  0  0  0  0  0  0  0  0  0
   31.0715    5.7397   19.0747 C   0  0  1  0  0  0  0  0  0  0  0  0
   29.9656    6.8003   18.8550 C   0  0  2  0  0  0  0  0  0  0  0  0
   30.4664    8.1791   19.3010 C   0  0  1  0  0  0  0  0  0  0  0  0
   31.7342    8.5718   18.5002 C   0  0  0  0  0  0  0  0  0  0  0  0
   32.8198    7.5185   18.7447 C   0  0  2  0  0  0  0  0  0  0  0  0
   29.4086    9.1899   19.0780 N   0  0  0  0  0  0  0  0  0  0  0  0
   33.9998    7.9322   17.9901 N   0  0  0  0  0  0  0  0  0  0  0  0
   30.5836    4.4615   18.6119 O   0  0  0  0  0  0  0  0  0  0  0  0
   28.8019    6.4261   19.6233 O   0  0  0  0  0  0  0  0  0  0  0  0
  1  2  1  0  0  0  0
  1 12  1  1  0  0  0
  1 13  1  0  0  0  0
  2  3  1  0  0  0  0
  2 10  1  1  0  0  0
  4  3  1  1  0  0  0
  4  5  1  0  0  0  0
  4 14  1  0  0  0  0
  5  6  1  0  0  0  0
  5 13  1  6  0  0  0
  6  7  1  0  0  0  0
  6 15  1  6  0  0  0
  7  8  1  0  0  0  0
  7 11  1  6  0  0  0
  8 14  1  0  0  0  0
  8 16  1  1  0  0  0
  9 11  1  0  0  0  0
 17 16  1  6  0  0  0
 17 18  1  0  0  0  0
 17 24  1  0  0  0  0
 18 19  1  0  0  0  0
 18 25  1  6  0  0  0
 19 20  1  0  0  0  0
 19 26  1  1  0  0  0
 20 21  1  0  0  0  0
 20 23  1  6  0  0  0
 21 22  1  1  0  0  0
 21 24  1  0  0  0  0
 22 27  1  0  0  0  0
 28 12  1  1  0  0  0
 28 29  1  0  0  0  0
 28 33  1  0  0  0  0
 29 30  1  0  0  0  0
 29 36  1  6  0  0  0
 30 31  1  0  0  0  0
 30 37  1  1  0  0  0
 31 32  1  0  0  0  0
 31 34  1  6  0  0  0
 32 33  1  0  0  0  0
 33 35  1  6  0  0  0
M  END
>  <CHROM.1>
148.28590011,89.49769978,83.79537297,-106.93811381,171.95426444,115.12806702
35.37623773,7.48508609,16.26568202,-2.62348534,0.35539845,-0.27944201

>  <Name>
1yrj_lig

>  <RI>
224

>  <Rbt.Current_Directory>
/home/itssahil/PROJECTS/Mol_Feturizer/New_Systems/rnas/1yrj

>  <Rbt.Executable>
rbdock ($Id: //depot/dev/client3/rdock/2013.1/src/exe/rbdock.cxx#4 $)

>  <Rbt.Library>
libRbt.so (2013.1, Build901 2013/11/27)

>  <Rbt.Parameter_File>
/export/apps/rDock/src/rDock_2013.1_src/data/scripts/dock_solv.prm

>  <Rbt.Receptor>
prm/blind_docking_80.prm

>  <SCORE>
-14.3351

>  <SCORE.INTER>
-18.1828

>  <SCORE.INTER.CONST>
1

>  <SCORE.INTER.POLAR>
-2.82908

>  <SCORE.INTER.ROT>
6

>  <SCORE.INTER.SOLV>
14.1183

>  <SCORE.INTER.VDW>
-14.9977

>  <SCORE.INTER.norm>
-0.491428

>  <SCORE.INTRA>
3.78419

>  <SCORE.INTRA.DIHEDRAL>
5.00104

>  <SCORE.INTRA.DIHEDRAL.0>
15.6389

>  <SCORE.INTRA.POLAR>
0

>  <SCORE.INTRA.POLAR.0>
0

>  <SCORE.INTRA.REPUL>
0

>  <SCORE.INTRA.REPUL.0>
0

>  <SCORE.INTRA.SOLV>
1.61946

>  <SCORE.INTRA.SOLV.lig_0>
-90.9181

>  <SCORE.INTRA.VDW>
0.473941

>  <SCORE.INTRA.VDW.0>
-3.14158

>  <SCORE.INTRA.norm>
0.102275

>  <SCORE.RESTR>
0.0635892

>  <SCORE.RESTR.CAVITY>
0.0635892

>  <SCORE.RESTR.norm>
0.00171863

>  <SCORE.SYSTEM>
0

>  <SCORE.SYSTEM.CONST>
0

>  <SCORE.SYSTEM.DIHEDRAL>
0

>  <SCORE.SYSTEM.SOLV>
0

>  <SCORE.SYSTEM.norm>
0

>  <SCORE.heavy>
37

>  <SCORE.norm>
-0.387434

>  <RMSD>
12.523

$$$$
1yrj_lig
 OpenBabel11021811423D
libRbt.so/2013.1/901 2013/11/27
 37 40  0  0  0  0  0  0  0  0999 V2000
   33.5050    3.8311   17.2829 C   0  0  1  0  0  0  0  0  0  0  0  0
   34.9176    3.7295   17.8911 C   0  0  1  0  0  0  0  0  0  0  0  0
   35.6849    5.0565   17.7788 C   0  0  0  0  0  0  0  0  0  0  0  0
   35.7252    5.5241   16.3004 C   0  0  1  0  0  0  0  0  0  0  0  0
   34.2925    5.6602   15.7508 C   0  0  1  0  0  0  0  0  0  0  0  0
   34.3620    6.1515   14.2436 C   0  0  1  0  0  0  0  0  0  0  0  0
   35.0896    7.5039   14.1728 C   0  0  1  0  0  0  0  0  0  0  0  0
   36.5021    7.3246   14.7804 C   0  0  2  0  0  0  0  0  0  0  0  0
   36.3245    8.7689   12.3340 C   0  0  0  0  0  0  0  0  0  0  0  0
   34.8818    3.2792   19.2922 N   0  0  0  0  0  0  0  0  0  0  0  0
   35.1150    7.9985   12.7614 N   0  0  0  0  0  0  0  0  0  0  0  0
   32.5789    4.5767   18.0951 O   0  0  0  0  0  0  0  0  0  0  0  0
   33.6095    4.3603   15.9090 O   0  0  0  0  0  0  0  0  0  0  0  0
   36.4218    6.8213   16.1440 O   0  0  0  0  0  0  0  0  0  0  0  0
   35.1144    5.2291   13.4835 O   0  0  0  0  0  0  0  0  0  0  0  0
   37.2286    8.5538   14.8116 O   0  0  0  0  0  0  0  0  0  0  0  0
   38.6550    8.3704   14.9705 C   0  0  2  0  0  0  0  0  0  0  0  0
   39.1349    8.5538   16.4196 C   0  0  1  0  0  0  0  0  0  0  0  0
   39.0207   10.0363   16.8638 C   0  0  2  0  0  0  0  0  0  0  0  0
   39.8154   10.9168   15.9268 C   0  0  1  0  0  0  0  0  0  0  0  0
   39.2899   10.7322   14.4835 C   0  0  1  0  0  0  0  0  0  0  0  0
   40.0713   11.5521   13.4592 C   0  0  0  0  0  0  0  0  0  0  0  0
   39.6836   12.3196   16.3720 N   0  0  0  0  0  0  0  0  0  0  0  0
   39.3935    9.3133   14.0985 O   0  0  0  0  0  0  0  0  0  0  0  0
   38.3754    7.6748   17.2619 O   0  0  0  0  0  0  0  0  0  0  0  0
   39.5455   10.1844   18.1903 O   0  0  0  0  0  0  0  0  0  0  0  0
   39.8213   12.9170   13.6653 O   0  0  0  0  0  0  0  0  0  0  0  0
   32.7774    6.0324   18.4898 C   0  0  1  0  0  0  0  0  0  0  0  0
   31.5359    6.8101   18.0001 C   0  0  1  0  0  0  0  0  0  0  0  0
   31.6094    8.2997   18.4144 C   0  0  2  0  0  0  0  0  0  0  0  0
   31.7194    8.4144   19.9394 C   0  0  1  0  0  0  0  0  0  0  0  0
   32.9823    7.6689   20.4415 C   0  0  0  0  0  0  0  0  0  0  0  0
   32.8811    6.1950   20.0353 C   0  0  2  0  0  0  0  0  0  0  0  0
   31.8005    9.8403   20.3277 N   0  0  0  0  0  0  0  0  0  0  0  0
   34.0767    5.5254   20.5403 N   0  0  0  0  0  0  0  0  0  0  0  0
   31.4703    6.7344   16.5593 O   0  0  0  0  0  0  0  0  0  0  0  0
   30.4167    8.9708   17.9542 O   0  0  0  0  0  0  0  0  0  0  0  0
  1  2  1  0  0  0  0
  1 12  1  1  0  0  0
  1 13  1  0  0  0  0
  2  3  1  0  0  0  0
  2 10  1  1  0  0  0
  4  3  1  1  0  0  0
  4  5  1  0  0  0  0
  4 14  1  0  0  0  0
  5  6  1  0  0  0  0
  5 13  1  6  0  0  0
  6  7  1  0  0  0  0
  6 15  1  6  0  0  0
  7  8  1  0  0  0  0
  7 11  1  6  0  0  0
  8 14  1  0  0  0  0
  8 16  1  1  0  0  0
  9 11  1  0  0  0  0
 17 16  1  1  0  0  0
 17 18  1  0  0  0  0
 17 24  1  0  0  0  0
 18 19  1  0  0  0  0
 18 25  1  1  0  0  0
 19 20  1  0  0  0  0
 19 26  1  1  0  0  0
 20 21  1  0  0  0  0
 20 23  1  1  0  0  0
 21 22  1  6  0  0  0
 21 24  1  0  0  0  0
 22 27  1  0  0  0  0
 28 12  1  1  0  0  0
 28 29  1  0  0  0  0
 28 33  1  0  0  0  0
 29 30  1  0  0  0  0
 29 36  1  6  0  0  0
 30 31  1  0  0  0  0
 30 37  1  1  0  0  0
 31 32  1  0  0  0  0
 31 34  1  6  0  0  0
 32 33  1  0  0  0  0
 33 35  1  6  0  0  0
M  END
>  <CHROM.1>
59.78198713,-145.89174061,-161.84960765,-98.56319692,-68.28142729,123.21708759
35.57146550,7.62475114,16.54379835,-3.07452933,0.71512208,0.77751733

>  <Name>
1yrj_lig

>  <RI>
0

>  <Rbt.Current_Directory>
/home/itssahil/PROJECTS/Mol_Feturizer/New_Systems/rnas/1yrj

>  <Rbt.Executable>
rbdock ($Id: //depot/dev/client3/rdock/2013.1/src/exe/rbdock.cxx#4 $)

>  <Rbt.Library>
libRbt.so (2013.1, Build901 2013/11/27)

>  <Rbt.Parameter_File>
/export/apps/rDock/src/rDock_2013.1_src/data/scripts/dock_solv.prm

>  <Rbt.Receptor>
prm/blind_docking_60.prm

>  <SCORE>
-13.9152

>  <SCORE.INTER>
-20.6333

>  <SCORE.INTER.CONST>
1

>  <SCORE.INTER.POLAR>
-2.67691

>  <SCORE.INTER.ROT>
6

>  <SCORE.INTER.SOLV>
12.5742

>  <SCORE.INTER.VDW>
-16.6239

>  <SCORE.INTER.norm>
-0.557658

>  <SCORE.INTRA>
5.90607

>  <SCORE.INTRA.DIHEDRAL>
-0.785993

>  <SCORE.INTRA.DIHEDRAL.0>
15.6389

>  <SCORE.INTRA.POLAR>
0

>  <SCORE.INTRA.POLAR.0>
0

>  <SCORE.INTRA.REPUL>
0

>  <SCORE.INTRA.REPUL.0>
0

>  <SCORE.INTRA.SOLV>
4.44538

>  <SCORE.INTRA.SOLV.lig_0>
-90.9181

>  <SCORE.INTRA.VDW>
4.07638

>  <SCORE.INTRA.VDW.0>
-3.14158

>  <SCORE.INTRA.norm>
0.159624

>  <SCORE.RESTR>
0.812028

>  <SCORE.RESTR.CAVITY>
0.812028

>  <SCORE.RESTR.norm>
0.0219467

>  <SCORE.SYSTEM>
0

>  <SCORE.SYSTEM.CONST>
0

>  <SCORE.SYSTEM.DIHEDRAL>
0

>  <SCORE.SYSTEM.SOLV>
0

>  <SCORE.SYSTEM.norm>
0

>  <SCORE.heavy>
37

>  <SCORE.norm>
-0.376088

>  <RMSD>
12.621

$$$$
1yrj_lig
 OpenBabel11021811423D
libRbt.so/2013.1/901 2013/11/27
 37 40  0  0  0  0  0  0  0  0999 V2000
   34.3841    3.9720   17.6499 C   0  0  1  0  0  0  0  0  0  0  0  0
   35.8770    3.9545   18.0325 C   0  0  1  0  0  0  0  0  0  0  0  0
   36.5570    5.3021   17.7429 C   0  0  0  0  0  0  0  0  0  0  0  0
   36.3464    5.6957   16.2575 C   0  0  1  0  0  0  0  0  0  0  0  0
   34.8412    5.7498   15.9342 C   0  0  1  0  0  0  0  0  0  0  0  0
   34.6539    6.1667   14.4146 C   0  0  1  0  0  0  0  0  0  0  0  0
   35.3000    7.5403   14.1711 C   0  0  1  0  0  0  0  0  0  0  0  0
   36.7962    7.4452   14.5566 C   0  0  2  0  0  0  0  0  0  0  0  0
   36.1369    8.8289   12.1350 C   0  0  0  0  0  0  0  0  0  0  0  0
   36.0792    3.5745   19.4403 N   0  0  0  0  0  0  0  0  0  0  0  0
   35.0839    7.9636   12.7528 N   0  0  0  0  0  0  0  0  0  0  0  0
   33.5625    4.7222   18.5638 O   0  0  0  0  0  0  0  0  0  0  0  0
   34.2503    4.4347   16.2546 O   0  0  0  0  0  0  0  0  0  0  0  0
   36.9511    7.0087   15.9367 O   0  0  0  0  0  0  0  0  0  0  0  0
   35.3202    5.2361   13.5871 O   0  0  0  0  0  0  0  0  0  0  0  0
   37.4626    8.7009   14.4193 O   0  0  0  0  0  0  0  0  0  0  0  0
   36.7476    9.7975   15.0357 C   0  0  2  0  0  0  0  0  0  0  0  0
   37.4719   11.1472   14.9045 C   0  0  1  0  0  0  0  0  0  0  0  0
   38.7642   11.1749   15.7633 C   0  0  2  0  0  0  0  0  0  0  0  0
   38.4269   10.8927   17.2095 C   0  0  1  0  0  0  0  0  0  0  0  0
   37.7269    9.5169   17.3118 C   0  0  1  0  0  0  0  0  0  0  0  0
   37.3056    9.1713   18.7383 C   0  0  0  0  0  0  0  0  0  0  0  0
   39.6753   10.9212   17.9995 N   0  0  0  0  0  0  0  0  0  0  0  0
   36.5159    9.5158   16.4716 O   0  0  0  0  0  0  0  0  0  0  0  0
   37.7390   11.3836   13.5146 O   0  0  0  0  0  0  0  0  0  0  0  0
   39.3732   12.4705   15.6773 O   0  0  0  0  0  0  0  0  0  0  0  0
   38.4452    9.0721   19.5503 O   0  0  0  0  0  0  0  0  0  0  0  0
   33.5608    6.2409   18.6529 C   0  0  1  0  0  0  0  0  0  0  0  0
   32.2050    6.7280   18.0956 C   0  0  1  0  0  0  0  0  0  0  0  0
   32.0755    8.2666   18.2047 C   0  0  2  0  0  0  0  0  0  0  0  0
   32.2159    8.7015   19.6683 C   0  0  1  0  0  0  0  0  0  0  0  0
   33.5886    8.2511   20.2301 C   0  0  0  0  0  0  0  0  0  0  0  0
   33.6887    6.7255   20.1275 C   0  0  2  0  0  0  0  0  0  0  0  0
   32.1023   10.1741   19.7640 N   0  0  0  0  0  0  0  0  0  0  0  0
   34.9839    6.3402   20.6813 N   0  0  0  0  0  0  0  0  0  0  0  0
   32.1055    6.3539   16.7042 O   0  0  0  0  0  0  0  0  0  0  0  0
   30.7843    8.6629   17.6943 O   0  0  0  0  0  0  0  0  0  0  0  0
  1  2  1  0  0  0  0
  1 12  1  1  0  0  0
  1 13  1  0  0  0  0
  2  3  1  0  0  0  0
  2 10  1  1  0  0  0
  4  3  1  1  0  0  0
  4  5  1  0  0  0  0
  4 14  1  0  0  0  0
  5  6  1  0  0  0  0
  5 13  1  6  0  0  0
  6  7  1  0  0  0  0
  6 15  1  6  0  0  0
  7  8  1  0  0  0  0
  7 11  1  6  0  0  0
  8 14  1  0  0  0  0
  8 16  1  1  0  0  0
  9 11  1  0  0  0  0
 17 16  1  1  0  0  0
 17 18  1  0  0  0  0
 17 24  1  0  0  0  0
 18 19  1  0  0  0  0
 18 25  1  6  0  0  0
 19 20  1  0  0  0  0
 19 26  1  1  0  0  0
 20 21  1  0  0  0  0
 20 23  1  1  0  0  0
 21 22  1  1  0  0  0
 21 24  1  0  0  0  0
 22 27  1  0  0  0  0
 28 12  1  1  0  0  0
 28 29  1  0  0  0  0
 28 33  1  0  0  0  0
 29 30  1  0  0  0  0
 29 36  1  6  0  0  0
 30 31  1  0  0  0  0
 30 37  1  1  0  0  0
 31 32  1  0  0  0  0
 31 34  1  6  0  0  0
 32 33  1  0  0  0  0
 33 35  1  6  0  0  0
M  END
>  <CHROM.1>
72.71384403,-149.63446565,48.45749784,179.26859823,-62.93932078,110.03891068
35.55633886,7.79286227,16.82598572,3.05613323,0.87278684,1.06182016

>  <Name>
1yrj_lig

>  <RI>
0

>  <Rbt.Current_Directory>
/home/itssahil/PROJECTS/Mol_Feturizer/New_Systems/rnas/1yrj

>  <Rbt.Executable>
rbdock ($Id: //depot/dev/client3/rdock/2013.1/src/exe/rbdock.cxx#4 $)

>  <Rbt.Library>
libRbt.so (2013.1, Build901 2013/11/27)

>  <Rbt.Parameter_File>
/export/apps/rDock/src/rDock_2013.1_src/data/scripts/dock_solv.prm

>  <Rbt.Receptor>
prm/blind_docking_60.prm

>  <SCORE>
-17.0348

>  <SCORE.INTER>
-20.3306

>  <SCORE.INTER.CONST>
1

>  <SCORE.INTER.POLAR>
-3.199

>  <SCORE.INTER.ROT>
6

>  <SCORE.INTER.SOLV>
19.8943

>  <SCORE.INTER.VDW>
-17.1218

>  <SCORE.INTER.norm>
-0.549476

>  <SCORE.INTRA>
2.41875

>  <SCORE.INTRA.DIHEDRAL>
-6.78496

>  <SCORE.INTRA.DIHEDRAL.0>
15.6389

>  <SCORE.INTRA.POLAR>
0

>  <SCORE.INTRA.POLAR.0>
0

>  <SCORE.INTRA.REPUL>
0

>  <SCORE.INTRA.REPUL.0>
0

>  <SCORE.INTRA.SOLV>
3.99597

>  <SCORE.INTRA.SOLV.lig_0>
-90.9181

>  <SCORE.INTRA.VDW>
3.81325

>  <SCORE.INTRA.VDW.0>
-3.14158

>  <SCORE.INTRA.norm>
0.0653717

>  <SCORE.RESTR>
0.877038

>  <SCORE.RESTR.CAVITY>
0.877038

>  <SCORE.RESTR.norm>
0.0237037

>  <SCORE.SYSTEM>
0

>  <SCORE.SYSTEM.CONST>
0

>  <SCORE.SYSTEM.DIHEDRAL>
0

>  <SCORE.SYSTEM.SOLV>
0

>  <SCORE.SYSTEM.norm>
0

>  <SCORE.heavy>
37

>  <SCORE.norm>
-0.4604

>  <RMSD>
12.653

$$$$
1yrj_lig
 OpenBabel11021811423D
libRbt.so/2013.1/901 2013/11/27
 37 40  0  0  0  0  0  0  0  0999 V2000
   33.3797    3.9859   17.4889 C   0  0  1  0  0  0  0  0  0  0  0  0
   34.7757    3.5982   18.0146 C   0  0  1  0  0  0  0  0  0  0  0  0
   35.7859    4.7453   17.8531 C   0  0  0  0  0  0  0  0  0  0  0  0
   35.8342    5.2070   16.3732 C   0  0  1  0  0  0  0  0  0  0  0  0
   34.4289    5.6320   15.9069 C   0  0  1  0  0  0  0  0  0  0  0  0
   34.5089    6.1114   14.3963 C   0  0  1  0  0  0  0  0  0  0  0  0
   35.4878    7.2909   14.2786 C   0  0  1  0  0  0  0  0  0  0  0  0
   36.8681    6.8272   14.8041 C   0  0  2  0  0  0  0  0  0  0  0  0
   34.5419    8.8376   12.4843 C   0  0  0  0  0  0  0  0  0  0  0  0
   34.7307    3.1532   19.4171 N   0  0  0  0  0  0  0  0  0  0  0  0
   35.5309    7.7816   12.8662 N   0  0  0  0  0  0  0  0  0  0  0  0
   32.6703    4.8956   18.3505 O   0  0  0  0  0  0  0  0  0  0  0  0
   33.5091    4.4943   16.1092 O   0  0  0  0  0  0  0  0  0  0  0  0
   36.7669    6.3393   16.1719 O   0  0  0  0  0  0  0  0  0  0  0  0
   35.0160    5.0629   13.5974 O   0  0  0  0  0  0  0  0  0  0  0  0
   37.8270    7.8854   14.7886 O   0  0  0  0  0  0  0  0  0  0  0  0
   38.8091    7.7819   15.8462 C   0  0  2  0  0  0  0  0  0  0  0  0
   38.5399    8.7345   17.0225 C   0  0  1  0  0  0  0  0  0  0  0  0
   38.7695   10.2128   16.6096 C   0  0  2  0  0  0  0  0  0  0  0  0
   40.1799   10.3903   16.0958 C   0  0  1  0  0  0  0  0  0  0  0  0
   40.4097    9.4412   14.8959 C   0  0  1  0  0  0  0  0  0  0  0  0
   41.8306    9.5199   14.3421 C   0  0  0  0  0  0  0  0  0  0  0  0
   40.3661   11.8037   15.7071 N   0  0  0  0  0  0  0  0  0  0  0  0
   40.1657    8.0491   15.3142 O   0  0  0  0  0  0  0  0  0  0  0  0
   37.2046    8.5040   17.4944 O   0  0  0  0  0  0  0  0  0  0  0  0
   38.5834   11.0660   17.7473 O   0  0  0  0  0  0  0  0  0  0  0  0
   42.0392    8.4656   13.4406 O   0  0  0  0  0  0  0  0  0  0  0  0
   31.3350    5.5329   17.9966 C   0  0  1  0  0  0  0  0  0  0  0  0
   30.2639    4.8729   18.8929 C   0  0  1  0  0  0  0  0  0  0  0  0
   28.8702    5.5034   18.6560 C   0  0  2  0  0  0  0  0  0  0  0  0
   28.9215    7.0093   18.9400 C   0  0  1  0  0  0  0  0  0  0  0  0
   29.9670    7.6910   18.0208 C   0  0  0  0  0  0  0  0  0  0  0  0
   31.3402    7.0637   18.2831 C   0  0  2  0  0  0  0  0  0  0  0  0
   27.5890    7.6075   18.7010 N   0  0  0  0  0  0  0  0  0  0  0  0
   32.2975    7.7428   17.4140 N   0  0  0  0  0  0  0  0  0  0  0  0
   30.1921    3.4643   18.5823 O   0  0  0  0  0  0  0  0  0  0  0  0
   27.9161    4.8683   19.5341 O   0  0  0  0  0  0  0  0  0  0  0  0
  1  2  1  0  0  0  0
  1 12  1  1  0  0  0
  1 13  1  0  0  0  0
  2  3  1  0  0  0  0
  2 10  1  1  0  0  0
  4  3  1  1  0  0  0
  4  5  1  0  0  0  0
  4 14  1  0  0  0  0
  5  6  1  0  0  0  0
  5 13  1  6  0  0  0
  6  7  1  0  0  0  0
  6 15  1  6  0  0  0
  7  8  1  0  0  0  0
  7 11  1  6  0  0  0
  8 14  1  0  0  0  0
  8 16  1  1  0  0  0
  9 11  1  0  0  0  0
 17 16  1  6  0  0  0
 17 18  1  0  0  0  0
 17 24  1  0  0  0  0
 18 19  1  0  0  0  0
 18 25  1  6  0  0  0
 19 20  1  0  0  0  0
 19 26  1  1  0  0  0
 20 21  1  0  0  0  0
 20 23  1  6  0  0  0
 21 22  1  1  0  0  0
 21 24  1  0  0  0  0
 22 27  1  0  0  0  0
 28 12  1  1  0  0  0
 28 29  1  0  0  0  0
 28 33  1  0  0  0  0
 29 30  1  0  0  0  0
 29 36  1  6  0  0  0
 30 31  1  0  0  0  0
 30 37  1  1  0  0  0
 31 32  1  0  0  0  0
 31 34  1  6  0  0  0
 32 33  1  0  0  0  0
 33 35  1  6  0  0  0
M  END
>  <CHROM.1>
173.92674682,88.96716014,148.57423323,-102.10210170,168.78107670,108.72105613
35.08983062,6.94717760,16.53496638,-2.83601840,0.38058250,0.14654365

>  <Name>
1yrj_lig

>  <RI>
0

>  <Rbt.Current_Directory>
/home/itssahil/PROJECTS/Mol_Feturizer/New_Systems/rnas/1yrj

>  <Rbt.Executable>
rbdock ($Id: //depot/dev/client3/rdock/2013.1/src/exe/rbdock.cxx#4 $)

>  <Rbt.Library>
libRbt.so (2013.1, Build901 2013/11/27)

>  <Rbt.Parameter_File>
/export/apps/rDock/src/rDock_2013.1_src/data/scripts/dock_solv.prm

>  <Rbt.Receptor>
prm/blind_docking_60.prm

>  <SCORE>
-15.5457

>  <SCORE.INTER>
-19.134

>  <SCORE.INTER.CONST>
1

>  <SCORE.INTER.POLAR>
-2.53075

>  <SCORE.INTER.ROT>
6

>  <SCORE.INTER.SOLV>
12.8414

>  <SCORE.INTER.VDW>
-16.2007

>  <SCORE.INTER.norm>
-0.517136

>  <SCORE.INTRA>
2.20986

>  <SCORE.INTRA.DIHEDRAL>
1.78898

>  <SCORE.INTRA.DIHEDRAL.0>
15.6389

>  <SCORE.INTRA.POLAR>
0

>  <SCORE.INTRA.POLAR.0>
0

>  <SCORE.INTRA.REPUL>
0

>  <SCORE.INTRA.REPUL.0>
0

>  <SCORE.INTRA.SOLV>
-0.67498

>  <SCORE.INTRA.SOLV.lig_0>
-90.9181

>  <SCORE.INTRA.VDW>
1.65286

>  <SCORE.INTRA.VDW.0>
-3.14158

>  <SCORE.INTRA.norm>
0.0597259

>  <SCORE.RESTR>
1.37846

>  <SCORE.RESTR.CAVITY>
1.37846

>  <SCORE.RESTR.norm>
0.0372557

>  <SCORE.SYSTEM>
0

>  <SCORE.SYSTEM.CONST>
0

>  <SCORE.SYSTEM.DIHEDRAL>
0

>  <SCORE.SYSTEM.SOLV>
0

>  <SCORE.SYSTEM.norm>
0

>  <SCORE.heavy>
37

>  <SCORE.norm>
-0.420154

>  <RMSD>
12.666

$$$$
1yrj_lig
 OpenBabel11021811423D
libRbt.so/2013.1/901 2013/11/27
 37 40  0  0  0  0  0  0  0  0999 V2000
   33.6714    4.6381   19.1664 C   0  0  1  0  0  0  0  0  0  0  0  0
   35.0531    3.9577   19.2249 C   0  0  1  0  0  0  0  0  0  0  0  0
   36.1368    4.8049   18.5392 C   0  0  0  0  0  0  0  0  0  0  0  0
   35.7149    5.1305   17.0826 C   0  0  1  0  0  0  0  0  0  0  0  0
   34.3547    5.8537   17.0763 C   0  0  1  0  0  0  0  0  0  0  0  0
   33.9534    6.1862   15.5775 C   0  0  1  0  0  0  0  0  0  0  0  0
   35.0318    7.0758   14.9379 C   0  0  1  0  0  0  0  0  0  0  0  0
   36.3839    6.3257   15.0138 C   0  0  2  0  0  0  0  0  0  0  0  0
   34.3622    8.8803   13.2640 C   0  0  0  0  0  0  0  0  0  0  0  0
   35.4522    3.6418   20.6062 N   0  0  0  0  0  0  0  0  0  0  0  0
   34.6365    7.4355   13.5409 N   0  0  0  0  0  0  0  0  0  0  0  0
   33.5395    5.7555   20.0649 O   0  0  0  0  0  0  0  0  0  0  0  0
   33.3701    4.9961   17.7665 O   0  0  0  0  0  0  0  0  0  0  0  0
   36.7104    5.9798   16.3896 O   0  0  0  0  0  0  0  0  0  0  0  0
   33.8981    4.9893   14.8298 O   0  0  0  0  0  0  0  0  0  0  0  0
   37.4584    7.1105   14.4949 O   0  0  0  0  0  0  0  0  0  0  0  0
   38.1170    7.9140   15.5020 C   0  0  2  0  0  0  0  0  0  0  0  0
   37.5114    9.3191   15.6521 C   0  0  1  0  0  0  0  0  0  0  0  0
   37.8045   10.1915   14.4026 C   0  0  2  0  0  0  0  0  0  0  0  0
   39.2963   10.2789   14.1746 C   0  0  1  0  0  0  0  0  0  0  0  0
   39.8705    8.8532   13.9981 C   0  0  1  0  0  0  0  0  0  0  0  0
   41.3859    8.8441   13.8101 C   0  0  0  0  0  0  0  0  0  0  0  0
   39.5429   11.1102   12.9782 N   0  0  0  0  0  0  0  0  0  0  0  0
   39.5595    8.0450   15.1907 O   0  0  0  0  0  0  0  0  0  0  0  0
   36.1047    9.1809   15.8995 O   0  0  0  0  0  0  0  0  0  0  0  0
   37.2921   11.5153   14.6072 O   0  0  0  0  0  0  0  0  0  0  0  0
   41.8175    7.5326   13.5623 O   0  0  0  0  0  0  0  0  0  0  0  0
   32.2841    6.6067   20.1822 C   0  0  1  0  0  0  0  0  0  0  0  0
   32.2080    7.4828   18.9123 C   0  0  1  0  0  0  0  0  0  0  0  0
   30.9215    8.3437   18.9028 C   0  0  2  0  0  0  0  0  0  0  0  0
   29.6856    7.4394   18.9785 C   0  0  1  0  0  0  0  0  0  0  0  0
   29.7304    6.5803   20.2679 C   0  0  0  0  0  0  0  0  0  0  0  0
   31.0019    5.7252   20.2488 C   0  0  2  0  0  0  0  0  0  0  0  0
   28.4601    8.2692   18.9802 N   0  0  0  0  0  0  0  0  0  0  0  0
   30.9982    4.9200   21.4671 N   0  0  0  0  0  0  0  0  0  0  0  0
   33.3526    8.3629   18.8774 O   0  0  0  0  0  0  0  0  0  0  0  0
   30.8901    9.1210   17.6865 O   0  0  0  0  0  0  0  0  0  0  0  0
  1  2  1  0  0  0  0
  1 12  1  1  0  0  0
  1 13  1  0  0  0  0
  2  3  1  0  0  0  0
  2 10  1  1  0  0  0
  4  3  1  1  0  0  0
  4  5  1  0  0  0  0
  4 14  1  0  0  0  0
  5  6  1  0  0  0  0
  5 13  1  6  0  0  0
  6  7  1  0  0  0  0
  6 15  1  6  0  0  0
  7  8  1  0  0  0  0
  7 11  1  6  0  0  0
  8 14  1  0  0  0  0
  8 16  1  1  0  0  0
  9 11  1  0  0  0  0
 17 16  1  6  0  0  0
 17 18  1  0  0  0  0
 17 24  1  0  0  0  0
 18 19  1  0  0  0  0
 18 25  1  6  0  0  0
 19 20  1  0  0  0  0
 19 26  1  1  0  0  0
 20 21  1  0  0  0  0
 20 23  1  6  0  0  0
 21 22  1  1  0  0  0
 21 24  1  0  0  0  0
 22 27  1  0  0  0  0
 28 12  1  6  0  0  0
 28 29  1  0  0  0  0
 28 33  1  0  0  0  0
 29 30  1  0  0  0  0
 29 36  1  1  0  0  0
 30 31  1  0  0  0  0
 30 37  1  6  0  0  0
 31 32  1  0  0  0  0
 31 34  1  1  0  0  0
 32 33  1  0  0  0  0
 33 35  1  1  0  0  0
M  END
>  <CHROM.1>
179.03533056,114.84367019,91.02943367,-90.94788293,-175.82316492,-72.93214015
35.10546033,7.27149121,16.77290286,-2.57281423,0.36857709,-0.60761458

>  <Name>
1yrj_lig

>  <RI>
0

>  <Rbt.Current_Directory>
/home/itssahil/PROJECTS/Mol_Feturizer/New_Systems/rnas/1yrj

>  <Rbt.Executable>
rbdock ($Id: //depot/dev/client3/rdock/2013.1/src/exe/rbdock.cxx#4 $)

>  <Rbt.Library>
libRbt.so (2013.1, Build901 2013/11/27)

>  <Rbt.Parameter_File>
/export/apps/rDock/src/rDock_2013.1_src/data/scripts/dock_solv.prm

>  <Rbt.Receptor>
prm/blind_docking_100.prm

>  <SCORE>
-7.83571

>  <SCORE.INTER>
-6.87295

>  <SCORE.INTER.CONST>
1

>  <SCORE.INTER.POLAR>
-0.722095

>  <SCORE.INTER.ROT>
6

>  <SCORE.INTER.SOLV>
12.4692

>  <SCORE.INTER.VDW>
-13.9314

>  <SCORE.INTER.norm>
-0.185755

>  <SCORE.INTRA>
-1.04067

>  <SCORE.INTRA.DIHEDRAL>
-5.94805

>  <SCORE.INTRA.DIHEDRAL.0>
15.6389

>  <SCORE.INTRA.POLAR>
0

>  <SCORE.INTRA.POLAR.0>
0

>  <SCORE.INTRA.REPUL>
0.091369

>  <SCORE.INTRA.REPUL.0>
0

>  <SCORE.INTRA.SOLV>
-0.271886

>  <SCORE.INTRA.SOLV.lig_0>
-90.9181

>  <SCORE.INTRA.VDW>
1.61245

>  <SCORE.INTRA.VDW.0>
-3.14158

>  <SCORE.INTRA.norm>
-0.0281263

>  <SCORE.RESTR>
0.0779146

>  <SCORE.RESTR.CAVITY>
0.0779146

>  <SCORE.RESTR.norm>
0.0021058

>  <SCORE.SYSTEM>
0

>  <SCORE.SYSTEM.CONST>
0

>  <SCORE.SYSTEM.DIHEDRAL>
0

>  <SCORE.SYSTEM.SOLV>
0

>  <SCORE.SYSTEM.norm>
0

>  <SCORE.heavy>
37

>  <SCORE.norm>
-0.211776

>  <RMSD>
12.671

$$$$
1yrj_lig
 OpenBabel11021811423D
libRbt.so/2013.1/901 2013/11/27
 37 40  0  0  0  0  0  0  0  0999 V2000
   34.4070    3.7941   17.7290 C   0  0  1  0  0  0  0  0  0  0  0  0
   35.7910    3.7536   18.4059 C   0  0  1  0  0  0  0  0  0  0  0  0
   36.3600    5.1640   18.6281 C   0  0  0  0  0  0  0  0  0  0  0  0
   36.3965    5.9402   17.2858 C   0  0  1  0  0  0  0  0  0  0  0  0
   34.9850    5.9988   16.6715 C   0  0  1  0  0  0  0  0  0  0  0  0
   35.0481    6.8081   15.3081 C   0  0  1  0  0  0  0  0  0  0  0  0
   35.5723    8.2289   15.5731 C   0  0  1  0  0  0  0  0  0  0  0  0
   36.9677    8.1133   16.2334 C   0  0  2  0  0  0  0  0  0  0  0  0
   36.7684    8.8277   13.4011 C   0  0  0  0  0  0  0  0  0  0  0  0
   35.7598    3.0114   19.6769 N   0  0  0  0  0  0  0  0  0  0  0  0
   35.5872    9.0148   14.3005 N   0  0  0  0  0  0  0  0  0  0  0  0
   33.3469    4.2165   18.6070 O   0  0  0  0  0  0  0  0  0  0  0  0
   34.4933    4.6161   16.5060 O   0  0  0  0  0  0  0  0  0  0  0  0
   36.9020    7.3219   17.4534 O   0  0  0  0  0  0  0  0  0  0  0  0
   35.9602    6.1803   14.4314 O   0  0  0  0  0  0  0  0  0  0  0  0
   37.5043    9.3927   16.5722 O   0  0  0  0  0  0  0  0  0  0  0  0
   38.8158    9.3196   17.1792 C   0  0  2  0  0  0  0  0  0  0  0  0
   39.4586   10.6972   17.4082 C   0  0  1  0  0  0  0  0  0  0  0  0
   39.8414   11.3672   16.0618 C   0  0  2  0  0  0  0  0  0  0  0  0
   40.7774   10.4677   15.2874 C   0  0  1  0  0  0  0  0  0  0  0  0
   40.0915    9.1019   15.0476 C   0  0  1  0  0  0  0  0  0  0  0  0
   40.9885    8.1099   14.3105 C   0  0  0  0  0  0  0  0  0  0  0  0
   41.1195   11.1293   14.0112 N   0  0  0  0  0  0  0  0  0  0  0  0
   39.7233    8.5008   16.3420 O   0  0  0  0  0  0  0  0  0  0  0  0
   38.5478   11.4993   18.1738 O   0  0  0  0  0  0  0  0  0  0  0  0
   40.5050   12.6134   16.3143 O   0  0  0  0  0  0  0  0  0  0  0  0
   42.0867    7.7832   15.1199 O   0  0  0  0  0  0  0  0  0  0  0  0
   32.9361    5.6679   18.8048 C   0  0  1  0  0  0  0  0  0  0  0  0
   31.7412    5.9351   17.8631 C   0  0  1  0  0  0  0  0  0  0  0  0
   31.2020    7.3755   18.0381 C   0  0  2  0  0  0  0  0  0  0  0  0
   30.7709    7.6001   19.4923 C   0  0  1  0  0  0  0  0  0  0  0  0
   31.9707    7.3712   20.4467 C   0  0  0  0  0  0  0  0  0  0  0  0
   32.4776    5.9362   20.2688 C   0  0  2  0  0  0  0  0  0  0  0  0
   30.2669    8.9821   19.6551 N   0  0  0  0  0  0  0  0  0  0  0  0
   33.5924    5.7549   21.1946 N   0  0  0  0  0  0  0  0  0  0  0  0
   32.1724    5.7668   16.4950 O   0  0  0  0  0  0  0  0  0  0  0  0
   30.0748    7.5615   17.1553 O   0  0  0  0  0  0  0  0  0  0  0  0
  1  2  1  0  0  0  0
  1 12  1  1  0  0  0
  1 13  1  0  0  0  0
  2  3  1  0  0  0  0
  2 10  1  1  0  0  0
  4  3  1  1  0  0  0
  4  5  1  0  0  0  0
  4 14  1  0  0  0  0
  5  6  1  0  0  0  0
  5 13  1  6  0  0  0
  6  7  1  0  0  0  0
  6 15  1  6  0  0  0
  7  8  1  0  0  0  0
  7 11  1  6  0  0  0
  8 14  1  0  0  0  0
  8 16  1  1  0  0  0
  9 11  1  0  0  0  0
 17 16  1  6  0  0  0
 17 18  1  0  0  0  0
 17 24  1  0  0  0  0
 18 19  1  0  0  0  0
 18 25  1  6  0  0  0
 19 20  1  0  0  0  0
 19 26  1  1  0  0  0
 20 21  1  0  0  0  0
 20 23  1  6  0  0  0
 21 22  1  1  0  0  0
 21 24  1  0  0  0  0
 22 27  1  0  0  0  0
 28 12  1  1  0  0  0
 28 29  1  0  0  0  0
 28 33  1  0  0  0  0
 29 30  1  0  0  0  0
 29 36  1  6  0  0  0
 30 31  1  0  0  0  0
 30 37  1  6  0  0  0
 31 32  1  0  0  0  0
 31 34  1  6  0  0  0
 32 33  1  0  0  0  0
 33 35  1  1  0  0  0
M  END
>  <CHROM.1>
88.99720764,-82.78123631,-179.38385897,173.89151707,65.53895678,96.09013483
36.00422226,7.55439051,17.03710795,-2.67341343,0.36688586,-0.05015327

>  <Name>
1yrj_lig

>  <RI>
0

>  <Rbt.Current_Directory>
/home/itssahil/PROJECTS/Mol_Feturizer/New_Systems/rnas/1yrj

>  <Rbt.Executable>
rbdock ($Id: //depot/dev/client3/rdock/2013.1/src/exe/rbdock.cxx#4 $)

>  <Rbt.Library>
libRbt.so (2013.1, Build901 2013/11/27)

>  <Rbt.Parameter_File>
/export/apps/rDock/src/rDock_2013.1_src/data/scripts/dock_solv.prm

>  <Rbt.Receptor>
prm/blind_docking_60.prm

>  <SCORE>
-12.4735

>  <SCORE.INTER>
-11.278

>  <SCORE.INTER.CONST>
1

>  <SCORE.INTER.POLAR>
-0.925249

>  <SCORE.INTER.ROT>
6

>  <SCORE.INTER.SOLV>
14.9587

>  <SCORE.INTER.VDW>
-17.0207

>  <SCORE.INTER.norm>
-0.30481

>  <SCORE.INTRA>
-1.19556

>  <SCORE.INTRA.DIHEDRAL>
-6.78678

>  <SCORE.INTRA.DIHEDRAL.0>
15.6389

>  <SCORE.INTRA.POLAR>
0

>  <SCORE.INTRA.POLAR.0>
0

>  <SCORE.INTRA.REPUL>
0

>  <SCORE.INTRA.REPUL.0>
0

>  <SCORE.INTRA.SOLV>
0.767989

>  <SCORE.INTRA.SOLV.lig_0>
-90.9181

>  <SCORE.INTRA.VDW>
1.81383

>  <SCORE.INTRA.VDW.0>
-3.14158

>  <SCORE.INTRA.norm>
-0.0323125

>  <SCORE.RESTR>
0

>  <SCORE.RESTR.CAVITY>
0

>  <SCORE.RESTR.norm>
0

>  <SCORE.SYSTEM>
0

>  <SCORE.SYSTEM.CONST>
0

>  <SCORE.SYSTEM.DIHEDRAL>
0

>  <SCORE.SYSTEM.SOLV>
0

>  <SCORE.SYSTEM.norm>
0

>  <SCORE.heavy>
37

>  <SCORE.norm>
-0.337123

>  <RMSD>
12.711

$$$$
1yrj_lig
 OpenBabel11021811423D
libRbt.so/2013.1/901 2013/11/27
 37 40  0  0  0  0  0  0  0  0999 V2000
   33.6249    4.2216   17.5329 C   0  0  1  0  0  0  0  0  0  0  0  0
   35.0340    3.8767   18.0536 C   0  0  1  0  0  0  0  0  0  0  0  0
   36.0230    5.0326   17.8344 C   0  0  0  0  0  0  0  0  0  0  0  0
   36.0441    5.4378   16.3374 C   0  0  1  0  0  0  0  0  0  0  0  0
   34.6259    5.8222   15.8748 C   0  0  1  0  0  0  0  0  0  0  0  0
   34.6779    6.2443   14.3460 C   0  0  1  0  0  0  0  0  0  0  0  0
   35.6357    7.4339   14.1697 C   0  0  1  0  0  0  0  0  0  0  0  0
   37.0303    7.0127   14.6933 C   0  0  2  0  0  0  0  0  0  0  0  0
   34.6180    8.8689   12.3226 C   0  0  0  0  0  0  0  0  0  0  0  0
   35.0150    3.4852   19.4726 N   0  0  0  0  0  0  0  0  0  0  0  0
   35.6519    7.8705   12.7391 N   0  0  0  0  0  0  0  0  0  0  0  0
   32.9122    5.1523   18.3689 O   0  0  0  0  0  0  0  0  0  0  0  0
   33.7277    4.6786   16.1331 O   0  0  0  0  0  0  0  0  0  0  0  0
   36.9552    6.5763   16.0800 O   0  0  0  0  0  0  0  0  0  0  0  0
   35.1915    5.1742   13.5808 O   0  0  0  0  0  0  0  0  0  0  0  0
   37.9714    8.0847   14.6240 O   0  0  0  0  0  0  0  0  0  0  0  0
   37.4217    9.3555   15.0439 C   0  0  2  0  0  0  0  0  0  0  0  0
   38.4447   10.5026   15.0104 C   0  0  1  0  0  0  0  0  0  0  0  0
   39.5259   10.3208   16.1087 C   0  0  2  0  0  0  0  0  0  0  0  0
   38.8695   10.2356   17.4676 C   0  0  1  0  0  0  0  0  0  0  0  0
   37.8691    9.0556   17.4787 C   0  0  1  0  0  0  0  0  0  0  0  0
   37.1217    8.9251   18.8039 C   0  0  0  0  0  0  0  0  0  0  0  0
   39.9218   10.0584   18.4897 N   0  0  0  0  0  0  0  0  0  0  0  0
   36.8682    9.2473   16.4139 O   0  0  0  0  0  0  0  0  0  0  0  0
   39.0131   10.5630   13.6942 O   0  0  0  0  0  0  0  0  0  0  0  0
   40.4180   11.4437   16.0982 O   0  0  0  0  0  0  0  0  0  0  0  0
   36.2700   10.0273   18.9698 O   0  0  0  0  0  0  0  0  0  0  0  0
   31.6260    5.8517   17.9555 C   0  0  1  0  0  0  0  0  0  0  0  0
   30.4889    5.2600   18.8175 C   0  0  1  0  0  0  0  0  0  0  0  0
   29.1395    5.9573   18.5188 C   0  0  2  0  0  0  0  0  0  0  0  0
   29.2574    7.4625   18.7861 C   0  0  1  0  0  0  0  0  0  0  0  0
   30.3710    8.0769   17.8999 C   0  0  0  0  0  0  0  0  0  0  0  0
   31.6990    7.3843   18.2232 C   0  0  2  0  0  0  0  0  0  0  0  0
   27.9676    8.1243   18.4880 N   0  0  0  0  0  0  0  0  0  0  0  0
   32.7226    8.0012   17.3838 N   0  0  0  0  0  0  0  0  0  0  0  0
   30.3566    3.8526   18.5216 O   0  0  0  0  0  0  0  0  0  0  0  0
   28.1212    5.3842   19.3668 O   0  0  0  0  0  0  0  0  0  0  0  0
  1  2  1  0  0  0  0
  1 12  1  1  0  0  0
  1 13  1  0  0  0  0
  2  3  1  0  0  0  0
  2 10  1  1  0  0  0
  4  3  1  1  0  0  0
  4  5  1  0  0  0  0
  4 14  1  0  0  0  0
  5  6  1  0  0  0  0
  5 13  1  6  0  0  0
  6  7  1  0  0  0  0
  6 15  1  6  0  0  0
  7  8  1  0  0  0  0
  7 11  1  6  0  0  0
  8 14  1  0  0  0  0
  8 16  1  1  0  0  0
  9 11  1  0  0  0  0
 17 16  1  1  0  0  0
 17 18  1  0  0  0  0
 17 24  1  0  0  0  0
 18 19  1  0  0  0  0
 18 25  1  6  0  0  0
 19 20  1  0  0  0  0
 19 26  1  1  0  0  0
 20 21  1  0  0  0  0
 20 23  1  1  0  0  0
 21 22  1  1  0  0  0
 21 24  1  0  0  0  0
 22 27  1  0  0  0  0
 28 12  1  1  0  0  0
 28 29  1  0  0  0  0
 28 33  1  0  0  0  0
 29 30  1  0  0  0  0
 29 36  1  6  0  0  0
 30 31  1  0  0  0  0
 30 37  1  1  0  0  0
 31 32  1  0  0  0  0
 31 34  1  6  0  0  0
 32 33  1  0  0  0  0
 33 35  1  6  0  0  0
M  END
>  <CHROM.1>
168.09202041,87.43383471,42.31252990,178.26901828,67.33762521,110.39764085
34.83661435,7.30665544,16.73175212,-3.05566302,0.52688699,0.78597392

>  <Name>
1yrj_lig

>  <RI>
224

>  <Rbt.Current_Directory>
/home/itssahil/PROJECTS/Mol_Feturizer/New_Systems/rnas/1yrj

>  <Rbt.Executable>
rbdock ($Id: //depot/dev/client3/rdock/2013.1/src/exe/rbdock.cxx#4 $)

>  <Rbt.Library>
libRbt.so (2013.1, Build901 2013/11/27)

>  <Rbt.Parameter_File>
/export/apps/rDock/src/rDock_2013.1_src/data/scripts/dock_solv.prm

>  <Rbt.Receptor>
prm/blind_docking_80.prm

>  <SCORE>
-19.7416

>  <SCORE.INTER>
-18.0333

>  <SCORE.INTER.CONST>
1

>  <SCORE.INTER.POLAR>
-2.69027

>  <SCORE.INTER.ROT>
6

>  <SCORE.INTER.SOLV>
15.8552

>  <SCORE.INTER.VDW>
-15.9397

>  <SCORE.INTER.norm>
-0.487387

>  <SCORE.INTRA>
-2.25777

>  <SCORE.INTRA.DIHEDRAL>
-5.96106

>  <SCORE.INTRA.DIHEDRAL.0>
15.6389

>  <SCORE.INTRA.POLAR>
0

>  <SCORE.INTRA.POLAR.0>
0

>  <SCORE.INTRA.REPUL>
0.016234

>  <SCORE.INTRA.REPUL.0>
0

>  <SCORE.INTRA.SOLV>
0.623336

>  <SCORE.INTRA.SOLV.lig_0>
-90.9181

>  <SCORE.INTRA.VDW>
0.329928

>  <SCORE.INTRA.VDW.0>
-3.14158

>  <SCORE.INTRA.norm>
-0.0610207

>  <SCORE.RESTR>
0.549491

>  <SCORE.RESTR.CAVITY>
0.549491

>  <SCORE.RESTR.norm>
0.0148511

>  <SCORE.SYSTEM>
0

>  <SCORE.SYSTEM.CONST>
0

>  <SCORE.SYSTEM.DIHEDRAL>
0

>  <SCORE.SYSTEM.SOLV>
0

>  <SCORE.SYSTEM.norm>
0

>  <SCORE.heavy>
37

>  <SCORE.norm>
-0.533556

>  <RMSD>
12.777

$$$$
1yrj_lig
 OpenBabel11021811423D
libRbt.so/2013.1/901 2013/11/27
 37 40  0  0  0  0  0  0  0  0999 V2000
   33.6164    6.7251   14.8128 C   0  0  1  0  0  0  0  0  0  0  0  0
   34.9100    6.4109   14.0361 C   0  0  1  0  0  0  0  0  0  0  0  0
   36.1527    6.4990   14.9363 C   0  0  0  0  0  0  0  0  0  0  0  0
   36.2147    7.8885   15.6227 C   0  0  1  0  0  0  0  0  0  0  0  0
   34.9248    8.1376   16.4272 C   0  0  1  0  0  0  0  0  0  0  0  0
   35.0196    9.5578   17.1287 C   0  0  1  0  0  0  0  0  0  0  0  0
   36.2425    9.5948   18.0596 C   0  0  1  0  0  0  0  0  0  0  0  0
   37.5027    9.2908   17.2135 C   0  0  2  0  0  0  0  0  0  0  0  0
   35.1718   11.2572   19.6710 C   0  0  0  0  0  0  0  0  0  0  0  0
   34.8504    5.0953   13.3782 N   0  0  0  0  0  0  0  0  0  0  0  0
   36.3106   10.9129   18.7633 N   0  0  0  0  0  0  0  0  0  0  0  0
   33.2021    5.6667   15.6968 O   0  0  0  0  0  0  0  0  0  0  0  0
   33.7746    8.0172   15.5085 O   0  0  0  0  0  0  0  0  0  0  0  0
   37.3761    8.0101   16.5332 O   0  0  0  0  0  0  0  0  0  0  0  0
   35.2087   10.5548   16.1464 O   0  0  0  0  0  0  0  0  0  0  0  0
   38.6838    9.2437   18.0150 O   0  0  0  0  0  0  0  0  0  0  0  0
   39.8356    9.8368   17.3705 C   0  0  2  0  0  0  0  0  0  0  0  0
   39.5767   11.2603   16.8504 C   0  0  1  0  0  0  0  0  0  0  0  0
   38.5947   11.2474   15.6489 C   0  0  2  0  0  0  0  0  0  0  0  0
   39.1431   10.3716   14.5456 C   0  0  1  0  0  0  0  0  0  0  0  0
   39.3646    8.9411   15.0914 C   0  0  1  0  0  0  0  0  0  0  0  0
   39.9651    7.9970   14.0521 C   0  0  0  0  0  0  0  0  0  0  0  0
   38.1860   10.3757   13.4200 N   0  0  0  0  0  0  0  0  0  0  0  0
   40.2848    8.9889   16.2418 O   0  0  0  0  0  0  0  0  0  0  0  0
   39.0909   12.0580   17.9398 O   0  0  0  0  0  0  0  0  0  0  0  0
   38.4346   12.5795   15.1422 O   0  0  0  0  0  0  0  0  0  0  0  0
   41.2544    8.4346   13.7140 O   0  0  0  0  0  0  0  0  0  0  0  0
   32.5285    5.8984   17.0411 C   0  0  1  0  0  0  0  0  0  0  0  0
   33.6419    6.2440   18.0544 C   0  0  1  0  0  0  0  0  0  0  0  0
   33.0500    6.5654   19.4481 C   0  0  2  0  0  0  0  0  0  0  0  0
   32.0687    7.7388   19.3424 C   0  0  1  0  0  0  0  0  0  0  0  0
   30.9248    7.3914   18.3557 C   0  0  0  0  0  0  0  0  0  0  0  0
   31.5311    7.0931   16.9805 C   0  0  2  0  0  0  0  0  0  0  0  0
   31.4983    8.0335   20.6759 N   0  0  0  0  0  0  0  0  0  0  0  0
   30.4240    6.7889   16.0780 N   0  0  0  0  0  0  0  0  0  0  0  0
   34.5320    5.1136   18.1806 O   0  0  0  0  0  0  0  0  0  0  0  0
   34.1289    6.9042   20.3458 O   0  0  0  0  0  0  0  0  0  0  0  0
  1  2  1  0  0  0  0
  1 12  1  1  0  0  0
  1 13  1  0  0  0  0
  2  3  1  0  0  0  0
  2 10  1  1  0  0  0
  4  3  1  1  0  0  0
  4  5  1  0  0  0  0
  4 14  1  0  0  0  0
  5  6  1  0  0  0  0
  5 13  1  6  0  0  0
  6  7  1  0  0  0  0
  6 15  1  6  0  0  0
  7  8  1  0  0  0  0
  7 11  1  6  0  0  0
  8 14  1  0  0  0  0
  8 16  1  1  0  0  0
  9 11  1  0  0  0  0
 17 16  1  6  0  0  0
 17 18  1  0  0  0  0
 17 24  1  0  0  0  0
 18 19  1  0  0  0  0
 18 25  1  1  0  0  0
 19 20  1  0  0  0  0
 19 26  1  6  0  0  0
 20 21  1  0  0  0  0
 20 23  1  6  0  0  0
 21 22  1  6  0  0  0
 21 24  1  0  0  0  0
 22 27  1  0  0  0  0
 28 12  1  6  0  0  0
 28 29  1  0  0  0  0
 28 33  1  0  0  0  0
 29 30  1  0  0  0  0
 29 36  1  1  0  0  0
 30 31  1  0  0  0  0
 30 37  1  1  0  0  0
 31 32  1  0  0  0  0
 31 34  1  1  0  0  0
 32 33  1  0  0  0  0
 33 35  1  6  0  0  0
M  END
>  <CHROM.1>
145.19143356,62.41575027,-141.12566750,52.28781515,64.73958322,-80.31340903
35.91655225,8.46891724,16.66701343,-3.09568202,0.51823571,0.91554785

>  <Name>
1yrj_lig

>  <RI>
0

>  <Rbt.Current_Directory>
/home/itssahil/PROJECTS/Mol_Feturizer/New_Systems/rnas/1yrj

>  <Rbt.Executable>
rbdock ($Id: //depot/dev/client3/rdock/2013.1/src/exe/rbdock.cxx#4 $)

>  <Rbt.Library>
libRbt.so (2013.1, Build901 2013/11/27)

>  <Rbt.Parameter_File>
/export/apps/rDock/src/rDock_2013.1_src/data/scripts/dock_solv.prm

>  <Rbt.Receptor>
prm/blind_docking_60.prm

>  <SCORE>
-4.97005

>  <SCORE.INTER>
-7.1051

>  <SCORE.INTER.CONST>
1

>  <SCORE.INTER.POLAR>
-1

>  <SCORE.INTER.ROT>
6

>  <SCORE.INTER.SOLV>
21.3291

>  <SCORE.INTER.VDW>
-16.1131

>  <SCORE.INTER.norm>
-0.19203

>  <SCORE.INTRA>
2.13505

>  <SCORE.INTRA.DIHEDRAL>
-3.70168

>  <SCORE.INTRA.DIHEDRAL.0>
15.6389

>  <SCORE.INTRA.POLAR>
0

>  <SCORE.INTRA.POLAR.0>
0

>  <SCORE.INTRA.REPUL>
0

>  <SCORE.INTRA.REPUL.0>
0

>  <SCORE.INTRA.SOLV>
2.98239

>  <SCORE.INTRA.SOLV.lig_0>
-90.9181

>  <SCORE.INTRA.VDW>
2.4947

>  <SCORE.INTRA.VDW.0>
-3.14158

>  <SCORE.INTRA.norm>
0.057704

>  <SCORE.RESTR>
0

>  <SCORE.RESTR.CAVITY>
0

>  <SCORE.RESTR.norm>
0

>  <SCORE.SYSTEM>
0

>  <SCORE.SYSTEM.CONST>
0

>  <SCORE.SYSTEM.DIHEDRAL>
0

>  <SCORE.SYSTEM.SOLV>
0

>  <SCORE.SYSTEM.norm>
0

>  <SCORE.heavy>
37

>  <SCORE.norm>
-0.134326

>  <RMSD>
12.801

$$$$
1yrj_lig
 OpenBabel11021811423D
libRbt.so/2013.1/901 2013/11/27
 37 40  0  0  0  0  0  0  0  0999 V2000
   36.5873    8.0155   12.8488 C   0  0  1  0  0  0  0  0  0  0  0  0
   35.0817    8.3232   12.7311 C   0  0  1  0  0  0  0  0  0  0  0  0
   34.5088    8.8838   14.0426 C   0  0  0  0  0  0  0  0  0  0  0  0
   34.8093    7.9112   15.2128 C   0  0  1  0  0  0  0  0  0  0  0  0
   36.3271    7.6729   15.3244 C   0  0  1  0  0  0  0  0  0  0  0  0
   36.6076    6.6865   16.5353 C   0  0  1  0  0  0  0  0  0  0  0  0
   36.0683    7.2995   17.8380 C   0  0  1  0  0  0  0  0  0  0  0  0
   34.5539    7.5641   17.6563 C   0  0  2  0  0  0  0  0  0  0  0  0
   36.0433    6.9115   20.3589 C   0  0  0  0  0  0  0  0  0  0  0  0
   34.7937    9.2408   11.6166 N   0  0  0  0  0  0  0  0  0  0  0  0
   36.3735    6.3988   18.9925 N   0  0  0  0  0  0  0  0  0  0  0  0
   37.4185    9.1912   12.8525 O   0  0  0  0  0  0  0  0  0  0  0  0
   36.8122    7.1570   14.0283 O   0  0  0  0  0  0  0  0  0  0  0  0
   34.3104    8.4258   16.5086 O   0  0  0  0  0  0  0  0  0  0  0  0
   35.9152    5.4741   16.3231 O   0  0  0  0  0  0  0  0  0  0  0  0
   33.9817    8.1939   18.8033 O   0  0  0  0  0  0  0  0  0  0  0  0
   32.5738    8.4902   18.6495 C   0  0  2  0  0  0  0  0  0  0  0  0
   32.0165    9.3935   19.7618 C   0  0  1  0  0  0  0  0  0  0  0  0
   31.9692    8.6445   21.1202 C   0  0  2  0  0  0  0  0  0  0  0  0
   31.1351    7.3909   20.9876 C   0  0  1  0  0  0  0  0  0  0  0  0
   31.7375    6.4908   19.8830 C   0  0  1  0  0  0  0  0  0  0  0  0
   30.9262    5.2188   19.6474 C   0  0  0  0  0  0  0  0  0  0  0  0
   31.1128    6.6987   22.2929 N   0  0  0  0  0  0  0  0  0  0  0  0
   31.7868    7.2356   18.6121 O   0  0  0  0  0  0  0  0  0  0  0  0
   32.8196   10.5810   19.8246 O   0  0  0  0  0  0  0  0  0  0  0  0
   31.3759    9.4887   22.1163 O   0  0  0  0  0  0  0  0  0  0  0  0
   31.4858    4.4991   18.5813 O   0  0  0  0  0  0  0  0  0  0  0  0
   38.3860    9.5432   13.9725 C   0  0  1  0  0  0  0  0  0  0  0  0
   37.5443   10.0937   15.1448 C   0  0  1  0  0  0  0  0  0  0  0  0
   38.4349   10.4210   16.3678 C   0  0  2  0  0  0  0  0  0  0  0  0
   39.1860    9.1631   16.8203 C   0  0  1  0  0  0  0  0  0  0  0  0
   40.0642    8.6204   15.6640 C   0  0  0  0  0  0  0  0  0  0  0  0
   39.1616    8.2881   14.4712 C   0  0  2  0  0  0  0  0  0  0  0  0
   40.0437    9.4856   17.9825 N   0  0  0  0  0  0  0  0  0  0  0  0
   40.0212    7.7648   13.4128 N   0  0  0  0  0  0  0  0  0  0  0  0
   36.8798   11.3039   14.7206 O   0  0  0  0  0  0  0  0  0  0  0  0
   37.5964   10.9064   17.4383 O   0  0  0  0  0  0  0  0  0  0  0  0
  1  2  1  0  0  0  0
  1 12  1  1  0  0  0
  1 13  1  0  0  0  0
  2  3  1  0  0  0  0
  2 10  1  6  0  0  0
  4  3  1  6  0  0  0
  4  5  1  0  0  0  0
  4 14  1  0  0  0  0
  5  6  1  0  0  0  0
  5 13  1  6  0  0  0
  6  7  1  0  0  0  0
  6 15  1  6  0  0  0
  7  8  1  0  0  0  0
  7 11  1  1  0  0  0
  8 14  1  0  0  0  0
  8 16  1  1  0  0  0
  9 11  1  0  0  0  0
 17 16  1  1  0  0  0
 17 18  1  0  0  0  0
 17 24  1  0  0  0  0
 18 19  1  0  0  0  0
 18 25  1  1  0  0  0
 19 20  1  0  0  0  0
 19 26  1  1  0  0  0
 20 21  1  0  0  0  0
 20 23  1  1  0  0  0
 21 22  1  6  0  0  0
 21 24  1  0  0  0  0
 22 27  1  0  0  0  0
 28 12  1  6  0  0  0
 28 29  1  0  0  0  0
 28 33  1  0  0  0  0
 29 30  1  0  0  0  0
 29 36  1  6  0  0  0
 30 31  1  0  0  0  0
 30 37  1  1  0  0  0
 31 32  1  0  0  0  0
 31 34  1  1  0  0  0
 32 33  1  0  0  0  0
 33 35  1  6  0  0  0
M  END
>  <CHROM.1>
122.41739656,173.81825436,178.30671640,-169.30974002,176.40107321,-76.43164657
35.27677912,8.19346037,17.02798159,0.70355072,-0.40967468,-1.77046514

>  <Name>
1yrj_lig

>  <RI>
0

>  <Rbt.Current_Directory>
/home/itssahil/PROJECTS/Mol_Feturizer/New_Systems/rnas/1yrj

>  <Rbt.Executable>
rbdock ($Id: //depot/dev/client3/rdock/2013.1/src/exe/rbdock.cxx#4 $)

>  <Rbt.Library>
libRbt.so (2013.1, Build901 2013/11/27)

>  <Rbt.Parameter_File>
/export/apps/rDock/src/rDock_2013.1_src/data/scripts/dock_solv.prm

>  <Rbt.Receptor>
prm/blind_docking_60.prm

>  <SCORE>
-0.33348

>  <SCORE.INTER>
0.390209

>  <SCORE.INTER.CONST>
1

>  <SCORE.INTER.POLAR>
0

>  <SCORE.INTER.ROT>
6

>  <SCORE.INTER.SOLV>
20.8473

>  <SCORE.INTER.VDW>
-14.289

>  <SCORE.INTER.norm>
0.0105462

>  <SCORE.INTRA>
-1.60038

>  <SCORE.INTRA.DIHEDRAL>
-6.60493

>  <SCORE.INTRA.DIHEDRAL.0>
15.6389

>  <SCORE.INTRA.POLAR>
0

>  <SCORE.INTRA.POLAR.0>
0

>  <SCORE.INTRA.REPUL>
0

>  <SCORE.INTRA.REPUL.0>
0

>  <SCORE.INTRA.SOLV>
-0.203384

>  <SCORE.INTRA.SOLV.lig_0>
-90.9181

>  <SCORE.INTRA.VDW>
1.80378

>  <SCORE.INTRA.VDW.0>
-3.14158

>  <SCORE.INTRA.norm>
-0.0432535

>  <SCORE.RESTR>
0.876689

>  <SCORE.RESTR.CAVITY>
0.876689

>  <SCORE.RESTR.norm>
0.0236943

>  <SCORE.SYSTEM>
0

>  <SCORE.SYSTEM.CONST>
0

>  <SCORE.SYSTEM.DIHEDRAL>
0

>  <SCORE.SYSTEM.SOLV>
0

>  <SCORE.SYSTEM.norm>
0

>  <SCORE.heavy>
37

>  <SCORE.norm>
-0.00901297

>  <RMSD>
12.944

$$$$
1yrj_lig
 OpenBabel11021811423D
libRbt.so/2013.1/901 2013/11/27
 37 40  0  0  0  0  0  0  0  0999 V2000
   33.9529    4.1974   18.6893 C   0  0  1  0  0  0  0  0  0  0  0  0
   35.2434    4.2778   19.5282 C   0  0  1  0  0  0  0  0  0  0  0  0
   35.8837    5.6734   19.4592 C   0  0  0  0  0  0  0  0  0  0  0  0
   36.1304    6.0729   17.9810 C   0  0  1  0  0  0  0  0  0  0  0  0
   34.8068    6.0273   17.1941 C   0  0  1  0  0  0  0  0  0  0  0  0
   35.0847    6.4521   15.6907 C   0  0  1  0  0  0  0  0  0  0  0  0
   35.6764    7.8706   15.6545 C   0  0  1  0  0  0  0  0  0  0  0  0
   36.9746    7.8739   16.4978 C   0  0  2  0  0  0  0  0  0  0  0  0
   34.6771    8.6385   13.4368 C   0  0  0  0  0  0  0  0  0  0  0  0
   35.0126    3.8924   20.9301 N   0  0  0  0  0  0  0  0  0  0  0  0
   35.8944    8.2984   14.2378 N   0  0  0  0  0  0  0  0  0  0  0  0
   32.8323    4.8755   19.2872 O   0  0  0  0  0  0  0  0  0  0  0  0
   34.2385    4.6699   17.3204 O   0  0  0  0  0  0  0  0  0  0  0  0
   36.7119    7.4292   17.8588 O   0  0  0  0  0  0  0  0  0  0  0  0
   36.0436    5.5821   15.1267 O   0  0  0  0  0  0  0  0  0  0  0  0
   37.5599    9.1746   16.5696 O   0  0  0  0  0  0  0  0  0  0  0  0
   38.8857    9.1732   17.1492 C   0  0  2  0  0  0  0  0  0  0  0  0
   39.4480   10.5841   17.3870 C   0  0  1  0  0  0  0  0  0  0  0  0
   39.7612   11.2956   16.0439 C   0  0  2  0  0  0  0  0  0  0  0  0
   40.7340   10.4665   15.2371 C   0  0  1  0  0  0  0  0  0  0  0  0
   40.1279    9.0648   14.9896 C   0  0  1  0  0  0  0  0  0  0  0  0
   41.0681    8.1403   14.2195 C   0  0  0  0  0  0  0  0  0  0  0  0
   41.0085   11.1661   13.9648 N   0  0  0  0  0  0  0  0  0  0  0  0
   39.8239    8.4236   16.2815 O   0  0  0  0  0  0  0  0  0  0  0  0
   38.5061   11.3178   18.1829 O   0  0  0  0  0  0  0  0  0  0  0  0
   40.3527   12.5764   16.3027 O   0  0  0  0  0  0  0  0  0  0  0  0
   42.1321    7.7593   15.0506 O   0  0  0  0  0  0  0  0  0  0  0  0
   32.7911    6.3722   19.5566 C   0  0  1  0  0  0  0  0  0  0  0  0
   31.5835    6.9414   18.7796 C   0  0  1  0  0  0  0  0  0  0  0  0
   31.4130    8.4573   19.0428 C   0  0  2  0  0  0  0  0  0  0  0  0
   31.2246    8.7103   20.5433 C   0  0  1  0  0  0  0  0  0  0  0  0
   32.4472    8.1767   21.3327 C   0  0  0  0  0  0  0  0  0  0  0  0
   32.5874    6.6735   21.0710 C   0  0  2  0  0  0  0  0  0  0  0  0
   31.0733   10.1620   20.7890 N   0  0  0  0  0  0  0  0  0  0  0  0
   33.7354    6.2066   21.8436 N   0  0  0  0  0  0  0  0  0  0  0  0
   31.7953    6.7395   17.3653 O   0  0  0  0  0  0  0  0  0  0  0  0
   30.2594    8.9298   18.3144 O   0  0  0  0  0  0  0  0  0  0  0  0
  1  2  1  0  0  0  0
  1 12  1  1  0  0  0
  1 13  1  0  0  0  0
  2  3  1  0  0  0  0
  2 10  1  1  0  0  0
  4  3  1  1  0  0  0
  4  5  1  0  0  0  0
  4 14  1  0  0  0  0
  5  6  1  0  0  0  0
  5 13  1  6  0  0  0
  6  7  1  0  0  0  0
  6 15  1  1  0  0  0
  7  8  1  0  0  0  0
  7 11  1  6  0  0  0
  8 14  1  0  0  0  0
  8 16  1  1  0  0  0
  9 11  1  0  0  0  0
 17 16  1  6  0  0  0
 17 18  1  0  0  0  0
 17 24  1  0  0  0  0
 18 19  1  0  0  0  0
 18 25  1  6  0  0  0
 19 20  1  0  0  0  0
 19 26  1  1  0  0  0
 20 21  1  0  0  0  0
 20 23  1  6  0  0  0
 21 22  1  1  0  0  0
 21 24  1  0  0  0  0
 22 27  1  0  0  0  0
 28 12  1  1  0  0  0
 28 29  1  0  0  0  0
 28 33  1  0  0  0  0
 29 30  1  0  0  0  0
 29 36  1  6  0  0  0
 30 31  1  0  0  0  0
 30 37  1  6  0  0  0
 31 32  1  0  0  0  0
 31 34  1  6  0  0  0
 32 33  1  0  0  0  0
 33 35  1  1  0  0  0
M  END
>  <CHROM.1>
62.68727546,72.91318223,-169.92778734,-172.91153935,71.56413908,121.02739311
35.90346518,7.80503418,17.50471535,-2.83584495,0.52545553,0.07763870

>  <Name>
1yrj_lig

>  <RI>
0

>  <Rbt.Current_Directory>
/home/itssahil/PROJECTS/Mol_Feturizer/New_Systems/rnas/1yrj

>  <Rbt.Executable>
rbdock ($Id: //depot/dev/client3/rdock/2013.1/src/exe/rbdock.cxx#4 $)

>  <Rbt.Library>
libRbt.so (2013.1, Build901 2013/11/27)

>  <Rbt.Parameter_File>
/export/apps/rDock/src/rDock_2013.1_src/data/scripts/dock_solv.prm

>  <Rbt.Receptor>
prm/blind_docking_60.prm

>  <SCORE>
-9.92506

>  <SCORE.INTER>
-7.51593

>  <SCORE.INTER.CONST>
1

>  <SCORE.INTER.POLAR>
-0.0307519

>  <SCORE.INTER.ROT>
6

>  <SCORE.INTER.SOLV>
15.9933

>  <SCORE.INTER.VDW>
-17.8392

>  <SCORE.INTER.norm>
-0.203133

>  <SCORE.INTRA>
-2.44878

>  <SCORE.INTRA.DIHEDRAL>
-6.97426

>  <SCORE.INTRA.DIHEDRAL.0>
15.6389

>  <SCORE.INTRA.POLAR>
0

>  <SCORE.INTRA.POLAR.0>
0

>  <SCORE.INTRA.REPUL>
0

>  <SCORE.INTRA.REPUL.0>
0

>  <SCORE.INTRA.SOLV>
3.01372

>  <SCORE.INTRA.SOLV.lig_0>
-90.9181

>  <SCORE.INTRA.VDW>
-0.46851

>  <SCORE.INTRA.VDW.0>
-3.14158

>  <SCORE.INTRA.norm>
-0.0661832

>  <SCORE.RESTR>
0.0396457

>  <SCORE.RESTR.CAVITY>
0.0396457

>  <SCORE.RESTR.norm>
0.00107151

>  <SCORE.SYSTEM>
0

>  <SCORE.SYSTEM.CONST>
0

>  <SCORE.SYSTEM.DIHEDRAL>
0

>  <SCORE.SYSTEM.SOLV>
0

>  <SCORE.SYSTEM.norm>
0

>  <SCORE.heavy>
37

>  <SCORE.norm>
-0.268245

>  <RMSD>
13.039

$$$$
1yrj_lig
 OpenBabel11021811423D
libRbt.so/2013.1/901 2013/11/27
 37 40  0  0  0  0  0  0  0  0999 V2000
   35.5482    9.7897   14.9874 C   0  0  1  0  0  0  0  0  0  0  0  0
   34.5810   10.6100   15.8632 C   0  0  1  0  0  0  0  0  0  0  0  0
   34.0655    9.7968   17.0612 C   0  0  0  0  0  0  0  0  0  0  0  0
   33.4188    8.4759   16.5687 C   0  0  1  0  0  0  0  0  0  0  0  0
   34.4360    7.6667   15.7418 C   0  0  1  0  0  0  0  0  0  0  0  0
   33.7541    6.3165   15.2620 C   0  0  1  0  0  0  0  0  0  0  0  0
   33.2965    5.5046   16.4846 C   0  0  1  0  0  0  0  0  0  0  0  0
   32.3170    6.3784   17.3053 C   0  0  2  0  0  0  0  0  0  0  0  0
   32.8252    3.0471   16.9794 C   0  0  0  0  0  0  0  0  0  0  0  0
   35.1907   11.8674   16.3261 N   0  0  0  0  0  0  0  0  0  0  0  0
   32.6980    4.2070   16.0426 N   0  0  0  0  0  0  0  0  0  0  0  0
   36.8481    9.6061   15.5788 O   0  0  0  0  0  0  0  0  0  0  0  0
   34.9034    8.5123   14.6249 O   0  0  0  0  0  0  0  0  0  0  0  0
   32.9399    7.6364   17.6905 O   0  0  0  0  0  0  0  0  0  0  0  0
   32.6025    6.6168   14.5016 O   0  0  0  0  0  0  0  0  0  0  0  0
   31.8883    5.7210   18.4985 O   0  0  0  0  0  0  0  0  0  0  0  0
   31.0435    6.5469   19.3338 C   0  0  2  0  0  0  0  0  0  0  0  0
   30.6054    5.8517   20.6332 C   0  0  1  0  0  0  0  0  0  0  0  0
   29.6153    4.6928   20.3417 C   0  0  2  0  0  0  0  0  0  0  0  0
   28.4136    5.2193   19.5912 C   0  0  1  0  0  0  0  0  0  0  0  0
   28.8840    5.8857   18.2766 C   0  0  1  0  0  0  0  0  0  0  0  0
   27.7339    6.4907   17.4747 C   0  0  0  0  0  0  0  0  0  0  0  0
   27.4935    4.0943   19.3247 N   0  0  0  0  0  0  0  0  0  0  0  0
   29.8363    6.9675   18.5851 O   0  0  0  0  0  0  0  0  0  0  0  0
   31.7803    5.4012   21.3230 O   0  0  0  0  0  0  0  0  0  0  0  0
   29.1699    4.1165   21.5772 O   0  0  0  0  0  0  0  0  0  0  0  0
   28.2425    7.1072   16.3218 O   0  0  0  0  0  0  0  0  0  0  0  0
   38.0997    9.2591   14.7866 C   0  0  1  0  0  0  0  0  0  0  0  0
   39.3054    9.8219   15.5709 C   0  0  1  0  0  0  0  0  0  0  0  0
   40.6416    9.4611   14.8777 C   0  0  2  0  0  0  0  0  0  0  0  0
   40.7735    7.9384   14.7550 C   0  0  1  0  0  0  0  0  0  0  0  0
   39.5884    7.3637   13.9378 C   0  0  0  0  0  0  0  0  0  0  0  0
   38.2786    7.7180   14.6496 C   0  0  2  0  0  0  0  0  0  0  0  0
   42.0475    7.6010   14.0816 N   0  0  0  0  0  0  0  0  0  0  0  0
   37.1908    7.1456   13.8610 N   0  0  0  0  0  0  0  0  0  0  0  0
   39.1941   11.2603   15.6383 O   0  0  0  0  0  0  0  0  0  0  0  0
   41.7317    9.9888   15.6638 O   0  0  0  0  0  0  0  0  0  0  0  0
  1  2  1  0  0  0  0
  1 12  1  1  0  0  0
  1 13  1  0  0  0  0
  2  3  1  0  0  0  0
  2 10  1  1  0  0  0
  4  3  1  1  0  0  0
  4  5  1  0  0  0  0
  4 14  1  0  0  0  0
  5  6  1  0  0  0  0
  5 13  1  6  0  0  0
  6  7  1  0  0  0  0
  6 15  1  6  0  0  0
  7  8  1  0  0  0  0
  7 11  1  6  0  0  0
  8 14  1  0  0  0  0
  8 16  1  1  0  0  0
  9 11  1  0  0  0  0
 17 16  1  6  0  0  0
 17 18  1  0  0  0  0
 17 24  1  0  0  0  0
 18 19  1  0  0  0  0
 18 25  1  6  0  0  0
 19 20  1  0  0  0  0
 19 26  1  1  0  0  0
 20 21  1  0  0  0  0
 20 23  1  6  0  0  0
 21 22  1  1  0  0  0
 21 24  1  0  0  0  0
 22 27  1  0  0  0  0
 28 12  1  1  0  0  0
 28 29  1  0  0  0  0
 28 33  1  0  0  0  0
 29 30  1  0  0  0  0
 29 36  1  6  0  0  0
 30 31  1  0  0  0  0
 30 37  1  1  0  0  0
 31 32  1  0  0  0  0
 31 34  1  6  0  0  0
 32 33  1  0  0  0  0
 33 35  1  6  0  0  0
M  END
>  <CHROM.1>
-159.01820021,150.20305227,176.02967532,-178.76634015,178.29393245,152.34500021
34.04939950,7.33833312,16.78164378,0.41374222,0.32600680,-0.20563429

>  <Name>
1yrj_lig

>  <RI>
224

>  <Rbt.Current_Directory>
/home/itssahil/PROJECTS/Mol_Feturizer/New_Systems/rnas/1yrj

>  <Rbt.Executable>
rbdock ($Id: //depot/dev/client3/rdock/2013.1/src/exe/rbdock.cxx#4 $)

>  <Rbt.Library>
libRbt.so (2013.1, Build901 2013/11/27)

>  <Rbt.Parameter_File>
/export/apps/rDock/src/rDock_2013.1_src/data/scripts/dock_solv.prm

>  <Rbt.Receptor>
prm/blind_docking_80.prm

>  <SCORE>
-11.172

>  <SCORE.INTER>
-6.72809

>  <SCORE.INTER.CONST>
1

>  <SCORE.INTER.POLAR>
0

>  <SCORE.INTER.ROT>
6

>  <SCORE.INTER.SOLV>
17.4555

>  <SCORE.INTER.VDW>
-17.9039

>  <SCORE.INTER.norm>
-0.18184

>  <SCORE.INTRA>
-4.85668

>  <SCORE.INTRA.DIHEDRAL>
-9.75937

>  <SCORE.INTRA.DIHEDRAL.0>
15.6389

>  <SCORE.INTRA.POLAR>
0

>  <SCORE.INTRA.POLAR.0>
0

>  <SCORE.INTRA.REPUL>
0

>  <SCORE.INTRA.REPUL.0>
0

>  <SCORE.INTRA.SOLV>
-0.218002

>  <SCORE.INTRA.SOLV.lig_0>
-90.9181

>  <SCORE.INTRA.VDW>
0.132007

>  <SCORE.INTRA.VDW.0>
-3.14158

>  <SCORE.INTRA.norm>
-0.131262

>  <SCORE.RESTR>
0.412806

>  <SCORE.RESTR.CAVITY>
0.412806

>  <SCORE.RESTR.norm>
0.0111569

>  <SCORE.SYSTEM>
0

>  <SCORE.SYSTEM.CONST>
0

>  <SCORE.SYSTEM.DIHEDRAL>
0

>  <SCORE.SYSTEM.SOLV>
0

>  <SCORE.SYSTEM.norm>
0

>  <SCORE.heavy>
37

>  <SCORE.norm>
-0.301945

>  <RMSD>
13.115

$$$$
1yrj_lig
 OpenBabel11021811423D
libRbt.so/2013.1/901 2013/11/27
 37 40  0  0  0  0  0  0  0  0999 V2000
   36.9635    7.1904   14.4182 C   0  0  1  0  0  0  0  0  0  0  0  0
   36.0616    5.9508   14.2588 C   0  0  1  0  0  0  0  0  0  0  0  0
   34.8615    5.9902   15.2183 C   0  0  0  0  0  0  0  0  0  0  0  0
   35.3539    6.1618   16.6790 C   0  0  1  0  0  0  0  0  0  0  0  0
   36.2077    7.4381   16.8016 C   0  0  1  0  0  0  0  0  0  0  0  0
   36.6870    7.5966   18.3060 C   0  0  1  0  0  0  0  0  0  0  0  0
   35.4634    7.6841   19.2326 C   0  0  1  0  0  0  0  0  0  0  0  0
   34.6158    6.4038   19.0355 C   0  0  2  0  0  0  0  0  0  0  0  0
   35.8549    9.2806   21.1832 C   0  0  0  0  0  0  0  0  0  0  0  0
   35.5988    5.7824   12.8715 N   0  0  0  0  0  0  0  0  0  0  0  0
   35.9059    7.8843   20.6474 N   0  0  0  0  0  0  0  0  0  0  0  0
   36.3990    8.3910   13.8585 O   0  0  0  0  0  0  0  0  0  0  0  0
   37.3255    7.3425   15.8410 O   0  0  0  0  0  0  0  0  0  0  0  0
   34.2309    6.2445   17.6407 O   0  0  0  0  0  0  0  0  0  0  0  0
   37.4221    6.4526   18.6873 O   0  0  0  0  0  0  0  0  0  0  0  0
   33.4208    6.4304   19.8171 O   0  0  0  0  0  0  0  0  0  0  0  0
   32.6110    7.6064   19.5828 C   0  0  2  0  0  0  0  0  0  0  0  0
   31.3644    7.6761   20.4798 C   0  0  1  0  0  0  0  0  0  0  0  0
   30.3351    6.5807   20.0939 C   0  0  2  0  0  0  0  0  0  0  0  0
   29.9502    6.7260   18.6394 C   0  0  1  0  0  0  0  0  0  0  0  0
   31.2203    6.6220   17.7620 C   0  0  1  0  0  0  0  0  0  0  0  0
   30.9293    6.8069   16.2744 C   0  0  0  0  0  0  0  0  0  0  0  0
   28.9750    5.6686   18.3014 N   0  0  0  0  0  0  0  0  0  0  0  0
   32.1846    7.6612   18.1651 O   0  0  0  0  0  0  0  0  0  0  0  0
   31.7850    7.5677   21.8474 O   0  0  0  0  0  0  0  0  0  0  0  0
   29.1559    6.7217   20.8980 O   0  0  0  0  0  0  0  0  0  0  0  0
   32.1079    6.6078   15.5402 O   0  0  0  0  0  0  0  0  0  0  0  0
   36.7653    9.7947   14.3166 C   0  0  1  0  0  0  0  0  0  0  0  0
   35.9618   10.0771   15.6053 C   0  0  1  0  0  0  0  0  0  0  0  0
   36.3160   11.4648   16.1927 C   0  0  2  0  0  0  0  0  0  0  0  0
   37.8172   11.5372   16.4965 C   0  0  1  0  0  0  0  0  0  0  0  0
   38.6363   11.2920   15.2036 C   0  0  0  0  0  0  0  0  0  0  0  0
   38.2827    9.9082   14.6488 C   0  0  2  0  0  0  0  0  0  0  0  0
   38.1507   12.8698   17.0473 N   0  0  0  0  0  0  0  0  0  0  0  0
   39.0854    9.7082   13.4453 N   0  0  0  0  0  0  0  0  0  0  0  0
   34.5512   10.0532   15.2960 O   0  0  0  0  0  0  0  0  0  0  0  0
   35.5574   11.6650   17.4048 O   0  0  0  0  0  0  0  0  0  0  0  0
  1  2  1  0  0  0  0
  1 12  1  1  0  0  0
  1 13  1  0  0  0  0
  2  3  1  0  0  0  0
  2 10  1  6  0  0  0
  4  3  1  6  0  0  0
  4  5  1  0  0  0  0
  4 14  1  0  0  0  0
  5  6  1  0  0  0  0
  5 13  1  6  0  0  0
  6  7  1  0  0  0  0
  6 15  1  1  0  0  0
  7  8  1  0  0  0  0
  7 11  1  1  0  0  0
  8 14  1  0  0  0  0
  8 16  1  1  0  0  0
  9 11  1  0  0  0  0
 17 16  1  6  0  0  0
 17 18  1  0  0  0  0
 17 24  1  0  0  0  0
 18 19  1  0  0  0  0
 18 25  1  1  0  0  0
 19 20  1  0  0  0  0
 19 26  1  1  0  0  0
 20 21  1  0  0  0  0
 20 23  1  6  0  0  0
 21 22  1  6  0  0  0
 21 24  1  0  0  0  0
 22 27  1  0  0  0  0
 28 12  1  1  0  0  0
 28 29  1  0  0  0  0
 28 33  1  0  0  0  0
 29 30  1  0  0  0  0
 29 36  1  6  0  0  0
 30 31  1  0  0  0  0
 30 37  1  1  0  0  0
 31 32  1  0  0  0  0
 31 34  1  6  0  0  0
 32 33  1  0  0  0  0
 33 35  1  6  0  0  0
M  END
>  <CHROM.1>
155.24786730,99.68269811,54.71679532,-176.76530957,-175.94623063,-80.39679395
34.67539174,8.01326558,17.26509678,0.33365171,-0.61749173,-2.01276663

>  <Name>
1yrj_lig

>  <RI>
0

>  <Rbt.Current_Directory>
/home/itssahil/PROJECTS/Mol_Feturizer/New_Systems/rnas/1yrj

>  <Rbt.Executable>
rbdock ($Id: //depot/dev/client3/rdock/2013.1/src/exe/rbdock.cxx#4 $)

>  <Rbt.Library>
libRbt.so (2013.1, Build901 2013/11/27)

>  <Rbt.Parameter_File>
/export/apps/rDock/src/rDock_2013.1_src/data/scripts/dock_solv.prm

>  <Rbt.Receptor>
prm/blind_docking_60.prm

>  <SCORE>
-11.6273

>  <SCORE.INTER>
-6.73461

>  <SCORE.INTER.CONST>
1

>  <SCORE.INTER.POLAR>
-1.23148

>  <SCORE.INTER.ROT>
6

>  <SCORE.INTER.SOLV>
18.7392

>  <SCORE.INTER.VDW>
-14.2312

>  <SCORE.INTER.norm>
-0.182016

>  <SCORE.INTRA>
-5.15335

>  <SCORE.INTRA.DIHEDRAL>
-9.95166

>  <SCORE.INTRA.DIHEDRAL.0>
15.6389

>  <SCORE.INTRA.POLAR>
0

>  <SCORE.INTRA.POLAR.0>
0

>  <SCORE.INTRA.REPUL>
0

>  <SCORE.INTRA.REPUL.0>
0

>  <SCORE.INTRA.SOLV>
0.0172441

>  <SCORE.INTRA.SOLV.lig_0>
-90.9181

>  <SCORE.INTRA.VDW>
-0.186145

>  <SCORE.INTRA.VDW.0>
-3.14158

>  <SCORE.INTRA.norm>
-0.13928

>  <SCORE.RESTR>
0.260651

>  <SCORE.RESTR.CAVITY>
0.260651

>  <SCORE.RESTR.norm>
0.00704463

>  <SCORE.SYSTEM>
0

>  <SCORE.SYSTEM.CONST>
0

>  <SCORE.SYSTEM.DIHEDRAL>
0

>  <SCORE.SYSTEM.SOLV>
0

>  <SCORE.SYSTEM.norm>
0

>  <SCORE.heavy>
37

>  <SCORE.norm>
-0.314252

>  <RMSD>
13.123

$$$$
1yrj_lig
 OpenBabel11021811423D
libRbt.so/2013.1/901 2013/11/27
 37 40  0  0  0  0  0  0  0  0999 V2000
   32.8981    4.7682   17.7171 C   0  0  1  0  0  0  0  0  0  0  0  0
   34.3055    4.1435   17.6515 C   0  0  1  0  0  0  0  0  0  0  0  0
   35.3942    5.1421   18.0755 C   0  0  0  0  0  0  0  0  0  0  0  0
   35.2949    6.4321   17.2201 C   0  0  1  0  0  0  0  0  0  0  0  0
   33.8897    7.0485   17.3560 C   0  0  1  0  0  0  0  0  0  0  0  0
   33.8192    8.3716   16.4829 C   0  0  1  0  0  0  0  0  0  0  0  0
   34.8860    9.3678   16.9656 C   0  0  1  0  0  0  0  0  0  0  0  0
   36.2704    8.6841   16.8551 C   0  0  2  0  0  0  0  0  0  0  0  0
   35.3791   11.8653   16.8045 C   0  0  0  0  0  0  0  0  0  0  0  0
   34.3998    2.9152   18.4574 N   0  0  0  0  0  0  0  0  0  0  0  0
   34.7930   10.6378   16.1808 N   0  0  0  0  0  0  0  0  0  0  0  0
   32.3999    4.9298   19.0584 O   0  0  0  0  0  0  0  0  0  0  0  0
   32.8964    6.0319   16.9544 O   0  0  0  0  0  0  0  0  0  0  0  0
   36.3004    7.4440   17.6170 O   0  0  0  0  0  0  0  0  0  0  0  0
   34.1122    8.0617   15.1365 O   0  0  0  0  0  0  0  0  0  0  0  0
   37.3188    9.5216   17.3441 O   0  0  0  0  0  0  0  0  0  0  0  0
   38.6025    8.8563   17.3998 C   0  0  2  0  0  0  0  0  0  0  0  0
   39.7940    9.8265   17.3493 C   0  0  1  0  0  0  0  0  0  0  0  0
   39.9156   10.4916   15.9525 C   0  0  2  0  0  0  0  0  0  0  0  0
   40.0522    9.4285   14.8866 C   0  0  1  0  0  0  0  0  0  0  0  0
   38.8257    8.4874   14.9437 C   0  0  1  0  0  0  0  0  0  0  0  0
   38.9044    7.3496   13.9283 C   0  0  0  0  0  0  0  0  0  0  0  0
   40.1610   10.0912   13.5704 N   0  0  0  0  0  0  0  0  0  0  0  0
   38.7264    7.8871   16.2862 O   0  0  0  0  0  0  0  0  0  0  0  0
   39.6350   10.7925   18.3984 O   0  0  0  0  0  0  0  0  0  0  0  0
   41.0782   11.3306   15.9171 O   0  0  0  0  0  0  0  0  0  0  0  0
   37.7074    6.6185   13.9528 O   0  0  0  0  0  0  0  0  0  0  0  0
   31.1641    5.7431   19.4126 C   0  0  1  0  0  0  0  0  0  0  0  0
   31.5213    7.2306   19.1985 C   0  0  1  0  0  0  0  0  0  0  0  0
   30.3011    8.1437   19.4694 C   0  0  2  0  0  0  0  0  0  0  0  0
   29.1409    7.7554   18.5453 C   0  0  1  0  0  0  0  0  0  0  0  0
   28.7470    6.2740   18.7759 C   0  0  0  0  0  0  0  0  0  0  0  0
   29.9632    5.3879   18.4867 C   0  0  2  0  0  0  0  0  0  0  0  0
   27.9744    8.6247   18.8173 N   0  0  0  0  0  0  0  0  0  0  0  0
   29.5479    4.0037   18.6972 N   0  0  0  0  0  0  0  0  0  0  0  0
   32.5824    7.5962   20.1076 O   0  0  0  0  0  0  0  0  0  0  0  0
   30.6836    9.5154   19.2310 O   0  0  0  0  0  0  0  0  0  0  0  0
  1  2  1  0  0  0  0
  1 12  1  1  0  0  0
  1 13  1  0  0  0  0
  2  3  1  0  0  0  0
  2 10  1  1  0  0  0
  4  3  1  1  0  0  0
  4  5  1  0  0  0  0
  4 14  1  0  0  0  0
  5  6  1  0  0  0  0
  5 13  1  6  0  0  0
  6  7  1  0  0  0  0
  6 15  1  6  0  0  0
  7  8  1  0  0  0  0
  7 11  1  6  0  0  0
  8 14  1  0  0  0  0
  8 16  1  1  0  0  0
  9 11  1  0  0  0  0
 17 16  1  6  0  0  0
 17 18  1  0  0  0  0
 17 24  1  0  0  0  0
 18 19  1  0  0  0  0
 18 25  1  1  0  0  0
 19 20  1  0  0  0  0
 19 26  1  1  0  0  0
 20 21  1  0  0  0  0
 20 23  1  6  0  0  0
 21 22  1  6  0  0  0
 21 24  1  0  0  0  0
 22 27  1  0  0  0  0
 28 12  1  6  0  0  0
 28 29  1  0  0  0  0
 28 33  1  0  0  0  0
 29 30  1  0  0  0  0
 29 36  1  1  0  0  0
 30 31  1  0  0  0  0
 30 37  1  6  0  0  0
 31 32  1  0  0  0  0
 31 34  1  1  0  0  0
 32 33  1  0  0  0  0
 33 35  1  1  0  0  0
M  END
>  <CHROM.1>
168.40117442,158.46735755,173.22860650,156.11575377,-174.45360443,-70.43993657
34.89101611,7.77922686,17.27052874,-2.82717764,0.35404336,0.06740912

>  <Name>
1yrj_lig

>  <RI>
0

>  <Rbt.Current_Directory>
/home/itssahil/PROJECTS/Mol_Feturizer/New_Systems/rnas/1yrj

>  <Rbt.Executable>
rbdock ($Id: //depot/dev/client3/rdock/2013.1/src/exe/rbdock.cxx#4 $)

>  <Rbt.Library>
libRbt.so (2013.1, Build901 2013/11/27)

>  <Rbt.Parameter_File>
/export/apps/rDock/src/rDock_2013.1_src/data/scripts/dock_solv.prm

>  <Rbt.Receptor>
prm/blind_docking_60.prm

>  <SCORE>
-8.59668

>  <SCORE.INTER>
-2.85775

>  <SCORE.INTER.CONST>
1

>  <SCORE.INTER.POLAR>
0

>  <SCORE.INTER.ROT>
6

>  <SCORE.INTER.SOLV>
8.87052

>  <SCORE.INTER.VDW>
-12.462

>  <SCORE.INTER.norm>
-0.0772366

>  <SCORE.INTRA>
-5.74127

>  <SCORE.INTRA.DIHEDRAL>
-11.2362

>  <SCORE.INTRA.DIHEDRAL.0>
15.6389

>  <SCORE.INTRA.POLAR>
0

>  <SCORE.INTRA.POLAR.0>
0

>  <SCORE.INTRA.REPUL>
0.00654283

>  <SCORE.INTRA.REPUL.0>
0

>  <SCORE.INTRA.SOLV>
-1.40546

>  <SCORE.INTRA.SOLV.lig_0>
-90.9181

>  <SCORE.INTRA.VDW>
0.546872

>  <SCORE.INTRA.VDW.0>
-3.14158

>  <SCORE.INTRA.norm>
-0.155169

>  <SCORE.RESTR>
0.00233673

>  <SCORE.RESTR.CAVITY>
0.00233673

>  <SCORE.RESTR.norm>
6.31548e-05

>  <SCORE.SYSTEM>
0

>  <SCORE.SYSTEM.CONST>
0

>  <SCORE.SYSTEM.DIHEDRAL>
0

>  <SCORE.SYSTEM.SOLV>
0

>  <SCORE.SYSTEM.norm>
0

>  <SCORE.heavy>
37

>  <SCORE.norm>
-0.232343

>  <RMSD>
13.145

$$$$
1yrj_lig
 OpenBabel11021811423D
libRbt.so/2013.1/901 2013/11/27
 37 40  0  0  0  0  0  0  0  0999 V2000
   33.2178    3.8526   17.4687 C   0  0  1  0  0  0  0  0  0  0  0  0
   34.6966    3.4816   17.6949 C   0  0  1  0  0  0  0  0  0  0  0  0
   35.5909    4.7282   17.7862 C   0  0  0  0  0  0  0  0  0  0  0  0
   35.4037    5.6106   16.5244 C   0  0  1  0  0  0  0  0  0  0  0  0
   33.9212    5.9985   16.3670 C   0  0  1  0  0  0  0  0  0  0  0  0
   33.7598    6.9102   15.0783 C   0  0  1  0  0  0  0  0  0  0  0  0
   34.6269    8.1712   15.2243 C   0  0  1  0  0  0  0  0  0  0  0  0
   36.0956    7.7264   15.4285 C   0  0  2  0  0  0  0  0  0  0  0  0
   35.0762    8.6209   12.7540 C   0  0  0  0  0  0  0  0  0  0  0  0
   34.8754    2.6384   18.8882 N   0  0  0  0  0  0  0  0  0  0  0  0
   34.4417    9.0605   14.0359 N   0  0  0  0  0  0  0  0  0  0  0  0
   32.5697    4.3823   18.6402 O   0  0  0  0  0  0  0  0  0  0  0  0
   33.1211    4.7585   16.3073 O   0  0  0  0  0  0  0  0  0  0  0  0
   36.2171    6.8467   16.5819 O   0  0  0  0  0  0  0  0  0  0  0  0
   34.2265    6.2081   13.9452 O   0  0  0  0  0  0  0  0  0  0  0  0
   36.9655    8.8398   15.6360 O   0  0  0  0  0  0  0  0  0  0  0  0
   38.3598    8.4652   15.7325 C   0  0  2  0  0  0  0  0  0  0  0  0
   38.9491    8.6684   17.1379 C   0  0  1  0  0  0  0  0  0  0  0  0
   39.0694   10.1769   17.4817 C   0  0  2  0  0  0  0  0  0  0  0  0
   39.9192   10.8748   16.4446 C   0  0  1  0  0  0  0  0  0  0  0  0
   39.2850   10.6772   15.0474 C   0  0  1  0  0  0  0  0  0  0  0  0
   40.1079   11.3116   13.9284 C   0  0  0  0  0  0  0  0  0  0  0  0
   40.0112   12.3071   16.7959 N   0  0  0  0  0  0  0  0  0  0  0  0
   39.1667    9.2367   14.7586 O   0  0  0  0  0  0  0  0  0  0  0  0
   38.1284    7.9611   18.0788 O   0  0  0  0  0  0  0  0  0  0  0  0
   39.6907   10.3312   18.7652 O   0  0  0  0  0  0  0  0  0  0  0  0
   40.0760   12.7079   14.0597 O   0  0  0  0  0  0  0  0  0  0  0  0
   32.6811    5.8314   19.0898 C   0  0  1  0  0  0  0  0  0  0  0  0
   31.3392    6.5175   18.7511 C   0  0  1  0  0  0  0  0  0  0  0  0
   31.3255    7.9885   19.2329 C   0  0  2  0  0  0  0  0  0  0  0  0
   31.5649    8.0461   20.7463 C   0  0  1  0  0  0  0  0  0  0  0  0
   32.9265    7.3935   21.0971 C   0  0  0  0  0  0  0  0  0  0  0  0
   32.9120    5.9353   20.6265 C   0  0  2  0  0  0  0  0  0  0  0  0
   31.5617    9.4555   21.1982 N   0  0  0  0  0  0  0  0  0  0  0  0
   34.2007    5.3522   20.9900 N   0  0  0  0  0  0  0  0  0  0  0  0
   31.1483    6.4988   17.3197 O   0  0  0  0  0  0  0  0  0  0  0  0
   30.0437    8.5714   18.9139 O   0  0  0  0  0  0  0  0  0  0  0  0
  1  2  1  0  0  0  0
  1 12  1  1  0  0  0
  1 13  1  0  0  0  0
  2  3  1  0  0  0  0
  2 10  1  1  0  0  0
  4  3  1  1  0  0  0
  4  5  1  0  0  0  0
  4 14  1  0  0  0  0
  5  6  1  0  0  0  0
  5 13  1  6  0  0  0
  6  7  1  0  0  0  0
  6 15  1  6  0  0  0
  7  8  1  0  0  0  0
  7 11  1  6  0  0  0
  8 14  1  0  0  0  0
  8 16  1  1  0  0  0
  9 11  1  0  0  0  0
 17 16  1  1  0  0  0
 17 18  1  0  0  0  0
 17 24  1  0  0  0  0
 18 19  1  0  0  0  0
 18 25  1  1  0  0  0
 19 20  1  0  0  0  0
 19 26  1  1  0  0  0
 20 21  1  0  0  0  0
 20 23  1  1  0  0  0
 21 22  1  6  0  0  0
 21 24  1  0  0  0  0
 22 27  1  0  0  0  0
 28 12  1  1  0  0  0
 28 29  1  0  0  0  0
 28 33  1  0  0  0  0
 29 30  1  0  0  0  0
 29 36  1  6  0  0  0
 30 31  1  0  0  0  0
 30 37  1  1  0  0  0
 31 32  1  0  0  0  0
 31 34  1  6  0  0  0
 32 33  1  0  0  0  0
 33 35  1  6  0  0  0
M  END
>  <CHROM.1>
81.82789535,-73.46091985,-175.73578182,-111.77528927,-67.58574804,105.47917022
35.34819491,7.64565975,17.11542408,3.05587324,0.69420407,1.06335692

>  <Name>
1yrj_lig

>  <RI>
0

>  <Rbt.Current_Directory>
/home/itssahil/PROJECTS/Mol_Feturizer/New_Systems/rnas/1yrj

>  <Rbt.Executable>
rbdock ($Id: //depot/dev/client3/rdock/2013.1/src/exe/rbdock.cxx#4 $)

>  <Rbt.Library>
libRbt.so (2013.1, Build901 2013/11/27)

>  <Rbt.Parameter_File>
/export/apps/rDock/src/rDock_2013.1_src/data/scripts/dock_solv.prm

>  <Rbt.Receptor>
prm/blind_docking_60.prm

>  <SCORE>
-4.1433

>  <SCORE.INTER>
-6.60531

>  <SCORE.INTER.CONST>
1

>  <SCORE.INTER.POLAR>
0

>  <SCORE.INTER.ROT>
6

>  <SCORE.INTER.SOLV>
15.4598

>  <SCORE.INTER.VDW>
-17.1568

>  <SCORE.INTER.norm>
-0.178522

>  <SCORE.INTRA>
2.44435

>  <SCORE.INTRA.DIHEDRAL>
0.00890065

>  <SCORE.INTRA.DIHEDRAL.0>
15.6389

>  <SCORE.INTRA.POLAR>
0

>  <SCORE.INTRA.POLAR.0>
0

>  <SCORE.INTRA.REPUL>
0

>  <SCORE.INTRA.REPUL.0>
0

>  <SCORE.INTRA.SOLV>
2.30238

>  <SCORE.INTRA.SOLV.lig_0>
-90.9181

>  <SCORE.INTRA.VDW>
1.28871

>  <SCORE.INTRA.VDW.0>
-3.14158

>  <SCORE.INTRA.norm>
0.0660634

>  <SCORE.RESTR>
0.0176583

>  <SCORE.RESTR.CAVITY>
0.0176583

>  <SCORE.RESTR.norm>
0.00047725

>  <SCORE.SYSTEM>
0

>  <SCORE.SYSTEM.CONST>
0

>  <SCORE.SYSTEM.DIHEDRAL>
0

>  <SCORE.SYSTEM.SOLV>
0

>  <SCORE.SYSTEM.norm>
0

>  <SCORE.heavy>
37

>  <SCORE.norm>
-0.111981

>  <RMSD>
13.147

$$$$
1yrj_lig
 OpenBabel11021811423D
libRbt.so/2013.1/901 2013/11/27
 37 40  0  0  0  0  0  0  0  0999 V2000
   34.1147    3.8848   17.4547 C   0  0  1  0  0  0  0  0  0  0  0  0
   35.6406    3.8270   17.6638 C   0  0  1  0  0  0  0  0  0  0  0  0
   36.2757    5.2262   17.6280 C   0  0  0  0  0  0  0  0  0  0  0  0
   35.9011    5.9465   16.3064 C   0  0  1  0  0  0  0  0  0  0  0  0
   34.3692    6.0257   16.1645 C   0  0  1  0  0  0  0  0  0  0  0  0
   34.0138    6.7774   14.8129 C   0  0  1  0  0  0  0  0  0  0  0  0
   34.6201    8.1900   14.8313 C   0  0  1  0  0  0  0  0  0  0  0  0
   36.1502    8.0564   15.0247 C   0  0  2  0  0  0  0  0  0  0  0  0
   35.1216    8.7149   12.3860 C   0  0  0  0  0  0  0  0  0  0  0  0
   35.9983    3.1376   18.9144 N   0  0  0  0  0  0  0  0  0  0  0  0
   34.2472    8.9236   13.5822 N   0  0  0  0  0  0  0  0  0  0  0  0
   33.3931    4.3757   18.5998 O   0  0  0  0  0  0  0  0  0  0  0  0
   33.8258    4.6539   16.2285 O   0  0  0  0  0  0  0  0  0  0  0  0
   36.4582    7.3169   16.2402 O   0  0  0  0  0  0  0  0  0  0  0  0
   34.5918    6.0861   13.7254 O   0  0  0  0  0  0  0  0  0  0  0  0
   36.7890    9.3304   15.1159 O   0  0  0  0  0  0  0  0  0  0  0  0
   36.2009   10.1939   16.1170 C   0  0  2  0  0  0  0  0  0  0  0  0
   36.8776   11.5715   16.2065 C   0  0  1  0  0  0  0  0  0  0  0  0
   38.3121   11.4540   16.7867 C   0  0  2  0  0  0  0  0  0  0  0  0
   38.2645   10.7975   18.1474 C   0  0  1  0  0  0  0  0  0  0  0  0
   37.6062    9.4033   18.0192 C   0  0  1  0  0  0  0  0  0  0  0  0
   37.4728    8.6857   19.3605 C   0  0  0  0  0  0  0  0  0  0  0  0
   39.6426   10.6956   18.6707 N   0  0  0  0  0  0  0  0  0  0  0  0
   36.2549    9.5464   17.4484 O   0  0  0  0  0  0  0  0  0  0  0  0
   36.8675   12.1657   14.9004 O   0  0  0  0  0  0  0  0  0  0  0  0
   38.8847   12.7615   16.9265 O   0  0  0  0  0  0  0  0  0  0  0  0
   36.8124    7.4626   19.1717 O   0  0  0  0  0  0  0  0  0  0  0  0
   33.2456    5.8508   18.9417 C   0  0  1  0  0  0  0  0  0  0  0  0
   31.8232    6.2767   18.5159 C   0  0  1  0  0  0  0  0  0  0  0  0
   31.5476    7.7546   18.8848 C   0  0  2  0  0  0  0  0  0  0  0  0
   31.7144    7.9571   20.3955 C   0  0  1  0  0  0  0  0  0  0  0  0
   33.1502    7.5682   20.8313 C   0  0  0  0  0  0  0  0  0  0  0  0
   33.3956    6.0990   20.4719 C   0  0  2  0  0  0  0  0  0  0  0  0
   31.4605    9.3740   20.7395 N   0  0  0  0  0  0  0  0  0  0  0  0
   34.7476    5.7672   20.9131 N   0  0  0  0  0  0  0  0  0  0  0  0
   31.6945    6.1263   17.0852 O   0  0  0  0  0  0  0  0  0  0  0  0
   30.2006    8.0905   18.4880 O   0  0  0  0  0  0  0  0  0  0  0  0
  1  2  1  0  0  0  0
  1 12  1  1  0  0  0
  1 13  1  0  0  0  0
  2  3  1  0  0  0  0
  2 10  1  1  0  0  0
  4  3  1  1  0  0  0
  4  5  1  0  0  0  0
  4 14  1  0  0  0  0
  5  6  1  0  0  0  0
  5 13  1  6  0  0  0
  6  7  1  0  0  0  0
  6 15  1  6  0  0  0
  7  8  1  0  0  0  0
  7 11  1  6  0  0  0
  8 14  1  0  0  0  0
  8 16  1  1  0  0  0
  9 11  1  0  0  0  0
 17 16  1  6  0  0  0
 17 18  1  0  0  0  0
 17 24  1  0  0  0  0
 18 19  1  0  0  0  0
 18 25  1  6  0  0  0
 19 20  1  0  0  0  0
 19 26  1  1  0  0  0
 20 21  1  0  0  0  0
 20 23  1  6  0  0  0
 21 22  1  1  0  0  0
 21 24  1  0  0  0  0
 22 27  1  0  0  0  0
 28 12  1  1  0  0  0
 28 29  1  0  0  0  0
 28 33  1  0  0  0  0
 29 30  1  0  0  0  0
 29 36  1  6  0  0  0
 30 31  1  0  0  0  0
 30 37  1  1  0  0  0
 31 32  1  0  0  0  0
 31 34  1  6  0  0  0
 32 33  1  0  0  0  0
 33 35  1  6  0  0  0
M  END
>  <CHROM.1>
80.76932458,-85.72327807,52.91153500,-179.38511758,177.19737550,102.52133923
35.07725493,7.74710386,17.30792441,3.00161693,0.88123749,1.30187563

>  <Name>
1yrj_lig

>  <RI>
0

>  <Rbt.Current_Directory>
/home/itssahil/PROJECTS/Mol_Feturizer/New_Systems/rnas/1yrj

>  <Rbt.Executable>
rbdock ($Id: //depot/dev/client3/rdock/2013.1/src/exe/rbdock.cxx#4 $)

>  <Rbt.Library>
libRbt.so (2013.1, Build901 2013/11/27)

>  <Rbt.Parameter_File>
/export/apps/rDock/src/rDock_2013.1_src/data/scripts/dock_solv.prm

>  <Rbt.Receptor>
prm/blind_docking_60.prm

>  <SCORE>
-11.048

>  <SCORE.INTER>
-10.821

>  <SCORE.INTER.CONST>
1

>  <SCORE.INTER.POLAR>
-1.25329

>  <SCORE.INTER.ROT>
6

>  <SCORE.INTER.SOLV>
21.8321

>  <SCORE.INTER.VDW>
-17.9137

>  <SCORE.INTER.norm>
-0.292459

>  <SCORE.INTRA>
-0.277187

>  <SCORE.INTRA.DIHEDRAL>
-7.11257

>  <SCORE.INTRA.DIHEDRAL.0>
15.6389

>  <SCORE.INTRA.POLAR>
0

>  <SCORE.INTRA.POLAR.0>
0

>  <SCORE.INTRA.REPUL>
0

>  <SCORE.INTRA.REPUL.0>
0

>  <SCORE.INTRA.SOLV>
3.55907

>  <SCORE.INTRA.SOLV.lig_0>
-90.9181

>  <SCORE.INTRA.VDW>
1.49956

>  <SCORE.INTRA.VDW.0>
-3.14158

>  <SCORE.INTRA.norm>
-0.00749154

>  <SCORE.RESTR>
0.0502111

>  <SCORE.RESTR.CAVITY>
0.0502111

>  <SCORE.RESTR.norm>
0.00135706

>  <SCORE.SYSTEM>
0

>  <SCORE.SYSTEM.CONST>
0

>  <SCORE.SYSTEM.DIHEDRAL>
0

>  <SCORE.SYSTEM.SOLV>
0

>  <SCORE.SYSTEM.norm>
0

>  <SCORE.heavy>
37

>  <SCORE.norm>
-0.298594

>  <RMSD>
13.222

$$$$
1yrj_lig
 OpenBabel11021811423D
libRbt.so/2013.1/901 2013/11/27
 37 40  0  0  0  0  0  0  0  0999 V2000
   36.8005    6.4472   14.7566 C   0  0  1  0  0  0  0  0  0  0  0  0
   35.4445    6.0839   14.1203 C   0  0  1  0  0  0  0  0  0  0  0  0
   34.2965    6.1596   15.1395 C   0  0  0  0  0  0  0  0  0  0  0  0
   34.6156    5.2671   16.3672 C   0  0  1  0  0  0  0  0  0  0  0  0
   35.9522    5.6984   17.0000 C   0  0  1  0  0  0  0  0  0  0  0  0
   36.2479    4.7794   18.2594 C   0  0  1  0  0  0  0  0  0  0  0  0
   35.1069    4.9175   19.2804 C   0  0  1  0  0  0  0  0  0  0  0  0
   33.7836    4.5204   18.5823 C   0  0  2  0  0  0  0  0  0  0  0  0
   34.8686    2.6952   20.5099 C   0  0  0  0  0  0  0  0  0  0  0  0
   35.1431    6.9255   12.9508 N   0  0  0  0  0  0  0  0  0  0  0  0
   35.4024    4.0931   20.4931 N   0  0  0  0  0  0  0  0  0  0  0  0
   36.9587    7.8549   15.0145 O   0  0  0  0  0  0  0  0  0  0  0  0
   37.0020    5.6223   15.9640 O   0  0  0  0  0  0  0  0  0  0  0  0
   33.5550    5.3359   17.3983 O   0  0  0  0  0  0  0  0  0  0  0  0
   36.2882    3.4270   17.8544 O   0  0  0  0  0  0  0  0  0  0  0  0
   32.6571    4.6800   19.4455 O   0  0  0  0  0  0  0  0  0  0  0  0
   32.6591    5.9378   20.1608 C   0  0  2  0  0  0  0  0  0  0  0  0
   31.4864    6.0810   21.1445 C   0  0  1  0  0  0  0  0  0  0  0  0
   30.1374    6.2224   20.3906 C   0  0  2  0  0  0  0  0  0  0  0  0
   30.1925    7.4086   19.4555 C   0  0  1  0  0  0  0  0  0  0  0  0
   31.3624    7.2210   18.4607 C   0  0  1  0  0  0  0  0  0  0  0  0
   31.5226    8.4013   17.5052 C   0  0  0  0  0  0  0  0  0  0  0  0
   28.8984    7.5141   18.7501 N   0  0  0  0  0  0  0  0  0  0  0  0
   32.6248    7.0705   19.2065 O   0  0  0  0  0  0  0  0  0  0  0  0
   31.4979    4.9511   22.0290 O   0  0  0  0  0  0  0  0  0  0  0  0
   29.0768    6.4290   21.3338 O   0  0  0  0  0  0  0  0  0  0  0  0
   32.6375    8.1868   16.6813 O   0  0  0  0  0  0  0  0  0  0  0  0
   36.0374    8.6613   15.9175 C   0  0  1  0  0  0  0  0  0  0  0  0
   36.9355    9.4507   16.8954 C   0  0  1  0  0  0  0  0  0  0  0  0
   36.0910   10.3609   17.8199 C   0  0  2  0  0  0  0  0  0  0  0  0
   35.2635   11.3392   16.9778 C   0  0  1  0  0  0  0  0  0  0  0  0
   34.3300   10.5597   16.0168 C   0  0  0  0  0  0  0  0  0  0  0  0
   35.1865    9.6787   15.1013 C   0  0  2  0  0  0  0  0  0  0  0  0
   34.4505   12.1985   17.8672 N   0  0  0  0  0  0  0  0  0  0  0  0
   34.2746    8.9766   14.2021 N   0  0  0  0  0  0  0  0  0  0  0  0
   37.6737    8.5183   17.7149 O   0  0  0  0  0  0  0  0  0  0  0  0
   36.9796   11.0911   18.6928 O   0  0  0  0  0  0  0  0  0  0  0  0
  1  2  1  0  0  0  0
  1 12  1  1  0  0  0
  1 13  1  0  0  0  0
  2  3  1  0  0  0  0
  2 10  1  6  0  0  0
  4  3  1  6  0  0  0
  4  5  1  0  0  0  0
  4 14  1  0  0  0  0
  5  6  1  0  0  0  0
  5 13  1  6  0  0  0
  6  7  1  0  0  0  0
  6 15  1  6  0  0  0
  7  8  1  0  0  0  0
  7 11  1  1  0  0  0
  8 14  1  0  0  0  0
  8 16  1  1  0  0  0
  9 11  1  0  0  0  0
 17 16  1  6  0  0  0
 17 18  1  0  0  0  0
 17 24  1  0  0  0  0
 18 19  1  0  0  0  0
 18 25  1  1  0  0  0
 19 20  1  0  0  0  0
 19 26  1  1  0  0  0
 20 21  1  0  0  0  0
 20 23  1  6  0  0  0
 21 22  1  6  0  0  0
 21 24  1  0  0  0  0
 22 27  1  0  0  0  0
 28 12  1  6  0  0  0
 28 29  1  0  0  0  0
 28 33  1  0  0  0  0
 29 30  1  0  0  0  0
 29 36  1  1  0  0  0
 30 31  1  0  0  0  0
 30 37  1  1  0  0  0
 31 32  1  0  0  0  0
 31 34  1  1  0  0  0
 32 33  1  0  0  0  0
 33 35  1  6  0  0  0
M  END
>  <CHROM.1>
59.43936184,-92.26368249,45.79002701,-177.02457525,177.19862493,130.26462185
34.14816901,7.02229191,17.74590191,-0.67754073,-0.60109805,2.77844430

>  <Name>
1yrj_lig

>  <RI>
0

>  <Rbt.Current_Directory>
/home/itssahil/PROJECTS/Mol_Feturizer/New_Systems/rnas/1yrj

>  <Rbt.Executable>
rbdock ($Id: //depot/dev/client3/rdock/2013.1/src/exe/rbdock.cxx#4 $)

>  <Rbt.Library>
libRbt.so (2013.1, Build901 2013/11/27)

>  <Rbt.Parameter_File>
/export/apps/rDock/src/rDock_2013.1_src/data/scripts/dock_solv.prm

>  <Rbt.Receptor>
prm/blind_docking_60.prm

>  <SCORE>
-5.01574

>  <SCORE.INTER>
-6.7467

>  <SCORE.INTER.CONST>
1

>  <SCORE.INTER.POLAR>
-0.751117

>  <SCORE.INTER.ROT>
6

>  <SCORE.INTER.SOLV>
16.2538

>  <SCORE.INTER.VDW>
-15.012

>  <SCORE.INTER.norm>
-0.182343

>  <SCORE.INTRA>
0.807212

>  <SCORE.INTRA.DIHEDRAL>
-7.15639

>  <SCORE.INTRA.DIHEDRAL.0>
15.6389

>  <SCORE.INTRA.POLAR>
0

>  <SCORE.INTRA.POLAR.0>
0

>  <SCORE.INTRA.REPUL>
0

>  <SCORE.INTRA.REPUL.0>
0

>  <SCORE.INTRA.SOLV>
6.31713

>  <SCORE.INTRA.SOLV.lig_0>
-90.9181

>  <SCORE.INTRA.VDW>
1.22684

>  <SCORE.INTRA.VDW.0>
-3.14158

>  <SCORE.INTRA.norm>
0.0218165

>  <SCORE.RESTR>
0.923746

>  <SCORE.RESTR.CAVITY>
0.923746

>  <SCORE.RESTR.norm>
0.0249661

>  <SCORE.SYSTEM>
0

>  <SCORE.SYSTEM.CONST>
0

>  <SCORE.SYSTEM.DIHEDRAL>
0

>  <SCORE.SYSTEM.SOLV>
0

>  <SCORE.SYSTEM.norm>
0

>  <SCORE.heavy>
37

>  <SCORE.norm>
-0.135561

>  <RMSD>
13.237

$$$$
1yrj_lig
 OpenBabel11021811423D
libRbt.so/2013.1/901 2013/11/27
 37 40  0  0  0  0  0  0  0  0999 V2000
   32.2035    5.4735   18.4221 C   0  0  1  0  0  0  0  0  0  0  0  0
   33.5237    5.0011   19.0618 C   0  0  1  0  0  0  0  0  0  0  0  0
   34.7164    5.8591   18.6106 C   0  0  0  0  0  0  0  0  0  0  0  0
   34.8006    5.8805   17.0620 C   0  0  1  0  0  0  0  0  0  0  0  0
   33.4796    6.4061   16.4690 C   0  0  1  0  0  0  0  0  0  0  0  0
   33.5971    6.4300   14.8867 C   0  0  1  0  0  0  0  0  0  0  0  0
   34.7661    7.3364   14.4679 C   0  0  1  0  0  0  0  0  0  0  0  0
   36.0574    6.7949   15.1280 C   0  0  2  0  0  0  0  0  0  0  0  0
   35.0934    8.7518   12.3712 C   0  0  0  0  0  0  0  0  0  0  0  0
   33.4435    4.9737   20.5315 N   0  0  0  0  0  0  0  0  0  0  0  0
   34.8522    7.4045   12.9762 N   0  0  0  0  0  0  0  0  0  0  0  0
   31.6940    6.6966   18.9856 O   0  0  0  0  0  0  0  0  0  0  0  0
   32.3788    5.5519   16.9586 O   0  0  0  0  0  0  0  0  0  0  0  0
   35.9131    6.7276   16.5750 O   0  0  0  0  0  0  0  0  0  0  0  0
   33.8848    5.1293   14.4177 O   0  0  0  0  0  0  0  0  0  0  0  0
   37.1883    7.6183   14.8405 O   0  0  0  0  0  0  0  0  0  0  0  0
   37.0168    8.9918   15.2621 C   0  0  2  0  0  0  0  0  0  0  0  0
   38.2565    9.8655   15.0101 C   0  0  1  0  0  0  0  0  0  0  0  0
   39.4269    9.4596   15.9448 C   0  0  2  0  0  0  0  0  0  0  0  0
   38.9913    9.5614   17.3886 C   0  0  1  0  0  0  0  0  0  0  0  0
   37.7624    8.6498   17.6170 C   0  0  1  0  0  0  0  0  0  0  0  0
   37.2237    8.7281   19.0437 C   0  0  0  0  0  0  0  0  0  0  0  0
   40.1230    9.1650   18.2520 N   0  0  0  0  0  0  0  0  0  0  0  0
   36.6766    9.0472   16.7030 O   0  0  0  0  0  0  0  0  0  0  0  0
   38.6085    9.7612   13.6230 O   0  0  0  0  0  0  0  0  0  0  0  0
   40.5389   10.3411   15.7364 O   0  0  0  0  0  0  0  0  0  0  0  0
   36.5748    9.9577   19.2306 O   0  0  0  0  0  0  0  0  0  0  0  0
   30.4362    7.3979   18.4951 C   0  0  1  0  0  0  0  0  0  0  0  0
   29.2378    6.4986   18.8708 C   0  0  1  0  0  0  0  0  0  0  0  0
   27.8959    7.1591   18.4719 C   0  0  2  0  0  0  0  0  0  0  0  0
   27.7552    8.5194   19.1653 C   0  0  1  0  0  0  0  0  0  0  0  0
   28.9327    9.4459   18.7679 C   0  0  0  0  0  0  0  0  0  0  0  0
   30.2484    8.7810   19.1860 C   0  0  2  0  0  0  0  0  0  0  0  0
   26.4757    9.1500   18.7710 N   0  0  0  0  0  0  0  0  0  0  0  0
   31.3286    9.6897   18.8119 N   0  0  0  0  0  0  0  0  0  0  0  0
   29.3572    5.2389   18.1744 O   0  0  0  0  0  0  0  0  0  0  0  0
   26.8130    6.2897   18.8673 O   0  0  0  0  0  0  0  0  0  0  0  0
  1  2  1  0  0  0  0
  1 12  1  1  0  0  0
  1 13  1  0  0  0  0
  2  3  1  0  0  0  0
  2 10  1  1  0  0  0
  4  3  1  1  0  0  0
  4  5  1  0  0  0  0
  4 14  1  0  0  0  0
  5  6  1  0  0  0  0
  5 13  1  6  0  0  0
  6  7  1  0  0  0  0
  6 15  1  1  0  0  0
  7  8  1  0  0  0  0
  7 11  1  6  0  0  0
  8 14  1  0  0  0  0
  8 16  1  1  0  0  0
  9 11  1  0  0  0  0
 17 16  1  1  0  0  0
 17 18  1  0  0  0  0
 17 24  1  0  0  0  0
 18 19  1  0  0  0  0
 18 25  1  6  0  0  0
 19 20  1  0  0  0  0
 19 26  1  1  0  0  0
 20 21  1  0  0  0  0
 20 23  1  1  0  0  0
 21 22  1  1  0  0  0
 21 24  1  0  0  0  0
 22 27  1  0  0  0  0
 28 12  1  1  0  0  0
 28 29  1  0  0  0  0
 28 33  1  0  0  0  0
 29 30  1  0  0  0  0
 29 36  1  6  0  0  0
 30 31  1  0  0  0  0
 30 37  1  1  0  0  0
 31 32  1  0  0  0  0
 31 34  1  6  0  0  0
 32 33  1  0  0  0  0
 33 35  1  6  0  0  0
M  END
>  <CHROM.1>
177.64849428,136.58024098,57.82472333,177.45053754,72.70768199,68.60718641
34.00885028,7.66713405,17.08759221,-2.91192936,-0.27815025,-1.88046275

>  <Name>
1yrj_lig

>  <RI>
0

>  <Rbt.Current_Directory>
/home/itssahil/PROJECTS/Mol_Feturizer/New_Systems/rnas/1yrj

>  <Rbt.Executable>
rbdock ($Id: //depot/dev/client3/rdock/2013.1/src/exe/rbdock.cxx#4 $)

>  <Rbt.Library>
libRbt.so (2013.1, Build901 2013/11/27)

>  <Rbt.Parameter_File>
/export/apps/rDock/src/rDock_2013.1_src/data/scripts/dock_solv.prm

>  <Rbt.Receptor>
prm/blind_docking_100.prm

>  <SCORE>
-15.7872

>  <SCORE.INTER>
-9.3087

>  <SCORE.INTER.CONST>
1

>  <SCORE.INTER.POLAR>
-1.22289

>  <SCORE.INTER.ROT>
6

>  <SCORE.INTER.SOLV>
10.8159

>  <SCORE.INTER.VDW>
-13.3348

>  <SCORE.INTER.norm>
-0.251587

>  <SCORE.INTRA>
-6.48658

>  <SCORE.INTRA.DIHEDRAL>
-13.5293

>  <SCORE.INTRA.DIHEDRAL.0>
15.6389

>  <SCORE.INTRA.POLAR>
0

>  <SCORE.INTRA.POLAR.0>
0

>  <SCORE.INTRA.REPUL>
0

>  <SCORE.INTRA.REPUL.0>
0

>  <SCORE.INTRA.SOLV>
-1.45631

>  <SCORE.INTRA.SOLV.lig_0>
-90.9181

>  <SCORE.INTRA.VDW>
1.00625

>  <SCORE.INTRA.VDW.0>
-3.14158

>  <SCORE.INTRA.norm>
-0.175313

>  <SCORE.RESTR>
0.00811936

>  <SCORE.RESTR.CAVITY>
0.00811936

>  <SCORE.RESTR.norm>
0.000219442

>  <SCORE.SYSTEM>
0

>  <SCORE.SYSTEM.CONST>
0

>  <SCORE.SYSTEM.DIHEDRAL>
0

>  <SCORE.SYSTEM.SOLV>
0

>  <SCORE.SYSTEM.norm>
0

>  <SCORE.heavy>
37

>  <SCORE.norm>
-0.42668

>  <RMSD>
13.238

$$$$
1yrj_lig
 OpenBabel11021811423D
libRbt.so/2013.1/901 2013/11/27
 37 40  0  0  0  0  0  0  0  0999 V2000
   32.5570    6.5049   16.4477 C   0  0  1  0  0  0  0  0  0  0  0  0
   33.1529    6.2864   15.0432 C   0  0  1  0  0  0  0  0  0  0  0  0
   34.5340    6.9454   14.8996 C   0  0  0  0  0  0  0  0  0  0  0  0
   34.4449    8.4511   15.2609 C   0  0  1  0  0  0  0  0  0  0  0  0
   33.8928    8.6193   16.6892 C   0  0  1  0  0  0  0  0  0  0  0  0
   33.8243   10.1658   17.0378 C   0  0  1  0  0  0  0  0  0  0  0  0
   35.2287   10.7826   16.9344 C   0  0  1  0  0  0  0  0  0  0  0  0
   35.7564   10.5439   15.4988 C   0  0  2  0  0  0  0  0  0  0  0  0
   35.4907   12.5709   18.7343 C   0  0  0  0  0  0  0  0  0  0  0  0
   33.2319    4.8581   14.6957 N   0  0  0  0  0  0  0  0  0  0  0  0
   35.1815   12.2295   17.3106 N   0  0  0  0  0  0  0  0  0  0  0  0
   33.1805    5.7057   17.4703 O   0  0  0  0  0  0  0  0  0  0  0  0
   32.5797    7.9471   16.7610 O   0  0  0  0  0  0  0  0  0  0  0  0
   35.7609    9.1246   15.1754 O   0  0  0  0  0  0  0  0  0  0  0  0
   33.0057   10.8240   16.0937 O   0  0  0  0  0  0  0  0  0  0  0  0
   37.0878   11.0331   15.3323 O   0  0  0  0  0  0  0  0  0  0  0  0
   38.0472   10.3851   16.2002 C   0  0  2  0  0  0  0  0  0  0  0  0
   39.3228   11.2134   16.4240 C   0  0  1  0  0  0  0  0  0  0  0  0
   40.1716   11.2956   15.1274 C   0  0  2  0  0  0  0  0  0  0  0  0
   40.5201    9.9039   14.6516 C   0  0  1  0  0  0  0  0  0  0  0  0
   39.2172    9.1063   14.4074 C   0  0  1  0  0  0  0  0  0  0  0  0
   39.4772    7.6669   13.9687 C   0  0  0  0  0  0  0  0  0  0  0  0
   41.3225   10.0147   13.4158 N   0  0  0  0  0  0  0  0  0  0  0  0
   38.4252    9.0626   15.6497 O   0  0  0  0  0  0  0  0  0  0  0  0
   38.9411   12.5101   16.9057 O   0  0  0  0  0  0  0  0  0  0  0  0
   41.3873   12.0096   15.3908 O   0  0  0  0  0  0  0  0  0  0  0  0
   40.1160    6.9712   15.0059 O   0  0  0  0  0  0  0  0  0  0  0  0
   33.1094    6.0226   18.9565 C   0  0  1  0  0  0  0  0  0  0  0  0
   34.1288    7.1503   19.2307 C   0  0  1  0  0  0  0  0  0  0  0  0
   34.0861    7.5950   20.7128 C   0  0  2  0  0  0  0  0  0  0  0  0
   32.6762    8.0772   21.0745 C   0  0  1  0  0  0  0  0  0  0  0  0
   31.6467    6.9425   20.8390 C   0  0  0  0  0  0  0  0  0  0  0  0
   31.6943    6.5295   19.3641 C   0  0  2  0  0  0  0  0  0  0  0  0
   32.6397    8.4901   22.4952 N   0  0  0  0  0  0  0  0  0  0  0  0
   30.7011    5.4748   19.1795 N   0  0  0  0  0  0  0  0  0  0  0  0
   35.4569    6.6682   18.9316 O   0  0  0  0  0  0  0  0  0  0  0  0
   35.0375    8.6637   20.9062 O   0  0  0  0  0  0  0  0  0  0  0  0
  1  2  1  0  0  0  0
  1 12  1  1  0  0  0
  1 13  1  0  0  0  0
  2  3  1  0  0  0  0
  2 10  1  1  0  0  0
  4  3  1  1  0  0  0
  4  5  1  0  0  0  0
  4 14  1  0  0  0  0
  5  6  1  0  0  0  0
  5 13  1  6  0  0  0
  6  7  1  0  0  0  0
  6 15  1  6  0  0  0
  7  8  1  0  0  0  0
  7 11  1  6  0  0  0
  8 14  1  0  0  0  0
  8 16  1  1  0  0  0
  9 11  1  0  0  0  0
 17 16  1  6  0  0  0
 17 18  1  0  0  0  0
 17 24  1  0  0  0  0
 18 19  1  0  0  0  0
 18 25  1  6  0  0  0
 19 20  1  0  0  0  0
 19 26  1  1  0  0  0
 20 21  1  0  0  0  0
 20 23  1  6  0  0  0
 21 22  1  1  0  0  0
 21 24  1  0  0  0  0
 22 27  1  0  0  0  0
 28 12  1  6  0  0  0
 28 29  1  0  0  0  0
 28 33  1  0  0  0  0
 29 30  1  0  0  0  0
 29 36  1  1  0  0  0
 30 31  1  0  0  0  0
 30 37  1  6  0  0  0
 31 32  1  0  0  0  0
 31 34  1  1  0  0  0
 32 33  1  0  0  0  0
 33 35  1  1  0  0  0
M  END
>  <CHROM.1>
159.94389656,94.18066692,61.36654656,-158.46933250,64.54452069,-78.52617078
35.63731049,8.78966734,16.96961984,3.10570063,0.64106013,0.76686029

>  <Name>
1yrj_lig

>  <RI>
0

>  <Rbt.Current_Directory>
/home/itssahil/PROJECTS/Mol_Feturizer/New_Systems/rnas/1yrj

>  <Rbt.Executable>
rbdock ($Id: //depot/dev/client3/rdock/2013.1/src/exe/rbdock.cxx#4 $)

>  <Rbt.Library>
libRbt.so (2013.1, Build901 2013/11/27)

>  <Rbt.Parameter_File>
/export/apps/rDock/src/rDock_2013.1_src/data/scripts/dock_solv.prm

>  <Rbt.Receptor>
prm/blind_docking_60.prm

>  <SCORE>
-15.3612

>  <SCORE.INTER>
-10.3547

>  <SCORE.INTER.CONST>
1

>  <SCORE.INTER.POLAR>
-0.848528

>  <SCORE.INTER.ROT>
6

>  <SCORE.INTER.SOLV>
16.2485

>  <SCORE.INTER.VDW>
-17.0909

>  <SCORE.INTER.norm>
-0.279858

>  <SCORE.INTRA>
-5.049

>  <SCORE.INTRA.DIHEDRAL>
-9.32782

>  <SCORE.INTRA.DIHEDRAL.0>
15.6389

>  <SCORE.INTRA.POLAR>
0

>  <SCORE.INTRA.POLAR.0>
0

>  <SCORE.INTRA.REPUL>
0

>  <SCORE.INTRA.REPUL.0>
0

>  <SCORE.INTRA.SOLV>
-0.0488306

>  <SCORE.INTRA.SOLV.lig_0>
-90.9181

>  <SCORE.INTRA.VDW>
-0.360676

>  <SCORE.INTRA.VDW.0>
-3.14158

>  <SCORE.INTRA.norm>
-0.13646

>  <SCORE.RESTR>
0.0425576

>  <SCORE.RESTR.CAVITY>
0.0425576

>  <SCORE.RESTR.norm>
0.00115021

>  <SCORE.SYSTEM>
0

>  <SCORE.SYSTEM.CONST>
0

>  <SCORE.SYSTEM.DIHEDRAL>
0

>  <SCORE.SYSTEM.SOLV>
0

>  <SCORE.SYSTEM.norm>
0

>  <SCORE.heavy>
37

>  <SCORE.norm>
-0.415167

>  <RMSD>
13.324

$$$$
1yrj_lig
 OpenBabel11021811423D
libRbt.so/2013.1/901 2013/11/27
 37 40  0  0  0  0  0  0  0  0999 V2000
   32.4863    6.5060   16.3920 C   0  0  1  0  0  0  0  0  0  0  0  0
   33.1204    6.2612   15.0087 C   0  0  1  0  0  0  0  0  0  0  0  0
   34.5075    6.9129   14.8926 C   0  0  0  0  0  0  0  0  0  0  0  0
   34.4144    8.4249   15.2255 C   0  0  1  0  0  0  0  0  0  0  0  0
   33.8232    8.6195   16.6346 C   0  0  1  0  0  0  0  0  0  0  0  0
   33.7511   10.1721   16.9547 C   0  0  1  0  0  0  0  0  0  0  0  0
   35.1603   10.7820   16.8802 C   0  0  1  0  0  0  0  0  0  0  0  0
   35.7270   10.5169   15.4642 C   0  0  2  0  0  0  0  0  0  0  0  0
   35.2496   12.5905   18.6769 C   0  0  0  0  0  0  0  0  0  0  0  0
   33.2034    4.8269   14.6881 N   0  0  0  0  0  0  0  0  0  0  0  0
   35.1083   12.2354   17.2301 N   0  0  0  0  0  0  0  0  0  0  0  0
   33.0778    5.7223   17.4452 O   0  0  0  0  0  0  0  0  0  0  0  0
   32.5059    7.9533   16.6811 O   0  0  0  0  0  0  0  0  0  0  0  0
   35.7349    9.0922   15.1655 O   0  0  0  0  0  0  0  0  0  0  0  0
   32.9618   10.8167   15.9769 O   0  0  0  0  0  0  0  0  0  0  0  0
   37.0644   10.9985   15.3268 O   0  0  0  0  0  0  0  0  0  0  0  0
   38.0067   10.3224   16.1920 C   0  0  2  0  0  0  0  0  0  0  0  0
   39.2918   11.1288   16.4411 C   0  0  1  0  0  0  0  0  0  0  0  0
   40.1534   11.2207   15.1536 C   0  0  2  0  0  0  0  0  0  0  0  0
   40.4866    9.8324   14.6574 C   0  0  1  0  0  0  0  0  0  0  0  0
   39.1749    9.0576   14.3882 C   0  0  1  0  0  0  0  0  0  0  0  0
   39.4187    7.6222   13.9275 C   0  0  0  0  0  0  0  0  0  0  0  0
   41.3017    9.9527   13.4308 N   0  0  0  0  0  0  0  0  0  0  0  0
   38.3712    9.0042   15.6226 O   0  0  0  0  0  0  0  0  0  0  0  0
   38.9239   12.4224   16.9413 O   0  0  0  0  0  0  0  0  0  0  0  0
   41.3765   11.9129   15.4399 O   0  0  0  0  0  0  0  0  0  0  0  0
   40.0373    6.8999   14.9587 O   0  0  0  0  0  0  0  0  0  0  0  0
   32.8759    6.0017   18.9269 C   0  0  1  0  0  0  0  0  0  0  0  0
   33.7446    7.2288   19.2812 C   0  0  1  0  0  0  0  0  0  0  0  0
   33.5570    7.6384   20.7621 C   0  0  2  0  0  0  0  0  0  0  0  0
   32.0821    7.9566   21.0347 C   0  0  1  0  0  0  0  0  0  0  0  0
   31.2016    6.7208   20.7183 C   0  0  0  0  0  0  0  0  0  0  0  0
   31.3900    6.3431   19.2453 C   0  0  2  0  0  0  0  0  0  0  0  0
   31.9082    8.3365   22.4545 N   0  0  0  0  0  0  0  0  0  0  0  0
   30.5334    5.1898   18.9829 N   0  0  0  0  0  0  0  0  0  0  0  0
   35.1344    6.9005   19.0656 O   0  0  0  0  0  0  0  0  0  0  0  0
   34.3701    8.8009   21.0306 O   0  0  0  0  0  0  0  0  0  0  0  0
  1  2  1  0  0  0  0
  1 12  1  1  0  0  0
  1 13  1  0  0  0  0
  2  3  1  0  0  0  0
  2 10  1  1  0  0  0
  4  3  1  1  0  0  0
  4  5  1  0  0  0  0
  4 14  1  0  0  0  0
  5  6  1  0  0  0  0
  5 13  1  6  0  0  0
  6  7  1  0  0  0  0
  6 15  1  6  0  0  0
  7  8  1  0  0  0  0
  7 11  1  6  0  0  0
  8 14  1  0  0  0  0
  8 16  1  1  0  0  0
  9 11  1  0  0  0  0
 17 16  1  6  0  0  0
 17 18  1  0  0  0  0
 17 24  1  0  0  0  0
 18 19  1  0  0  0  0
 18 25  1  6  0  0  0
 19 20  1  0  0  0  0
 19 26  1  1  0  0  0
 20 21  1  0  0  0  0
 20 23  1  6  0  0  0
 21 22  1  1  0  0  0
 21 24  1  0  0  0  0
 22 27  1  0  0  0  0
 28 12  1  6  0  0  0
 28 29  1  0  0  0  0
 28 33  1  0  0  0  0
 29 30  1  0  0  0  0
 29 36  1  1  0  0  0
 30 31  1  0  0  0  0
 30 37  1  6  0  0  0
 31 32  1  0  0  0  0
 31 34  1  1  0  0  0
 32 33  1  0  0  0  0
 33 35  1  1  0  0  0
M  END
>  <CHROM.1>
164.95877891,88.53613381,63.84154795,-159.02002867,64.59159542,-75.54640295
35.48143357,8.75292234,16.94574595,3.12519339,0.62656569,0.71986606

>  <Name>
1yrj_lig

>  <RI>
0

>  <Rbt.Current_Directory>
/home/itssahil/PROJECTS/Mol_Feturizer/New_Systems/rnas/1yrj

>  <Rbt.Executable>
rbdock ($Id: //depot/dev/client3/rdock/2013.1/src/exe/rbdock.cxx#4 $)

>  <Rbt.Library>
libRbt.so (2013.1, Build901 2013/11/27)

>  <Rbt.Parameter_File>
/export/apps/rDock/src/rDock_2013.1_src/data/scripts/dock_solv.prm

>  <Rbt.Receptor>
prm/blind_docking_60.prm

>  <SCORE>
-15.3621

>  <SCORE.INTER>
-9.6357

>  <SCORE.INTER.CONST>
1

>  <SCORE.INTER.POLAR>
-0.848528

>  <SCORE.INTER.ROT>
6

>  <SCORE.INTER.SOLV>
16.7005

>  <SCORE.INTER.VDW>
-16.7622

>  <SCORE.INTER.norm>
-0.260424

>  <SCORE.INTRA>
-5.73469

>  <SCORE.INTRA.DIHEDRAL>
-10.7023

>  <SCORE.INTRA.DIHEDRAL.0>
15.6389

>  <SCORE.INTRA.POLAR>
0

>  <SCORE.INTRA.POLAR.0>
0

>  <SCORE.INTRA.REPUL>
0

>  <SCORE.INTRA.REPUL.0>
0

>  <SCORE.INTRA.SOLV>
-0.243117

>  <SCORE.INTRA.SOLV.lig_0>
-90.9181

>  <SCORE.INTRA.VDW>
-0.261989

>  <SCORE.INTRA.VDW.0>
-3.14158

>  <SCORE.INTRA.norm>
-0.154992

>  <SCORE.RESTR>
0.00833048

>  <SCORE.RESTR.CAVITY>
0.00833048

>  <SCORE.RESTR.norm>
0.000225148

>  <SCORE.SYSTEM>
0

>  <SCORE.SYSTEM.CONST>
0

>  <SCORE.SYSTEM.DIHEDRAL>
0

>  <SCORE.SYSTEM.SOLV>
0

>  <SCORE.SYSTEM.norm>
0

>  <SCORE.heavy>
37

>  <SCORE.norm>
-0.415191

>  <RMSD>
13.344

$$$$
1yrj_lig
 OpenBabel11021811423D
libRbt.so/2013.1/901 2013/11/27
 37 40  0  0  0  0  0  0  0  0999 V2000
   36.6407    7.6359   14.6640 C   0  0  1  0  0  0  0  0  0  0  0  0
   35.3959    7.1181   13.9172 C   0  0  1  0  0  0  0  0  0  0  0  0
   34.1744    7.0164   14.8445 C   0  0  0  0  0  0  0  0  0  0  0  0
   34.5143    6.1390   16.0775 C   0  0  1  0  0  0  0  0  0  0  0  0
   35.7314    6.7218   16.8205 C   0  0  1  0  0  0  0  0  0  0  0  0
   36.0493    5.8142   18.0828 C   0  0  1  0  0  0  0  0  0  0  0  0
   34.8264    5.7752   19.0136 C   0  0  1  0  0  0  0  0  0  0  0  0
   33.6228    5.2299   18.2071 C   0  0  2  0  0  0  0  0  0  0  0  0
   34.9917    3.4781   20.1101 C   0  0  0  0  0  0  0  0  0  0  0  0
   35.0757    7.9457   12.7426 N   0  0  0  0  0  0  0  0  0  0  0  0
   35.1352    4.9627   20.2309 N   0  0  0  0  0  0  0  0  0  0  0  0
   36.5932    9.0446   14.9582 O   0  0  0  0  0  0  0  0  0  0  0  0
   36.8571    6.8109   15.8686 O   0  0  0  0  0  0  0  0  0  0  0  0
   33.3792    6.0415   17.0234 O   0  0  0  0  0  0  0  0  0  0  0  0
   36.2969    4.4901   17.6584 O   0  0  0  0  0  0  0  0  0  0  0  0
   32.4234    5.2185   18.9821 O   0  0  0  0  0  0  0  0  0  0  0  0
   31.9977    6.5382   19.3954 C   0  0  2  0  0  0  0  0  0  0  0  0
   31.5686    6.6058   20.8702 C   0  0  1  0  0  0  0  0  0  0  0  0
   30.2453    5.8296   21.1043 C   0  0  2  0  0  0  0  0  0  0  0  0
   29.1593    6.3830   20.2105 C   0  0  1  0  0  0  0  0  0  0  0  0
   29.6079    6.2740   18.7339 C   0  0  1  0  0  0  0  0  0  0  0  0
   28.5865    6.8569   17.7599 C   0  0  0  0  0  0  0  0  0  0  0  0
   27.9158    5.6224   20.4524 N   0  0  0  0  0  0  0  0  0  0  0  0
   30.8750    7.0036   18.5482 O   0  0  0  0  0  0  0  0  0  0  0  0
   32.6431    6.1022   21.6770 O   0  0  0  0  0  0  0  0  0  0  0  0
   29.8354    5.9759   22.4709 O   0  0  0  0  0  0  0  0  0  0  0  0
   29.0838    6.7645   16.4515 O   0  0  0  0  0  0  0  0  0  0  0  0
   37.4952    9.7306   15.9732 C   0  0  1  0  0  0  0  0  0  0  0  0
   38.8821    9.8932   15.3130 C   0  0  1  0  0  0  0  0  0  0  0  0
   39.8612   10.6462   16.2460 C   0  0  2  0  0  0  0  0  0  0  0  0
   39.2935   12.0267   16.5964 C   0  0  1  0  0  0  0  0  0  0  0  0
   37.9171   11.8772   17.2936 C   0  0  0  0  0  0  0  0  0  0  0  0
   36.9602   11.1446   16.3473 C   0  0  2  0  0  0  0  0  0  0  0  0
   40.2290   12.7365   17.4973 N   0  0  0  0  0  0  0  0  0  0  0  0
   35.6740   11.0397   17.0311 N   0  0  0  0  0  0  0  0  0  0  0  0
   39.4264    8.5854   15.0315 O   0  0  0  0  0  0  0  0  0  0  0  0
   41.1293   10.7912   15.5712 O   0  0  0  0  0  0  0  0  0  0  0  0
  1  2  1  0  0  0  0
  1 12  1  1  0  0  0
  1 13  1  0  0  0  0
  2  3  1  0  0  0  0
  2 10  1  6  0  0  0
  4  3  1  6  0  0  0
  4  5  1  0  0  0  0
  4 14  1  0  0  0  0
  5  6  1  0  0  0  0
  5 13  1  6  0  0  0
  6  7  1  0  0  0  0
  6 15  1  6  0  0  0
  7  8  1  0  0  0  0
  7 11  1  1  0  0  0
  8 14  1  0  0  0  0
  8 16  1  1  0  0  0
  9 11  1  0  0  0  0
 17 16  1  6  0  0  0
 17 18  1  0  0  0  0
 17 24  1  0  0  0  0
 18 19  1  0  0  0  0
 18 25  1  1  0  0  0
 19 20  1  0  0  0  0
 19 26  1  1  0  0  0
 20 21  1  0  0  0  0
 20 23  1  6  0  0  0
 21 22  1  6  0  0  0
 21 24  1  0  0  0  0
 22 27  1  0  0  0  0
 28 12  1  6  0  0  0
 28 29  1  0  0  0  0
 28 33  1  0  0  0  0
 29 30  1  0  0  0  0
 29 36  1  1  0  0  0
 30 31  1  0  0  0  0
 30 37  1  6  0  0  0
 31 32  1  0  0  0  0
 31 34  1  1  0  0  0
 32 33  1  0  0  0  0
 33 35  1  1  0  0  0
M  END
>  <CHROM.1>
163.75988064,-82.95749305,62.87385629,-135.16552050,177.91856090,76.99942225
34.58310893,7.47679515,17.57229237,0.47562804,-0.41810148,-1.42241072

>  <Name>
1yrj_lig

>  <RI>
0

>  <Rbt.Current_Directory>
/home/itssahil/PROJECTS/Mol_Feturizer/New_Systems/rnas/1yrj

>  <Rbt.Executable>
rbdock ($Id: //depot/dev/client3/rdock/2013.1/src/exe/rbdock.cxx#4 $)

>  <Rbt.Library>
libRbt.so (2013.1, Build901 2013/11/27)

>  <Rbt.Parameter_File>
/export/apps/rDock/src/rDock_2013.1_src/data/scripts/dock_solv.prm

>  <Rbt.Receptor>
prm/blind_docking_60.prm

>  <SCORE>
-9.47632

>  <SCORE.INTER>
-7.71969

>  <SCORE.INTER.CONST>
1

>  <SCORE.INTER.POLAR>
-0.525889

>  <SCORE.INTER.ROT>
6

>  <SCORE.INTER.SOLV>
16.2907

>  <SCORE.INTER.VDW>
-16.4237

>  <SCORE.INTER.norm>
-0.20864

>  <SCORE.INTRA>
-1.77442

>  <SCORE.INTRA.DIHEDRAL>
-6.4584

>  <SCORE.INTRA.DIHEDRAL.0>
15.6389

>  <SCORE.INTRA.POLAR>
0

>  <SCORE.INTRA.POLAR.0>
0

>  <SCORE.INTRA.REPUL>
0

>  <SCORE.INTRA.REPUL.0>
0

>  <SCORE.INTRA.SOLV>
-1.30856

>  <SCORE.INTRA.SOLV.lig_0>
-90.9181

>  <SCORE.INTRA.VDW>
2.10906

>  <SCORE.INTRA.VDW.0>
-3.14158

>  <SCORE.INTRA.norm>
-0.0479572

>  <SCORE.RESTR>
0.0177869

>  <SCORE.RESTR.CAVITY>
0.0177869

>  <SCORE.RESTR.norm>
0.000480728

>  <SCORE.SYSTEM>
0

>  <SCORE.SYSTEM.CONST>
0

>  <SCORE.SYSTEM.DIHEDRAL>
0

>  <SCORE.SYSTEM.SOLV>
0

>  <SCORE.SYSTEM.norm>
0

>  <SCORE.heavy>
37

>  <SCORE.norm>
-0.256117

>  <RMSD>
13.360

$$$$
1yrj_lig
 OpenBabel11021811423D
libRbt.so/2013.1/901 2013/11/27
 37 40  0  0  0  0  0  0  0  0999 V2000
   32.2074    5.1385   19.9715 C   0  0  1  0  0  0  0  0  0  0  0  0
   33.5938    4.8644   20.5865 C   0  0  1  0  0  0  0  0  0  0  0  0
   34.6515    5.8561   20.0762 C   0  0  0  0  0  0  0  0  0  0  0  0
   34.6939    5.8373   18.5259 C   0  0  1  0  0  0  0  0  0  0  0  0
   33.3009    6.1657   17.9559 C   0  0  1  0  0  0  0  0  0  0  0  0
   33.3752    6.1527   16.3709 C   0  0  1  0  0  0  0  0  0  0  0  0
   34.4038    7.1902   15.8923 C   0  0  1  0  0  0  0  0  0  0  0  0
   35.7711    6.8445   16.5305 C   0  0  2  0  0  0  0  0  0  0  0  0
   34.7997    8.5231   13.7538 C   0  0  0  0  0  0  0  0  0  0  0  0
   33.5542    4.8751   22.0580 N   0  0  0  0  0  0  0  0  0  0  0  0
   34.4434    7.2200   14.3973 N   0  0  0  0  0  0  0  0  0  0  0  0
   31.5552    6.3022   20.5132 O   0  0  0  0  0  0  0  0  0  0  0  0
   32.3348    5.1911   18.5019 O   0  0  0  0  0  0  0  0  0  0  0  0
   35.6727    6.8065   17.9824 O   0  0  0  0  0  0  0  0  0  0  0  0
   33.8202    4.8862   15.9322 O   0  0  0  0  0  0  0  0  0  0  0  0
   36.7761    7.7991   16.1866 O   0  0  0  0  0  0  0  0  0  0  0  0
   38.0361    7.5698   16.8601 C   0  0  2  0  0  0  0  0  0  0  0  0
   38.3963    8.6717   17.8700 C   0  0  1  0  0  0  0  0  0  0  0  0
   38.7351   10.0032   17.1485 C   0  0  2  0  0  0  0  0  0  0  0  0
   39.8699    9.7859   16.1739 C   0  0  1  0  0  0  0  0  0  0  0  0
   39.4660    8.6945   15.1546 C   0  0  1  0  0  0  0  0  0  0  0  0
   40.5773    8.3752   14.1571 C   0  0  0  0  0  0  0  0  0  0  0  0
   40.1658   11.0676   15.5007 N   0  0  0  0  0  0  0  0  0  0  0  0
   39.1321    7.4501   15.8706 O   0  0  0  0  0  0  0  0  0  0  0  0
   37.3048    8.8157   18.7903 O   0  0  0  0  0  0  0  0  0  0  0  0
   39.1384   10.9854   18.1127 O   0  0  0  0  0  0  0  0  0  0  0  0
   40.9054    9.5338   13.4374 O   0  0  0  0  0  0  0  0  0  0  0  0
   31.2221    7.5442   19.7003 C   0  0  1  0  0  0  0  0  0  0  0  0
   29.7848    7.3648   19.1635 C   0  0  1  0  0  0  0  0  0  0  0  0
   29.3229    8.6130   18.3731 C   0  0  2  0  0  0  0  0  0  0  0  0
   29.3851    9.8542   19.2712 C   0  0  1  0  0  0  0  0  0  0  0  0
   30.8309   10.0678   19.7878 C   0  0  0  0  0  0  0  0  0  0  0  0
   31.2613    8.8288   20.5800 C   0  0  2  0  0  0  0  0  0  0  0  0
   28.9530   11.0453   18.5063 N   0  0  0  0  0  0  0  0  0  0  0  0
   32.6172    9.0757   21.0633 N   0  0  0  0  0  0  0  0  0  0  0  0
   29.7502    6.2214   18.2819 O   0  0  0  0  0  0  0  0  0  0  0  0
   27.9692    8.4014   17.9175 O   0  0  0  0  0  0  0  0  0  0  0  0
  1  2  1  0  0  0  0
  1 12  1  1  0  0  0
  1 13  1  0  0  0  0
  2  3  1  0  0  0  0
  2 10  1  1  0  0  0
  4  3  1  1  0  0  0
  4  5  1  0  0  0  0
  4 14  1  0  0  0  0
  5  6  1  0  0  0  0
  5 13  1  6  0  0  0
  6  7  1  0  0  0  0
  6 15  1  1  0  0  0
  7  8  1  0  0  0  0
  7 11  1  6  0  0  0
  8 14  1  0  0  0  0
  8 16  1  1  0  0  0
  9 11  1  0  0  0  0
 17 16  1  6  0  0  0
 17 18  1  0  0  0  0
 17 24  1  0  0  0  0
 18 19  1  0  0  0  0
 18 25  1  1  0  0  0
 19 20  1  0  0  0  0
 19 26  1  1  0  0  0
 20 21  1  0  0  0  0
 20 23  1  6  0  0  0
 21 22  1  6  0  0  0
 21 24  1  0  0  0  0
 22 27  1  0  0  0  0
 28 12  1  1  0  0  0
 28 29  1  0  0  0  0
 28 33  1  0  0  0  0
 29 30  1  0  0  0  0
 29 36  1  6  0  0  0
 30 31  1  0  0  0  0
 30 37  1  1  0  0  0
 31 32  1  0  0  0  0
 31 34  1  6  0  0  0
 32 33  1  0  0  0  0
 33 35  1  6  0  0  0
M  END
>  <CHROM.1>
115.86406082,150.05894482,174.94566474,-112.98007438,-59.98693553,92.34715334
34.56019403,7.76894046,17.72529611,-2.82174354,0.28990675,-0.48127946

>  <Name>
1yrj_lig

>  <RI>
224

>  <Rbt.Current_Directory>
/home/itssahil/PROJECTS/Mol_Feturizer/New_Systems/rnas/1yrj

>  <Rbt.Executable>
rbdock ($Id: //depot/dev/client3/rdock/2013.1/src/exe/rbdock.cxx#4 $)

>  <Rbt.Library>
libRbt.so (2013.1, Build901 2013/11/27)

>  <Rbt.Parameter_File>
/export/apps/rDock/src/rDock_2013.1_src/data/scripts/dock_solv.prm

>  <Rbt.Receptor>
prm/blind_docking_80.prm

>  <SCORE>
-10.1622

>  <SCORE.INTER>
-11.8666

>  <SCORE.INTER.CONST>
1

>  <SCORE.INTER.POLAR>
-1.14103

>  <SCORE.INTER.ROT>
6

>  <SCORE.INTER.SOLV>
11.7203

>  <SCORE.INTER.VDW>
-15.6145

>  <SCORE.INTER.norm>
-0.32072

>  <SCORE.INTRA>
1.59884

>  <SCORE.INTRA.DIHEDRAL>
3.13432

>  <SCORE.INTRA.DIHEDRAL.0>
15.6389

>  <SCORE.INTRA.POLAR>
0

>  <SCORE.INTRA.POLAR.0>
0

>  <SCORE.INTRA.REPUL>
0

>  <SCORE.INTRA.REPUL.0>
0

>  <SCORE.INTRA.SOLV>
-0.0969281

>  <SCORE.INTRA.SOLV.lig_0>
-90.9181

>  <SCORE.INTRA.VDW>
0.0801487

>  <SCORE.INTRA.VDW.0>
-3.14158

>  <SCORE.INTRA.norm>
0.043212

>  <SCORE.RESTR>
0.105637

>  <SCORE.RESTR.CAVITY>
0.105637

>  <SCORE.RESTR.norm>
0.00285505

>  <SCORE.SYSTEM>
0

>  <SCORE.SYSTEM.CONST>
0

>  <SCORE.SYSTEM.DIHEDRAL>
0

>  <SCORE.SYSTEM.SOLV>
0

>  <SCORE.SYSTEM.norm>
0

>  <SCORE.heavy>
37

>  <SCORE.norm>
-0.274653

>  <RMSD>
13.424

$$$$
1yrj_lig
 OpenBabel11021811423D
libRbt.so/2013.1/901 2013/11/27
 37 40  0  0  0  0  0  0  0  0999 V2000
   37.0460    6.6259   15.1616 C   0  0  1  0  0  0  0  0  0  0  0  0
   35.8930    5.9418   14.4013 C   0  0  1  0  0  0  0  0  0  0  0  0
   34.5249    6.2760   15.0169 C   0  0  0  0  0  0  0  0  0  0  0  0
   34.5174    5.9131   16.5249 C   0  0  1  0  0  0  0  0  0  0  0  0
   35.6530    6.6575   17.2525 C   0  0  1  0  0  0  0  0  0  0  0  0
   35.6147    6.2793   18.7931 C   0  0  1  0  0  0  0  0  0  0  0  0
   34.2533    6.6728   19.3891 C   0  0  1  0  0  0  0  0  0  0  0  0
   33.1473    5.9381   18.5933 C   0  0  2  0  0  0  0  0  0  0  0  0
   33.2821    7.1622   21.6964 C   0  0  0  0  0  0  0  0  0  0  0  0
   35.9026    6.2797   12.9685 N   0  0  0  0  0  0  0  0  0  0  0  0
   34.2271    6.3658   20.8528 N   0  0  0  0  0  0  0  0  0  0  0  0
   37.1425    8.0408   14.9128 O   0  0  0  0  0  0  0  0  0  0  0  0
   36.9303    6.3083   16.5984 O   0  0  0  0  0  0  0  0  0  0  0  0
   33.2309    6.2529   17.1745 O   0  0  0  0  0  0  0  0  0  0  0  0
   35.7478    4.8806   18.9364 O   0  0  0  0  0  0  0  0  0  0  0  0
   31.8400    6.2964   19.0430 O   0  0  0  0  0  0  0  0  0  0  0  0
   30.8113    6.0632   18.0525 C   0  0  2  0  0  0  0  0  0  0  0  0
   30.0496    7.3378   17.6537 C   0  0  1  0  0  0  0  0  0  0  0  0
   29.1639    7.8490   18.8209 C   0  0  2  0  0  0  0  0  0  0  0  0
   28.1990    6.7663   19.2469 C   0  0  1  0  0  0  0  0  0  0  0  0
   28.9957    5.5094   19.6696 C   0  0  1  0  0  0  0  0  0  0  0  0
   28.0942    4.3440   20.0711 C   0  0  0  0  0  0  0  0  0  0  0  0
   27.3746    7.2803   20.3602 N   0  0  0  0  0  0  0  0  0  0  0  0
   29.8401    5.0603   18.5482 O   0  0  0  0  0  0  0  0  0  0  0  0
   31.0046    8.3200   17.2267 O   0  0  0  0  0  0  0  0  0  0  0  0
   28.4122    8.9923   18.3913 O   0  0  0  0  0  0  0  0  0  0  0  0
   27.3109    3.9600   18.9725 O   0  0  0  0  0  0  0  0  0  0  0  0
   38.2575    8.9235   15.4531 C   0  0  1  0  0  0  0  0  0  0  0  0
   39.5587    8.5048   14.7335 C   0  0  1  0  0  0  0  0  0  0  0  0
   40.7489    9.3946   15.1669 C   0  0  2  0  0  0  0  0  0  0  0  0
   40.4422   10.8653   14.8603 C   0  0  1  0  0  0  0  0  0  0  0  0
   39.1582   11.3099   15.6061 C   0  0  0  0  0  0  0  0  0  0  0  0
   37.9909   10.4279   15.1506 C   0  0  2  0  0  0  0  0  0  0  0  0
   41.5793   11.7111   15.2872 N   0  0  0  0  0  0  0  0  0  0  0  0
   36.8002   10.8883   15.8599 N   0  0  0  0  0  0  0  0  0  0  0  0
   39.8620    7.1330   15.0682 O   0  0  0  0  0  0  0  0  0  0  0  0
   41.9291    8.9766   14.4477 O   0  0  0  0  0  0  0  0  0  0  0  0
  1  2  1  0  0  0  0
  1 12  1  1  0  0  0
  1 13  1  0  0  0  0
  2  3  1  0  0  0  0
  2 10  1  6  0  0  0
  4  3  1  6  0  0  0
  4  5  1  0  0  0  0
  4 14  1  0  0  0  0
  5  6  1  0  0  0  0
  5 13  1  6  0  0  0
  6  7  1  0  0  0  0
  6 15  1  6  0  0  0
  7  8  1  0  0  0  0
  7 11  1  1  0  0  0
  8 14  1  0  0  0  0
  8 16  1  1  0  0  0
  9 11  1  0  0  0  0
 17 16  1  1  0  0  0
 17 18  1  0  0  0  0
 17 24  1  0  0  0  0
 18 19  1  0  0  0  0
 18 25  1  1  0  0  0
 19 20  1  0  0  0  0
 19 26  1  6  0  0  0
 20 21  1  0  0  0  0
 20 23  1  1  0  0  0
 21 22  1  6  0  0  0
 21 24  1  0  0  0  0
 22 27  1  0  0  0  0
 28 12  1  6  0  0  0
 28 29  1  0  0  0  0
 28 33  1  0  0  0  0
 29 30  1  0  0  0  0
 29 36  1  1  0  0  0
 30 31  1  0  0  0  0
 30 37  1  6  0  0  0
 31 32  1  0  0  0  0
 31 34  1  1  0  0  0
 32 33  1  0  0  0  0
 33 35  1  1  0  0  0
M  END
>  <CHROM.1>
-174.95833011,154.98053495,157.76583162,-120.12659329,61.99157123,68.25420342
34.41411020,7.31130228,17.20409526,-0.29804518,-0.36496429,3.05592603

>  <Name>
1yrj_lig

>  <RI>
0

>  <Rbt.Current_Directory>
/home/itssahil/PROJECTS/Mol_Feturizer/New_Systems/rnas/1yrj

>  <Rbt.Executable>
rbdock ($Id: //depot/dev/client3/rdock/2013.1/src/exe/rbdock.cxx#4 $)

>  <Rbt.Library>
libRbt.so (2013.1, Build901 2013/11/27)

>  <Rbt.Parameter_File>
/export/apps/rDock/src/rDock_2013.1_src/data/scripts/dock_solv.prm

>  <Rbt.Receptor>
prm/blind_docking_60.prm

>  <SCORE>
-14.0692

>  <SCORE.INTER>
-12.0344

>  <SCORE.INTER.CONST>
1

>  <SCORE.INTER.POLAR>
-1.27035

>  <SCORE.INTER.ROT>
6

>  <SCORE.INTER.SOLV>
16.159

>  <SCORE.INTER.VDW>
-16.7748

>  <SCORE.INTER.norm>
-0.325255

>  <SCORE.INTRA>
-2.3467

>  <SCORE.INTRA.DIHEDRAL>
-5.2796

>  <SCORE.INTRA.DIHEDRAL.0>
15.6389

>  <SCORE.INTRA.POLAR>
0

>  <SCORE.INTRA.POLAR.0>
0

>  <SCORE.INTRA.REPUL>
0

>  <SCORE.INTRA.REPUL.0>
0

>  <SCORE.INTRA.SOLV>
-2.06145

>  <SCORE.INTRA.SOLV.lig_0>
-90.9181

>  <SCORE.INTRA.VDW>
1.32383

>  <SCORE.INTRA.VDW.0>
-3.14158

>  <SCORE.INTRA.norm>
-0.0634242

>  <SCORE.RESTR>
0.311893

>  <SCORE.RESTR.CAVITY>
0.311893

>  <SCORE.RESTR.norm>
0.00842954

>  <SCORE.SYSTEM>
0

>  <SCORE.SYSTEM.CONST>
0

>  <SCORE.SYSTEM.DIHEDRAL>
0

>  <SCORE.SYSTEM.SOLV>
0

>  <SCORE.SYSTEM.norm>
0

>  <SCORE.heavy>
37

>  <SCORE.norm>
-0.380249

>  <RMSD>
13.501

$$$$
1yrj_lig
 OpenBabel11021811423D
libRbt.so/2013.1/901 2013/11/27
 37 40  0  0  0  0  0  0  0  0999 V2000
   32.7803    5.6431   19.3698 C   0  0  1  0  0  0  0  0  0  0  0  0
   34.0385    5.6261   20.2599 C   0  0  1  0  0  0  0  0  0  0  0  0
   34.9816    6.7965   19.9386 C   0  0  0  0  0  0  0  0  0  0  0  0
   35.3418    6.7905   18.4300 C   0  0  1  0  0  0  0  0  0  0  0  0
   34.0584    6.8594   17.5808 C   0  0  1  0  0  0  0  0  0  0  0  0
   34.4552    6.8651   16.0444 C   0  0  1  0  0  0  0  0  0  0  0  0
   35.3556    8.0750   15.7467 C   0  0  1  0  0  0  0  0  0  0  0  0
   36.6035    7.9841   16.6582 C   0  0  2  0  0  0  0  0  0  0  0  0
   34.5921    8.4915   13.3488 C   0  0  0  0  0  0  0  0  0  0  0  0
   33.6985    5.6249   21.6922 N   0  0  0  0  0  0  0  0  0  0  0  0
   35.6931    8.1161   14.2901 N   0  0  0  0  0  0  0  0  0  0  0  0
   31.8326    6.6658   19.7290 O   0  0  0  0  0  0  0  0  0  0  0  0
   33.1929    5.7226   17.9548 O   0  0  0  0  0  0  0  0  0  0  0  0
   36.2198    7.9244   18.0611 O   0  0  0  0  0  0  0  0  0  0  0  0
   35.2011    5.7030   15.7480 O   0  0  0  0  0  0  0  0  0  0  0  0
   37.4688    9.1079   16.4905 O   0  0  0  0  0  0  0  0  0  0  0  0
   38.7523    8.9422   17.1376 C   0  0  2  0  0  0  0  0  0  0  0  0
   39.3958   10.2719   17.5636 C   0  0  1  0  0  0  0  0  0  0  0  0
   39.8415   11.0991   16.3286 C   0  0  2  0  0  0  0  0  0  0  0  0
   40.8026   10.2906   15.4875 C   0  0  1  0  0  0  0  0  0  0  0  0
   40.1166    8.9746   15.0506 C   0  0  1  0  0  0  0  0  0  0  0  0
   41.0364    8.0702   14.2333 C   0  0  0  0  0  0  0  0  0  0  0  0
   41.2045   11.1014   14.3193 N   0  0  0  0  0  0  0  0  0  0  0  0
   39.6883    8.2220   16.2432 O   0  0  0  0  0  0  0  0  0  0  0  0
   38.4595   10.9845   18.3849 O   0  0  0  0  0  0  0  0  0  0  0  0
   40.5036   12.2952   16.7623 O   0  0  0  0  0  0  0  0  0  0  0  0
   42.1658    7.7406   14.9972 O   0  0  0  0  0  0  0  0  0  0  0  0
   30.5179    6.8986   18.9998 C   0  0  1  0  0  0  0  0  0  0  0  0
   29.6541    5.6344   19.2040 C   0  0  1  0  0  0  0  0  0  0  0  0
   28.2596    5.7983   18.5524 C   0  0  2  0  0  0  0  0  0  0  0  0
   27.5416    7.0139   19.1506 C   0  0  1  0  0  0  0  0  0  0  0  0
   28.3806    8.2968   18.9202 C   0  0  0  0  0  0  0  0  0  0  0  0
   29.7490    8.1193   19.5865 C   0  0  2  0  0  0  0  0  0  0  0  0
   26.2141    7.1712   18.5155 N   0  0  0  0  0  0  0  0  0  0  0  0
   30.5003    9.3516   19.3632 N   0  0  0  0  0  0  0  0  0  0  0  0
   30.3185    4.5060   18.5948 O   0  0  0  0  0  0  0  0  0  0  0  0
   27.4886    4.6018   18.7945 O   0  0  0  0  0  0  0  0  0  0  0  0
  1  2  1  0  0  0  0
  1 12  1  1  0  0  0
  1 13  1  0  0  0  0
  2  3  1  0  0  0  0
  2 10  1  1  0  0  0
  4  3  1  1  0  0  0
  4  5  1  0  0  0  0
  4 14  1  0  0  0  0
  5  6  1  0  0  0  0
  5 13  1  6  0  0  0
  6  7  1  0  0  0  0
  6 15  1  1  0  0  0
  7  8  1  0  0  0  0
  7 11  1  6  0  0  0
  8 14  1  0  0  0  0
  8 16  1  1  0  0  0
  9 11  1  0  0  0  0
 17 16  1  6  0  0  0
 17 18  1  0  0  0  0
 17 24  1  0  0  0  0
 18 19  1  0  0  0  0
 18 25  1  6  0  0  0
 19 20  1  0  0  0  0
 19 26  1  1  0  0  0
 20 21  1  0  0  0  0
 20 23  1  6  0  0  0
 21 22  1  1  0  0  0
 21 24  1  0  0  0  0
 22 27  1  0  0  0  0
 28 12  1  1  0  0  0
 28 29  1  0  0  0  0
 28 33  1  0  0  0  0
 29 30  1  0  0  0  0
 29 36  1  6  0  0  0
 30 31  1  0  0  0  0
 30 37  1  1  0  0  0
 31 32  1  0  0  0  0
 31 34  1  6  0  0  0
 32 33  1  0  0  0  0
 33 35  1  6  0  0  0
M  END
>  <CHROM.1>
179.47858252,71.41316986,-169.38958099,-152.05124838,59.59445441,64.24554819
34.80483360,7.76315656,17.48306853,-2.89139600,-0.33130343,-1.69839727

>  <Name>
1yrj_lig

>  <RI>
224

>  <Rbt.Current_Directory>
/home/itssahil/PROJECTS/Mol_Feturizer/New_Systems/rnas/1yrj

>  <Rbt.Executable>
rbdock ($Id: //depot/dev/client3/rdock/2013.1/src/exe/rbdock.cxx#4 $)

>  <Rbt.Library>
libRbt.so (2013.1, Build901 2013/11/27)

>  <Rbt.Parameter_File>
/export/apps/rDock/src/rDock_2013.1_src/data/scripts/dock_solv.prm

>  <Rbt.Receptor>
prm/blind_docking_80.prm

>  <SCORE>
-11.9645

>  <SCORE.INTER>
-6.08919

>  <SCORE.INTER.CONST>
1

>  <SCORE.INTER.POLAR>
0

>  <SCORE.INTER.ROT>
6

>  <SCORE.INTER.SOLV>
10.5907

>  <SCORE.INTER.VDW>
-15.1897

>  <SCORE.INTER.norm>
-0.164573

>  <SCORE.INTRA>
-5.92004

>  <SCORE.INTRA.DIHEDRAL>
-11.5918

>  <SCORE.INTRA.DIHEDRAL.0>
15.6389

>  <SCORE.INTRA.POLAR>
0

>  <SCORE.INTRA.POLAR.0>
0

>  <SCORE.INTRA.REPUL>
0

>  <SCORE.INTRA.REPUL.0>
0

>  <SCORE.INTRA.SOLV>
-2.26346

>  <SCORE.INTRA.SOLV.lig_0>
-90.9181

>  <SCORE.INTRA.VDW>
1.00756

>  <SCORE.INTRA.VDW.0>
-3.14158

>  <SCORE.INTRA.norm>
-0.160001

>  <SCORE.RESTR>
0.0446996

>  <SCORE.RESTR.CAVITY>
0.0446996

>  <SCORE.RESTR.norm>
0.0012081

>  <SCORE.SYSTEM>
0

>  <SCORE.SYSTEM.CONST>
0

>  <SCORE.SYSTEM.DIHEDRAL>
0

>  <SCORE.SYSTEM.SOLV>
0

>  <SCORE.SYSTEM.norm>
0

>  <SCORE.heavy>
37

>  <SCORE.norm>
-0.323366

>  <RMSD>
13.545

$$$$
1yrj_lig
 OpenBabel11021811423D
libRbt.so/2013.1/901 2013/11/27
 37 40  0  0  0  0  0  0  0  0999 V2000
   32.7556    5.8743   17.0569 C   0  0  1  0  0  0  0  0  0  0  0  0
   32.9274    5.6848   15.5370 C   0  0  1  0  0  0  0  0  0  0  0  0
   34.1741    6.4114   15.0078 C   0  0  0  0  0  0  0  0  0  0  0  0
   34.1222    7.9111   15.4002 C   0  0  1  0  0  0  0  0  0  0  0  0
   34.0016    8.0526   16.9294 C   0  0  1  0  0  0  0  0  0  0  0  0
   33.9637    9.5940   17.3042 C   0  0  1  0  0  0  0  0  0  0  0  0
   35.2464   10.2796   16.8061 C   0  0  1  0  0  0  0  0  0  0  0  0
   35.3449   10.0665   15.2760 C   0  0  2  0  0  0  0  0  0  0  0  0
   35.3932   12.0291   18.6566 C   0  0  0  0  0  0  0  0  0  0  0  0
   32.9700    4.2619   15.1619 N   0  0  0  0  0  0  0  0  0  0  0  0
   35.2417   11.7227   17.1998 N   0  0  0  0  0  0  0  0  0  0  0  0
   33.6868    5.1077   17.8433 O   0  0  0  0  0  0  0  0  0  0  0  0
   32.7996    7.3161   17.3700 O   0  0  0  0  0  0  0  0  0  0  0  0
   35.3229    8.6489   14.9457 O   0  0  0  0  0  0  0  0  0  0  0  0
   32.8757   10.2101   16.6476 O   0  0  0  0  0  0  0  0  0  0  0  0
   36.5455   10.6211   14.7370 O   0  0  0  0  0  0  0  0  0  0  0  0
   37.0120   11.7846   15.4596 C   0  0  2  0  0  0  0  0  0  0  0  0
   37.9275   12.6940   14.6239 C   0  0  1  0  0  0  0  0  0  0  0  0
   39.2913   12.0090   14.3426 C   0  0  2  0  0  0  0  0  0  0  0  0
   39.9597   11.6386   15.6468 C   0  0  1  0  0  0  0  0  0  0  0  0
   39.0277   10.7010   16.4503 C   0  0  1  0  0  0  0  0  0  0  0  0
   39.6058   10.3139   17.8096 C   0  0  0  0  0  0  0  0  0  0  0  0
   41.2507   10.9856   15.3466 N   0  0  0  0  0  0  0  0  0  0  0  0
   37.7361   11.3714   16.6843 O   0  0  0  0  0  0  0  0  0  0  0  0
   37.2365   13.0437   13.4159 O   0  0  0  0  0  0  0  0  0  0  0  0
   40.1463   12.9116   13.6275 O   0  0  0  0  0  0  0  0  0  0  0  0
   39.9101   11.4753   18.5351 O   0  0  0  0  0  0  0  0  0  0  0  0
   34.5302    5.6908   18.9672 C   0  0  1  0  0  0  0  0  0  0  0  0
   35.7326    6.4043   18.3107 C   0  0  1  0  0  0  0  0  0  0  0  0
   36.6227    7.0933   19.3733 C   0  0  2  0  0  0  0  0  0  0  0  0
   35.7955    8.1084   20.1710 C   0  0  1  0  0  0  0  0  0  0  0  0
   34.6052    7.3991   20.8660 C   0  0  0  0  0  0  0  0  0  0  0  0
   33.7296    6.7387   19.7959 C   0  0  2  0  0  0  0  0  0  0  0  0
   36.6495    8.7551   21.1921 N   0  0  0  0  0  0  0  0  0  0  0  0
   32.6134    6.0986   20.4869 N   0  0  0  0  0  0  0  0  0  0  0  0
   36.5296    5.4301   17.6024 O   0  0  0  0  0  0  0  0  0  0  0  0
   37.7132    7.7628   18.7045 O   0  0  0  0  0  0  0  0  0  0  0  0
  1  2  1  0  0  0  0
  1 12  1  1  0  0  0
  1 13  1  0  0  0  0
  2  3  1  0  0  0  0
  2 10  1  1  0  0  0
  4  3  1  1  0  0  0
  4  5  1  0  0  0  0
  4 14  1  0  0  0  0
  5  6  1  0  0  0  0
  5 13  1  6  0  0  0
  6  7  1  0  0  0  0
  6 15  1  6  0  0  0
  7  8  1  0  0  0  0
  7 11  1  6  0  0  0
  8 14  1  0  0  0  0
  8 16  1  1  0  0  0
  9 11  1  0  0  0  0
 17 16  1  6  0  0  0
 17 18  1  0  0  0  0
 17 24  1  0  0  0  0
 18 19  1  0  0  0  0
 18 25  1  6  0  0  0
 19 20  1  0  0  0  0
 19 26  1  1  0  0  0
 20 21  1  0  0  0  0
 20 23  1  6  0  0  0
 21 22  1  1  0  0  0
 21 24  1  0  0  0  0
 22 27  1  0  0  0  0
 28 12  1  6  0  0  0
 28 29  1  0  0  0  0
 28 33  1  0  0  0  0
 29 30  1  0  0  0  0
 29 36  1  1  0  0  0
 30 31  1  0  0  0  0
 30 37  1  6  0  0  0
 31 32  1  0  0  0  0
 31 34  1  1  0  0  0
 32 33  1  0  0  0  0
 33 35  1  1  0  0  0
M  END
>  <CHROM.1>
130.14222713,69.38905382,-30.94402962,-157.44441583,55.45699155,-79.90372767
35.99667890,9.00816348,16.98789165,2.48449548,0.65998194,2.02766878

>  <Name>
1yrj_lig

>  <RI>
0

>  <Rbt.Current_Directory>
/home/itssahil/PROJECTS/Mol_Feturizer/New_Systems/rnas/1yrj

>  <Rbt.Executable>
rbdock ($Id: //depot/dev/client3/rdock/2013.1/src/exe/rbdock.cxx#4 $)

>  <Rbt.Library>
libRbt.so (2013.1, Build901 2013/11/27)

>  <Rbt.Parameter_File>
/export/apps/rDock/src/rDock_2013.1_src/data/scripts/dock_solv.prm

>  <Rbt.Receptor>
prm/blind_docking_60.prm

>  <SCORE>
-6.73872

>  <SCORE.INTER>
-12.6153

>  <SCORE.INTER.CONST>
1

>  <SCORE.INTER.POLAR>
-0.848528

>  <SCORE.INTER.ROT>
6

>  <SCORE.INTER.SOLV>
18.9749

>  <SCORE.INTER.VDW>
-19.5067

>  <SCORE.INTER.norm>
-0.340955

>  <SCORE.INTRA>
5.87661

>  <SCORE.INTRA.DIHEDRAL>
-1.39786

>  <SCORE.INTRA.DIHEDRAL.0>
15.6389

>  <SCORE.INTRA.POLAR>
0

>  <SCORE.INTRA.POLAR.0>
0

>  <SCORE.INTRA.REPUL>
0

>  <SCORE.INTRA.REPUL.0>
0

>  <SCORE.INTRA.SOLV>
2.46781

>  <SCORE.INTRA.SOLV.lig_0>
-90.9181

>  <SCORE.INTRA.VDW>
5.34163

>  <SCORE.INTRA.VDW.0>
-3.14158

>  <SCORE.INTRA.norm>
0.158827

>  <SCORE.RESTR>
0

>  <SCORE.RESTR.CAVITY>
0

>  <SCORE.RESTR.norm>
0

>  <SCORE.SYSTEM>
0

>  <SCORE.SYSTEM.CONST>
0

>  <SCORE.SYSTEM.DIHEDRAL>
0

>  <SCORE.SYSTEM.SOLV>
0

>  <SCORE.SYSTEM.norm>
0

>  <SCORE.heavy>
37

>  <SCORE.norm>
-0.182127

>  <RMSD>
13.551

$$$$
1yrj_lig
 OpenBabel11021811423D
libRbt.so/2013.1/901 2013/11/27
 37 40  0  0  0  0  0  0  0  0999 V2000
   31.9364    5.4236   19.8902 C   0  0  1  0  0  0  0  0  0  0  0  0
   33.2709    5.2363   20.6382 C   0  0  1  0  0  0  0  0  0  0  0  0
   34.3557    6.1940   20.1200 C   0  0  0  0  0  0  0  0  0  0  0  0
   34.5246    6.0268   18.5873 C   0  0  1  0  0  0  0  0  0  0  0  0
   33.1793    6.2724   17.8782 C   0  0  1  0  0  0  0  0  0  0  0  0
   33.3827    6.1083   16.3131 C   0  0  1  0  0  0  0  0  0  0  0  0
   34.4354    7.1141   15.8196 C   0  0  1  0  0  0  0  0  0  0  0  0
   35.7498    6.8574   16.5960 C   0  0  2  0  0  0  0  0  0  0  0  0
   34.9435    8.2524   13.5941 C   0  0  0  0  0  0  0  0  0  0  0  0
   33.1113    5.3878   22.0937 N   0  0  0  0  0  0  0  0  0  0  0  0
   34.5966    7.0006   14.3368 N   0  0  0  0  0  0  0  0  0  0  0  0
   31.2293    6.6215   20.2619 O   0  0  0  0  0  0  0  0  0  0  0  0
   32.1826    5.3368   18.4374 O   0  0  0  0  0  0  0  0  0  0  0  0
   35.5337    6.9575   18.0321 O   0  0  0  0  0  0  0  0  0  0  0  0
   33.8760    4.8141   16.0370 O   0  0  0  0  0  0  0  0  0  0  0  0
   36.7690    7.7932   16.2423 O   0  0  0  0  0  0  0  0  0  0  0  0
   38.0582    7.4790   16.8191 C   0  0  2  0  0  0  0  0  0  0  0  0
   38.4852    8.4570   17.9258 C   0  0  1  0  0  0  0  0  0  0  0  0
   38.8058    9.8584   17.3413 C   0  0  2  0  0  0  0  0  0  0  0  0
   39.8862    9.7427   16.2905 C   0  0  1  0  0  0  0  0  0  0  0  0
   39.4153    8.7764   15.1779 C   0  0  1  0  0  0  0  0  0  0  0  0
   40.4695    8.5622   14.0942 C   0  0  0  0  0  0  0  0  0  0  0  0
   40.1656   11.0895   15.7506 N   0  0  0  0  0  0  0  0  0  0  0  0
   39.1006    7.4622   15.7664 O   0  0  0  0  0  0  0  0  0  0  0  0
   37.4442    8.5057   18.9122 O   0  0  0  0  0  0  0  0  0  0  0  0
   39.2717   10.7224   18.3870 O   0  0  0  0  0  0  0  0  0  0  0  0
   41.6011    7.9539   14.6577 O   0  0  0  0  0  0  0  0  0  0  0  0
   29.7945    6.9211   19.8548 C   0  0  1  0  0  0  0  0  0  0  0  0
   29.7376    6.8636   18.3123 C   0  0  1  0  0  0  0  0  0  0  0  0
   28.2957    7.0902   17.7967 C   0  0  2  0  0  0  0  0  0  0  0  0
   27.3564    6.0311   18.3857 C   0  0  1  0  0  0  0  0  0  0  0  0
   27.3754    6.1020   19.9341 C   0  0  0  0  0  0  0  0  0  0  0  0
   28.8071    5.8591   20.4230 C   0  0  2  0  0  0  0  0  0  0  0  0
   25.9781    6.2602   17.8977 N   0  0  0  0  0  0  0  0  0  0  0  0
   28.7799    5.9158   21.8820 N   0  0  0  0  0  0  0  0  0  0  0  0
   30.5892    7.8965   17.7703 O   0  0  0  0  0  0  0  0  0  0  0  0
   28.2969    7.0015   16.3556 O   0  0  0  0  0  0  0  0  0  0  0  0
  1  2  1  0  0  0  0
  1 12  1  6  0  0  0
  1 13  1  0  0  0  0
  2  3  1  0  0  0  0
  2 10  1  1  0  0  0
  4  3  1  1  0  0  0
  4  5  1  0  0  0  0
  4 14  1  0  0  0  0
  5  6  1  0  0  0  0
  5 13  1  1  0  0  0
  6  7  1  0  0  0  0
  6 15  1  1  0  0  0
  7  8  1  0  0  0  0
  7 11  1  6  0  0  0
  8 14  1  0  0  0  0
  8 16  1  6  0  0  0
  9 11  1  0  0  0  0
 17 16  1  6  0  0  0
 17 18  1  0  0  0  0
 17 24  1  0  0  0  0
 18 19  1  0  0  0  0
 18 25  1  1  0  0  0
 19 20  1  0  0  0  0
 19 26  1  1  0  0  0
 20 21  1  0  0  0  0
 20 23  1  6  0  0  0
 21 22  1  6  0  0  0
 21 24  1  0  0  0  0
 22 27  1  0  0  0  0
 28 12  1  6  0  0  0
 28 29  1  0  0  0  0
 28 33  1  0  0  0  0
 29 30  1  0  0  0  0
 29 36  1  6  0  0  0
 30 31  1  0  0  0  0
 30 37  1  6  0  0  0
 31 32  1  0  0  0  0
 31 34  1  6  0  0  0
 32 33  1  0  0  0  0
 33 35  1  1  0  0  0
M  END
>  <CHROM.1>
-169.18605542,148.00597447,-172.53755712,-109.41097986,63.14809610,-56.72458747
34.12701363,7.20132638,17.66378794,-2.81849940,-0.20450528,-1.43488254

>  <Name>
1yrj_lig

>  <RI>
0

>  <Rbt.Current_Directory>
/home/itssahil/PROJECTS/Mol_Feturizer/New_Systems/rnas/1yrj

>  <Rbt.Executable>
rbdock ($Id: //depot/dev/client3/rdock/2013.1/src/exe/rbdock.cxx#4 $)

>  <Rbt.Library>
libRbt.so (2013.1, Build901 2013/11/27)

>  <Rbt.Parameter_File>
/export/apps/rDock/src/rDock_2013.1_src/data/scripts/dock_solv.prm

>  <Rbt.Receptor>
prm/blind_docking_60.prm

>  <SCORE>
-17.435

>  <SCORE.INTER>
-13.1252

>  <SCORE.INTER.CONST>
1

>  <SCORE.INTER.POLAR>
-0.916982

>  <SCORE.INTER.ROT>
6

>  <SCORE.INTER.SOLV>
17.2018

>  <SCORE.INTER.VDW>
-19.0275

>  <SCORE.INTER.norm>
-0.354736

>  <SCORE.INTRA>
-4.32203

>  <SCORE.INTRA.DIHEDRAL>
-7.32255

>  <SCORE.INTRA.DIHEDRAL.0>
15.6389

>  <SCORE.INTRA.POLAR>
0

>  <SCORE.INTRA.POLAR.0>
0

>  <SCORE.INTRA.REPUL>
0

>  <SCORE.INTRA.REPUL.0>
0

>  <SCORE.INTRA.SOLV>
-0.996446

>  <SCORE.INTRA.SOLV.lig_0>
-90.9181

>  <SCORE.INTRA.VDW>
-0.162529

>  <SCORE.INTRA.VDW.0>
-3.14158

>  <SCORE.INTRA.norm>
-0.116812

>  <SCORE.RESTR>
0.0122296

>  <SCORE.RESTR.CAVITY>
0.0122296

>  <SCORE.RESTR.norm>
0.00033053

>  <SCORE.SYSTEM>
0

>  <SCORE.SYSTEM.CONST>
0

>  <SCORE.SYSTEM.DIHEDRAL>
0

>  <SCORE.SYSTEM.SOLV>
0

>  <SCORE.SYSTEM.norm>
0

>  <SCORE.heavy>
37

>  <SCORE.norm>
-0.471217

>  <RMSD>
13.589

$$$$
1yrj_lig
 OpenBabel11021811423D
libRbt.so/2013.1/901 2013/11/27
 37 40  0  0  0  0  0  0  0  0999 V2000
   36.9676    6.5568   15.2060 C   0  0  1  0  0  0  0  0  0  0  0  0
   35.9665    5.8797   14.2496 C   0  0  1  0  0  0  0  0  0  0  0  0
   34.5117    6.1075   14.6902 C   0  0  0  0  0  0  0  0  0  0  0  0
   34.3197    5.6359   16.1553 C   0  0  1  0  0  0  0  0  0  0  0  0
   35.3048    6.3747   17.0809 C   0  0  1  0  0  0  0  0  0  0  0  0
   35.0787    5.8840   18.5729 C   0  0  1  0  0  0  0  0  0  0  0  0
   33.6300    6.1727   18.9990 C   0  0  1  0  0  0  0  0  0  0  0  0
   32.6829    5.4498   18.0106 C   0  0  2  0  0  0  0  0  0  0  0  0
   32.5967    6.6662   21.2783 C   0  0  0  0  0  0  0  0  0  0  0  0
   36.1517    6.3210   12.8575 N   0  0  0  0  0  0  0  0  0  0  0  0
   33.4226    5.7591   20.4214 N   0  0  0  0  0  0  0  0  0  0  0  0
   37.0208    7.9889   15.0670 O   0  0  0  0  0  0  0  0  0  0  0  0
   36.6757    6.1306   16.5888 O   0  0  0  0  0  0  0  0  0  0  0  0
   32.9407    5.8704   16.6411 O   0  0  0  0  0  0  0  0  0  0  0  0
   35.2661    4.4858   18.6406 O   0  0  0  0  0  0  0  0  0  0  0  0
   31.3095    5.7165   18.2973 O   0  0  0  0  0  0  0  0  0  0  0  0
   30.7627    6.8026   17.5131 C   0  0  2  0  0  0  0  0  0  0  0  0
   30.8510    8.1666   18.2168 C   0  0  1  0  0  0  0  0  0  0  0  0
   29.8939    8.2302   19.4367 C   0  0  2  0  0  0  0  0  0  0  0  0
   28.4757    7.9537   18.9928 C   0  0  1  0  0  0  0  0  0  0  0  0
   28.4140    6.5639   18.3161 C   0  0  1  0  0  0  0  0  0  0  0  0
   27.0213    6.2218   17.7914 C   0  0  0  0  0  0  0  0  0  0  0  0
   27.5906    8.0165   20.1744 N   0  0  0  0  0  0  0  0  0  0  0  0
   29.3465    6.5288   17.1752 O   0  0  0  0  0  0  0  0  0  0  0  0
   32.2182    8.3964   18.5872 O   0  0  0  0  0  0  0  0  0  0  0  0
   29.9457    9.5381   20.0231 O   0  0  0  0  0  0  0  0  0  0  0  0
   26.6823    7.1062   16.7566 O   0  0  0  0  0  0  0  0  0  0  0  0
   38.1018    8.8622   15.6862 C   0  0  1  0  0  0  0  0  0  0  0  0
   39.4027    8.6069   14.8934 C   0  0  1  0  0  0  0  0  0  0  0  0
   40.5553    9.5042   15.4057 C   0  0  2  0  0  0  0  0  0  0  0  0
   40.1618   10.9813   15.2861 C   0  0  1  0  0  0  0  0  0  0  0  0
   38.8773   11.2601   16.1077 C   0  0  0  0  0  0  0  0  0  0  0  0
   37.7466   10.3744   15.5739 C   0  0  2  0  0  0  0  0  0  0  0  0
   41.2635   11.8329   15.7878 N   0  0  0  0  0  0  0  0  0  0  0  0
   36.5534   10.6786   16.3591 N   0  0  0  0  0  0  0  0  0  0  0  0
   39.7883    7.2242   15.0529 O   0  0  0  0  0  0  0  0  0  0  0  0
   41.7355    9.2428   14.6160 O   0  0  0  0  0  0  0  0  0  0  0  0
  1  2  1  0  0  0  0
  1 12  1  1  0  0  0
  1 13  1  0  0  0  0
  2  3  1  0  0  0  0
  2 10  1  6  0  0  0
  4  3  1  6  0  0  0
  4  5  1  0  0  0  0
  4 14  1  0  0  0  0
  5  6  1  0  0  0  0
  5 13  1  6  0  0  0
  6  7  1  0  0  0  0
  6 15  1  6  0  0  0
  7  8  1  0  0  0  0
  7 11  1  1  0  0  0
  8 14  1  0  0  0  0
  8 16  1  1  0  0  0
  9 11  1  0  0  0  0
 17 16  1  1  0  0  0
 17 18  1  0  0  0  0
 17 24  1  0  0  0  0
 18 19  1  0  0  0  0
 18 25  1  1  0  0  0
 19 20  1  0  0  0  0
 19 26  1  6  0  0  0
 20 21  1  0  0  0  0
 20 23  1  1  0  0  0
 21 22  1  6  0  0  0
 21 24  1  0  0  0  0
 22 27  1  0  0  0  0
 28 12  1  6  0  0  0
 28 29  1  0  0  0  0
 28 33  1  0  0  0  0
 29 30  1  0  0  0  0
 29 36  1  1  0  0  0
 30 31  1  0  0  0  0
 30 37  1  6  0  0  0
 31 32  1  0  0  0  0
 31 34  1  1  0  0  0
 32 33  1  0  0  0  0
 33 35  1  1  0  0  0
M  END
>  <CHROM.1>
-167.60377702,139.56023004,95.34562695,-93.11813475,65.30772777,71.76898638
34.27370118,7.52374877,17.05291960,-0.06665852,-0.37241013,-2.77437845

>  <Name>
1yrj_lig

>  <RI>
0

>  <Rbt.Current_Directory>
/home/itssahil/PROJECTS/Mol_Feturizer/New_Systems/rnas/1yrj

>  <Rbt.Executable>
rbdock ($Id: //depot/dev/client3/rdock/2013.1/src/exe/rbdock.cxx#4 $)

>  <Rbt.Library>
libRbt.so (2013.1, Build901 2013/11/27)

>  <Rbt.Parameter_File>
/export/apps/rDock/src/rDock_2013.1_src/data/scripts/dock_solv.prm

>  <Rbt.Receptor>
prm/blind_docking_60.prm

>  <SCORE>
-12.5943

>  <SCORE.INTER>
-12.3607

>  <SCORE.INTER.CONST>
1

>  <SCORE.INTER.POLAR>
-1.09974

>  <SCORE.INTER.ROT>
6

>  <SCORE.INTER.SOLV>
14.252

>  <SCORE.INTER.VDW>
-16.9254

>  <SCORE.INTER.norm>
-0.334073

>  <SCORE.INTRA>
-0.712253

>  <SCORE.INTRA.DIHEDRAL>
-4.39233

>  <SCORE.INTRA.DIHEDRAL.0>
15.6389

>  <SCORE.INTRA.POLAR>
0

>  <SCORE.INTRA.POLAR.0>
0

>  <SCORE.INTRA.REPUL>
0

>  <SCORE.INTRA.REPUL.0>
0

>  <SCORE.INTRA.SOLV>
-0.571328

>  <SCORE.INTRA.SOLV.lig_0>
-90.9181

>  <SCORE.INTRA.VDW>
1.76958

>  <SCORE.INTRA.VDW.0>
-3.14158

>  <SCORE.INTRA.norm>
-0.0192501

>  <SCORE.RESTR>
0.478662

>  <SCORE.RESTR.CAVITY>
0.478662

>  <SCORE.RESTR.norm>
0.0129368

>  <SCORE.SYSTEM>
0

>  <SCORE.SYSTEM.CONST>
0

>  <SCORE.SYSTEM.DIHEDRAL>
0

>  <SCORE.SYSTEM.SOLV>
0

>  <SCORE.SYSTEM.norm>
0

>  <SCORE.heavy>
37

>  <SCORE.norm>
-0.340387

>  <RMSD>
13.597

$$$$
1yrj_lig
 OpenBabel11021811423D
libRbt.so/2013.1/901 2013/11/27
 37 40  0  0  0  0  0  0  0  0999 V2000
   31.8203    5.4105   19.4334 C   0  0  1  0  0  0  0  0  0  0  0  0
   33.1466    5.1135   20.1603 C   0  0  1  0  0  0  0  0  0  0  0  0
   34.2731    6.0523   19.7000 C   0  0  0  0  0  0  0  0  0  0  0  0
   34.4305    5.9786   18.1587 C   0  0  1  0  0  0  0  0  0  0  0  0
   33.0962    6.3315   17.4746 C   0  0  1  0  0  0  0  0  0  0  0  0
   33.2881    6.2613   15.9010 C   0  0  1  0  0  0  0  0  0  0  0  0
   34.3849    7.2480   15.4686 C   0  0  1  0  0  0  0  0  0  0  0  0
   35.6879    6.8809   16.2194 C   0  0  2  0  0  0  0  0  0  0  0  0
   35.1919    8.4116   13.3470 C   0  0  0  0  0  0  0  0  0  0  0  0
   32.9976    5.1763   21.6234 N   0  0  0  0  0  0  0  0  0  0  0  0
   34.5370    7.2247   13.9808 N   0  0  0  0  0  0  0  0  0  0  0  0
   31.1702    6.6126   19.8866 O   0  0  0  0  0  0  0  0  0  0  0  0
   32.0588    5.4081   17.9768 O   0  0  0  0  0  0  0  0  0  0  0  0
   35.4801    6.8963   17.6601 O   0  0  0  0  0  0  0  0  0  0  0  0
   33.7205    4.9668   15.5382 O   0  0  0  0  0  0  0  0  0  0  0  0
   36.7483    7.7902   15.9222 O   0  0  0  0  0  0  0  0  0  0  0  0
   37.9943    7.4470   16.5728 C   0  0  2  0  0  0  0  0  0  0  0  0
   38.3732    8.4101   17.7097 C   0  0  1  0  0  0  0  0  0  0  0  0
   38.7556    9.8081   17.1550 C   0  0  2  0  0  0  0  0  0  0  0  0
   39.8945    9.6768   16.1699 C   0  0  1  0  0  0  0  0  0  0  0  0
   39.4723    8.7263   15.0245 C   0  0  1  0  0  0  0  0  0  0  0  0
   40.5852    8.4972   14.0043 C   0  0  0  0  0  0  0  0  0  0  0  0
   40.2321   11.0207   15.6568 N   0  0  0  0  0  0  0  0  0  0  0  0
   39.0973    7.4154   15.5843 O   0  0  0  0  0  0  0  0  0  0  0  0
   37.2762    8.4740   18.6325 O   0  0  0  0  0  0  0  0  0  0  0  0
   39.1749   10.6567   18.2325 O   0  0  0  0  0  0  0  0  0  0  0  0
   41.6892    7.9115   14.6416 O   0  0  0  0  0  0  0  0  0  0  0  0
   29.9517    7.2246   19.2119 C   0  0  1  0  0  0  0  0  0  0  0  0
   28.7114    6.4734   19.7443 C   0  0  1  0  0  0  0  0  0  0  0  0
   27.4052    7.0692   19.1655 C   0  0  2  0  0  0  0  0  0  0  0  0
   27.3015    8.5553   19.5288 C   0  0  1  0  0  0  0  0  0  0  0  0
   28.5224    9.3287   18.9685 C   0  0  0  0  0  0  0  0  0  0  0  0
   29.8018    8.7338   19.5662 C   0  0  2  0  0  0  0  0  0  0  0  0
   26.0564    9.1211   18.9632 N   0  0  0  0  0  0  0  0  0  0  0  0
   30.9244    9.4984   19.0297 N   0  0  0  0  0  0  0  0  0  0  0  0
   28.7978    5.0853   19.3547 O   0  0  0  0  0  0  0  0  0  0  0  0
   26.2811    6.3479   19.7138 O   0  0  0  0  0  0  0  0  0  0  0  0
  1  2  1  0  0  0  0
  1 12  1  1  0  0  0
  1 13  1  0  0  0  0
  2  3  1  0  0  0  0
  2 10  1  1  0  0  0
  4  3  1  1  0  0  0
  4  5  1  0  0  0  0
  4 14  1  0  0  0  0
  5  6  1  0  0  0  0
  5 13  1  1  0  0  0
  6  7  1  0  0  0  0
  6 15  1  1  0  0  0
  7  8  1  0  0  0  0
  7 11  1  6  0  0  0
  8 14  1  0  0  0  0
  8 16  1  1  0  0  0
  9 11  1  0  0  0  0
 17 16  1  6  0  0  0
 17 18  1  0  0  0  0
 17 24  1  0  0  0  0
 18 19  1  0  0  0  0
 18 25  1  1  0  0  0
 19 20  1  0  0  0  0
 19 26  1  1  0  0  0
 20 21  1  0  0  0  0
 20 23  1  6  0  0  0
 21 22  1  6  0  0  0
 21 24  1  0  0  0  0
 22 27  1  0  0  0  0
 28 12  1  1  0  0  0
 28 29  1  0  0  0  0
 28 33  1  0  0  0  0
 29 30  1  0  0  0  0
 29 36  1  6  0  0  0
 30 31  1  0  0  0  0
 30 37  1  1  0  0  0
 31 32  1  0  0  0  0
 31 34  1  6  0  0  0
 32 33  1  0  0  0  0
 33 35  1  6  0  0  0
M  END
>  <CHROM.1>
171.62915222,159.65266597,-177.96983033,-108.77867302,60.82981203,82.79923194
34.04814596,7.48031859,17.58023536,-2.83584336,0.19981183,-0.59832104

>  <Name>
1yrj_lig

>  <RI>
0

>  <Rbt.Current_Directory>
/home/itssahil/PROJECTS/Mol_Feturizer/New_Systems/rnas/1yrj

>  <Rbt.Executable>
rbdock ($Id: //depot/dev/client3/rdock/2013.1/src/exe/rbdock.cxx#4 $)

>  <Rbt.Library>
libRbt.so (2013.1, Build901 2013/11/27)

>  <Rbt.Parameter_File>
/export/apps/rDock/src/rDock_2013.1_src/data/scripts/dock_solv.prm

>  <Rbt.Receptor>
prm/blind_docking_100.prm

>  <SCORE>
-15.0375

>  <SCORE.INTER>
-11.687

>  <SCORE.INTER.CONST>
1

>  <SCORE.INTER.POLAR>
-0.848528

>  <SCORE.INTER.ROT>
6

>  <SCORE.INTER.SOLV>
8.92504

>  <SCORE.INTER.VDW>
-15.5379

>  <SCORE.INTER.norm>
-0.315865

>  <SCORE.INTRA>
-3.35051

>  <SCORE.INTRA.DIHEDRAL>
-6.02366

>  <SCORE.INTRA.DIHEDRAL.0>
15.6389

>  <SCORE.INTRA.POLAR>
0

>  <SCORE.INTRA.POLAR.0>
0

>  <SCORE.INTRA.REPUL>
0

>  <SCORE.INTRA.REPUL.0>
0

>  <SCORE.INTRA.SOLV>
-1.56136

>  <SCORE.INTRA.SOLV.lig_0>
-90.9181

>  <SCORE.INTRA.VDW>
0.442001

>  <SCORE.INTRA.VDW.0>
-3.14158

>  <SCORE.INTRA.norm>
-0.0905543

>  <SCORE.RESTR>
0

>  <SCORE.RESTR.CAVITY>
0

>  <SCORE.RESTR.norm>
0

>  <SCORE.SYSTEM>
0

>  <SCORE.SYSTEM.CONST>
0

>  <SCORE.SYSTEM.DIHEDRAL>
0

>  <SCORE.SYSTEM.SOLV>
0

>  <SCORE.SYSTEM.norm>
0

>  <SCORE.heavy>
37

>  <SCORE.norm>
-0.40642

>  <RMSD>
13.624

$$$$
1yrj_lig
 OpenBabel11021811423D
libRbt.so/2013.1/901 2013/11/27
 37 40  0  0  0  0  0  0  0  0999 V2000
   31.9317    5.4193   19.9075 C   0  0  1  0  0  0  0  0  0  0  0  0
   33.2644    5.2271   20.6576 C   0  0  1  0  0  0  0  0  0  0  0  0
   34.3504    6.1882   20.1485 C   0  0  0  0  0  0  0  0  0  0  0  0
   34.5232    6.0311   18.6151 C   0  0  1  0  0  0  0  0  0  0  0  0
   33.1797    6.2812   17.9043 C   0  0  1  0  0  0  0  0  0  0  0  0
   33.3871    6.1274   16.3386 C   0  0  1  0  0  0  0  0  0  0  0  0
   34.4410    7.1364   15.8544 C   0  0  1  0  0  0  0  0  0  0  0  0
   35.7534    6.8747   16.6324 C   0  0  2  0  0  0  0  0  0  0  0  0
   35.0206    8.2741   13.6461 C   0  0  0  0  0  0  0  0  0  0  0  0
   33.1010    5.3691   22.1137 N   0  0  0  0  0  0  0  0  0  0  0  0
   34.6059    7.0326   14.3713 N   0  0  0  0  0  0  0  0  0  0  0  0
   31.2236    6.6147   20.2853 O   0  0  0  0  0  0  0  0  0  0  0  0
   32.1816    5.3420   18.4548 O   0  0  0  0  0  0  0  0  0  0  0  0
   35.5337    6.9654   18.0686 O   0  0  0  0  0  0  0  0  0  0  0  0
   33.8812    4.8350   16.0554 O   0  0  0  0  0  0  0  0  0  0  0  0
   36.7734    7.8129   16.2875 O   0  0  0  0  0  0  0  0  0  0  0  0
   38.0333    7.5570   16.9515 C   0  0  2  0  0  0  0  0  0  0  0  0
   38.3871    8.6106   18.0137 C   0  0  1  0  0  0  0  0  0  0  0  0
   38.7213    9.9767   17.3575 C   0  0  2  0  0  0  0  0  0  0  0  0
   39.8586    9.8112   16.3757 C   0  0  1  0  0  0  0  0  0  0  0  0
   39.4611    8.7682   15.3045 C   0  0  1  0  0  0  0  0  0  0  0  0
   40.5753    8.5020   14.2948 C   0  0  0  0  0  0  0  0  0  0  0  0
   40.1500   11.1250   15.7653 N   0  0  0  0  0  0  0  0  0  0  0  0
   39.1314    7.4896   15.9593 O   0  0  0  0  0  0  0  0  0  0  0  0
   37.2935    8.7057   18.9378 O   0  0  0  0  0  0  0  0  0  0  0  0
   39.1188   10.9132   18.3684 O   0  0  0  0  0  0  0  0  0  0  0  0
   40.1626    7.5072   13.3959 O   0  0  0  0  0  0  0  0  0  0  0  0
   29.7891    6.9159   19.8782 C   0  0  1  0  0  0  0  0  0  0  0  0
   29.7347    6.8699   18.3351 C   0  0  1  0  0  0  0  0  0  0  0  0
   28.2934    7.0989   17.8190 C   0  0  2  0  0  0  0  0  0  0  0  0
   27.3542    6.0345   18.3987 C   0  0  1  0  0  0  0  0  0  0  0  0
   27.3707    6.0938   19.9475 C   0  0  0  0  0  0  0  0  0  0  0  0
   28.8019    5.8487   20.4368 C   0  0  2  0  0  0  0  0  0  0  0  0
   25.9764    6.2660   17.9102 N   0  0  0  0  0  0  0  0  0  0  0  0
   28.7724    5.8945   21.8962 N   0  0  0  0  0  0  0  0  0  0  0  0
   30.5861    7.9076   17.8022 O   0  0  0  0  0  0  0  0  0  0  0  0
   28.2969    7.0211   16.3773 O   0  0  0  0  0  0  0  0  0  0  0  0
  1  2  1  0  0  0  0
  1 12  1  6  0  0  0
  1 13  1  0  0  0  0
  2  3  1  0  0  0  0
  2 10  1  1  0  0  0
  4  3  1  1  0  0  0
  4  5  1  0  0  0  0
  4 14  1  0  0  0  0
  5  6  1  0  0  0  0
  5 13  1  1  0  0  0
  6  7  1  0  0  0  0
  6 15  1  1  0  0  0
  7  8  1  0  0  0  0
  7 11  1  6  0  0  0
  8 14  1  0  0  0  0
  8 16  1  6  0  0  0
  9 11  1  0  0  0  0
 17 16  1  6  0  0  0
 17 18  1  0  0  0  0
 17 24  1  0  0  0  0
 18 19  1  0  0  0  0
 18 25  1  1  0  0  0
 19 20  1  0  0  0  0
 19 26  1  1  0  0  0
 20 21  1  0  0  0  0
 20 23  1  6  0  0  0
 21 22  1  6  0  0  0
 21 24  1  0  0  0  0
 22 27  1  0  0  0  0
 28 12  1  6  0  0  0
 28 29  1  0  0  0  0
 28 33  1  0  0  0  0
 29 30  1  0  0  0  0
 29 36  1  6  0  0  0
 30 31  1  0  0  0  0
 30 37  1  6  0  0  0
 31 32  1  0  0  0  0
 31 34  1  6  0  0  0
 32 33  1  0  0  0  0
 33 35  1  1  0  0  0
M  END
>  <CHROM.1>
-169.09286398,150.93866732,-177.26567536,-110.20001556,177.41700523,-56.83090165
34.07377839,7.21405948,17.66601698,-2.81284501,-0.22457673,-1.48101056

>  <Name>
1yrj_lig

>  <RI>
0

>  <Rbt.Current_Directory>
/home/itssahil/PROJECTS/Mol_Feturizer/New_Systems/rnas/1yrj

>  <Rbt.Executable>
rbdock ($Id: //depot/dev/client3/rdock/2013.1/src/exe/rbdock.cxx#4 $)

>  <Rbt.Library>
libRbt.so (2013.1, Build901 2013/11/27)

>  <Rbt.Parameter_File>
/export/apps/rDock/src/rDock_2013.1_src/data/scripts/dock_solv.prm

>  <Rbt.Receptor>
prm/blind_docking_60.prm

>  <SCORE>
-17.2756

>  <SCORE.INTER>
-12.6199

>  <SCORE.INTER.CONST>
1

>  <SCORE.INTER.POLAR>
-0.931137

>  <SCORE.INTER.ROT>
6

>  <SCORE.INTER.SOLV>
16.8992

>  <SCORE.INTER.VDW>
-18.5425

>  <SCORE.INTER.norm>
-0.341077

>  <SCORE.INTRA>
-4.69079

>  <SCORE.INTRA.DIHEDRAL>
-7.5804

>  <SCORE.INTRA.DIHEDRAL.0>
15.6389

>  <SCORE.INTRA.POLAR>
0

>  <SCORE.INTRA.POLAR.0>
0

>  <SCORE.INTRA.REPUL>
0

>  <SCORE.INTRA.REPUL.0>
0

>  <SCORE.INTRA.SOLV>
-1.65608

>  <SCORE.INTRA.SOLV.lig_0>
-90.9181

>  <SCORE.INTRA.VDW>
-0.0725448

>  <SCORE.INTRA.VDW.0>
-3.14158

>  <SCORE.INTRA.norm>
-0.126778

>  <SCORE.RESTR>
0.0350359

>  <SCORE.RESTR.CAVITY>
0.0350359

>  <SCORE.RESTR.norm>
0.000946916

>  <SCORE.SYSTEM>
0

>  <SCORE.SYSTEM.CONST>
0

>  <SCORE.SYSTEM.DIHEDRAL>
0

>  <SCORE.SYSTEM.SOLV>
0

>  <SCORE.SYSTEM.norm>
0

>  <SCORE.heavy>
37

>  <SCORE.norm>
-0.466908

>  <RMSD>
13.624

$$$$
1yrj_lig
 OpenBabel11021811423D
libRbt.so/2013.1/901 2013/11/27
 37 40  0  0  0  0  0  0  0  0999 V2000
   32.0492    9.5226   18.5716 C   0  0  1  0  0  0  0  0  0  0  0  0
   32.5159   10.7727   17.8005 C   0  0  1  0  0  0  0  0  0  0  0  0
   33.2499   10.4020   16.5019 C   0  0  0  0  0  0  0  0  0  0  0  0
   34.4279    9.4420   16.8122 C   0  0  1  0  0  0  0  0  0  0  0  0
   33.9081    8.1859   17.5368 C   0  0  1  0  0  0  0  0  0  0  0  0
   35.1295    7.2163   17.8304 C   0  0  1  0  0  0  0  0  0  0  0  0
   35.8091    6.8247   16.5082 C   0  0  1  0  0  0  0  0  0  0  0  0
   36.2678    8.1217   15.7984 C   0  0  2  0  0  0  0  0  0  0  0  0
   36.5604    4.5111   17.2757 C   0  0  0  0  0  0  0  0  0  0  0  0
   31.4002   11.6884   17.5110 N   0  0  0  0  0  0  0  0  0  0  0  0
   36.9305    5.8706   16.7718 N   0  0  0  0  0  0  0  0  0  0  0  0
   30.9159    8.8653   17.9743 O   0  0  0  0  0  0  0  0  0  0  0  0
   33.1985    8.6155   18.7587 O   0  0  0  0  0  0  0  0  0  0  0  0
   35.1449    9.0235   15.5861 O   0  0  0  0  0  0  0  0  0  0  0  0
   36.0903    7.8951   18.6119 O   0  0  0  0  0  0  0  0  0  0  0  0
   36.8573    7.8527   14.5257 O   0  0  0  0  0  0  0  0  0  0  0  0
   37.9650    8.7293   14.2124 C   0  0  2  0  0  0  0  0  0  0  0  0
   39.1480    8.5870   15.1839 C   0  0  1  0  0  0  0  0  0  0  0  0
   38.7858    9.1322   16.5909 C   0  0  2  0  0  0  0  0  0  0  0  0
   38.3558   10.5776   16.4876 C   0  0  1  0  0  0  0  0  0  0  0  0
   37.1471   10.6836   15.5278 C   0  0  1  0  0  0  0  0  0  0  0  0
   36.6753   12.1219   15.3261 C   0  0  0  0  0  0  0  0  0  0  0  0
   38.0136   11.0659   17.8396 N   0  0  0  0  0  0  0  0  0  0  0  0
   37.5161   10.1412   14.2080 O   0  0  0  0  0  0  0  0  0  0  0  0
   39.5390    7.2069   15.2208 O   0  0  0  0  0  0  0  0  0  0  0  0
   39.9324    9.0535   17.4489 O   0  0  0  0  0  0  0  0  0  0  0  0
   37.6859   12.8600   14.6924 O   0  0  0  0  0  0  0  0  0  0  0  0
   30.0612    7.8297   18.6894 C   0  0  1  0  0  0  0  0  0  0  0  0
   28.8075    7.5943   17.8182 C   0  0  1  0  0  0  0  0  0  0  0  0
   27.8989    6.5001   18.4294 C   0  0  2  0  0  0  0  0  0  0  0  0
   28.6807    5.1887   18.5703 C   0  0  1  0  0  0  0  0  0  0  0  0
   29.9227    5.4015   19.4731 C   0  0  0  0  0  0  0  0  0  0  0  0
   30.8150    6.4754   18.8419 C   0  0  2  0  0  0  0  0  0  0  0  0
   27.8097    4.1505   19.1653 N   0  0  0  0  0  0  0  0  0  0  0  0
   31.9789    6.6336   19.7097 N   0  0  0  0  0  0  0  0  0  0  0  0
   28.0552    8.8242   17.7326 O   0  0  0  0  0  0  0  0  0  0  0  0
   26.7593    6.3043   17.5647 O   0  0  0  0  0  0  0  0  0  0  0  0
  1  2  1  0  0  0  0
  1 12  1  6  0  0  0
  1 13  1  0  0  0  0
  2  3  1  0  0  0  0
  2 10  1  6  0  0  0
  4  3  1  6  0  0  0
  4  5  1  0  0  0  0
  4 14  1  0  0  0  0
  5  6  1  0  0  0  0
  5 13  1  1  0  0  0
  6  7  1  0  0  0  0
  6 15  1  1  0  0  0
  7  8  1  0  0  0  0
  7 11  1  1  0  0  0
  8 14  1  0  0  0  0
  8 16  1  6  0  0  0
  9 11  1  0  0  0  0
 17 16  1  1  0  0  0
 17 18  1  0  0  0  0
 17 24  1  0  0  0  0
 18 19  1  0  0  0  0
 18 25  1  1  0  0  0
 19 20  1  0  0  0  0
 19 26  1  1  0  0  0
 20 21  1  0  0  0  0
 20 23  1  1  0  0  0
 21 22  1  6  0  0  0
 21 24  1  0  0  0  0
 22 27  1  0  0  0  0
 28 12  1  6  0  0  0
 28 29  1  0  0  0  0
 28 33  1  0  0  0  0
 29 30  1  0  0  0  0
 29 36  1  1  0  0  0
 30 31  1  0  0  0  0
 30 37  1  6  0  0  0
 31 32  1  0  0  0  0
 31 34  1  1  0  0  0
 32 33  1  0  0  0  0
 33 35  1  1  0  0  0
M  END
>  <CHROM.1>
-164.83287409,67.32967517,-143.63674870,62.89396721,64.40126232,168.80550389
34.14164820,8.38646839,17.08833183,2.81628018,-0.22755810,2.92444671

>  <Name>
1yrj_lig

>  <RI>
0

>  <Rbt.Current_Directory>
/home/itssahil/PROJECTS/Mol_Feturizer/New_Systems/rnas/1yrj

>  <Rbt.Executable>
rbdock ($Id: //depot/dev/client3/rdock/2013.1/src/exe/rbdock.cxx#4 $)

>  <Rbt.Library>
libRbt.so (2013.1, Build901 2013/11/27)

>  <Rbt.Parameter_File>
/export/apps/rDock/src/rDock_2013.1_src/data/scripts/dock_solv.prm

>  <Rbt.Receptor>
prm/blind_docking_60.prm

>  <SCORE>
-4.04958

>  <SCORE.INTER>
-4.60129

>  <SCORE.INTER.CONST>
1

>  <SCORE.INTER.POLAR>
0

>  <SCORE.INTER.ROT>
6

>  <SCORE.INTER.SOLV>
10.8665

>  <SCORE.INTER.VDW>
-14.2897

>  <SCORE.INTER.norm>
-0.124359

>  <SCORE.INTRA>
0.379307

>  <SCORE.INTRA.DIHEDRAL>
-8.95617

>  <SCORE.INTRA.DIHEDRAL.0>
15.6389

>  <SCORE.INTRA.POLAR>
0

>  <SCORE.INTRA.POLAR.0>
0

>  <SCORE.INTRA.REPUL>
0

>  <SCORE.INTRA.REPUL.0>
0

>  <SCORE.INTRA.SOLV>
3.88229

>  <SCORE.INTRA.SOLV.lig_0>
-90.9181

>  <SCORE.INTRA.VDW>
2.91625

>  <SCORE.INTRA.VDW.0>
-3.14158

>  <SCORE.INTRA.norm>
0.0102515

>  <SCORE.RESTR>
0.172407

>  <SCORE.RESTR.CAVITY>
0.172407

>  <SCORE.RESTR.norm>
0.00465964

>  <SCORE.SYSTEM>
0

>  <SCORE.SYSTEM.CONST>
0

>  <SCORE.SYSTEM.DIHEDRAL>
0

>  <SCORE.SYSTEM.SOLV>
0

>  <SCORE.SYSTEM.norm>
0

>  <SCORE.heavy>
37

>  <SCORE.norm>
-0.109448

>  <RMSD>
13.633

$$$$
1yrj_lig
 OpenBabel11021811423D
libRbt.so/2013.1/901 2013/11/27
 37 40  0  0  0  0  0  0  0  0999 V2000
   31.4502    5.9870   17.6852 C   0  0  1  0  0  0  0  0  0  0  0  0
   32.5070    5.9719   18.8070 C   0  0  1  0  0  0  0  0  0  0  0  0
   33.6312    6.9872   18.5466 C   0  0  0  0  0  0  0  0  0  0  0  0
   34.2644    6.7340   17.1536 C   0  0  1  0  0  0  0  0  0  0  0  0
   33.1817    6.8086   16.0604 C   0  0  1  0  0  0  0  0  0  0  0  0
   33.8574    6.5593   14.6463 C   0  0  1  0  0  0  0  0  0  0  0  0
   34.9404    7.6212   14.3956 C   0  0  1  0  0  0  0  0  0  0  0  0
   35.9741    7.5373   15.5449 C   0  0  2  0  0  0  0  0  0  0  0  0
   36.9583    6.9266   12.9984 C   0  0  0  0  0  0  0  0  0  0  0  0
   31.9069    6.2053   20.1307 N   0  0  0  0  0  0  0  0  0  0  0  0
   35.5476    7.4238   13.0430 N   0  0  0  0  0  0  0  0  0  0  0  0
   30.5859    7.1380   17.7215 O   0  0  0  0  0  0  0  0  0  0  0  0
   32.1276    5.8260   16.3837 O   0  0  0  0  0  0  0  0  0  0  0  0
   35.3296    7.7131   16.8382 O   0  0  0  0  0  0  0  0  0  0  0  0
   34.4959    5.2996   14.6468 O   0  0  0  0  0  0  0  0  0  0  0  0
   36.9878    8.5359   15.4237 O   0  0  0  0  0  0  0  0  0  0  0  0
   38.3020    8.0650   15.8041 C   0  0  2  0  0  0  0  0  0  0  0  0
   38.5498    8.1100   17.3207 C   0  0  1  0  0  0  0  0  0  0  0  0
   38.6499    9.5730   17.8285 C   0  0  2  0  0  0  0  0  0  0  0  0
   39.7505   10.2997   17.0899 C   0  0  1  0  0  0  0  0  0  0  0  0
   39.4575   10.2626   15.5713 C   0  0  1  0  0  0  0  0  0  0  0  0
   40.5486   10.9348   14.7409 C   0  0  0  0  0  0  0  0  0  0  0  0
   39.8180   11.6882   17.5908 N   0  0  0  0  0  0  0  0  0  0  0  0
   39.3491    8.8624   15.1239 O   0  0  0  0  0  0  0  0  0  0  0  0
   37.4999    7.3802   17.9720 O   0  0  0  0  0  0  0  0  0  0  0  0
   38.9554    9.5777   19.2297 O   0  0  0  0  0  0  0  0  0  0  0  0
   40.5161   12.3198   14.9614 O   0  0  0  0  0  0  0  0  0  0  0  0
   29.6522    7.4622   18.8780 C   0  0  1  0  0  0  0  0  0  0  0  0
   29.0574    8.8613   18.6043 C   0  0  1  0  0  0  0  0  0  0  0  0
   28.0356    9.2584   19.6971 C   0  0  2  0  0  0  0  0  0  0  0  0
   26.9065    8.2228   19.7594 C   0  0  1  0  0  0  0  0  0  0  0  0
   27.4856    6.8190   20.0703 C   0  0  0  0  0  0  0  0  0  0  0  0
   28.4811    6.4395   18.9690 C   0  0  2  0  0  0  0  0  0  0  0  0
   25.9393    8.6026   20.8134 N   0  0  0  0  0  0  0  0  0  0  0  0
   28.9893    5.1079   19.2873 N   0  0  0  0  0  0  0  0  0  0  0  0
   30.1251    9.8339   18.5954 O   0  0  0  0  0  0  0  0  0  0  0  0
   27.4949   10.5588   19.3790 O   0  0  0  0  0  0  0  0  0  0  0  0
  1  2  1  0  0  0  0
  1 12  1  6  0  0  0
  1 13  1  0  0  0  0
  2  3  1  0  0  0  0
  2 10  1  1  0  0  0
  4  3  1  1  0  0  0
  4  5  1  0  0  0  0
  4 14  1  0  0  0  0
  5  6  1  0  0  0  0
  5 13  1  1  0  0  0
  6  7  1  0  0  0  0
  6 15  1  1  0  0  0
  7  8  1  0  0  0  0
  7 11  1  6  0  0  0
  8 14  1  0  0  0  0
  8 16  1  6  0  0  0
  9 11  1  0  0  0  0
 17 16  1  1  0  0  0
 17 18  1  0  0  0  0
 17 24  1  0  0  0  0
 18 19  1  0  0  0  0
 18 25  1  1  0  0  0
 19 20  1  0  0  0  0
 19 26  1  1  0  0  0
 20 21  1  0  0  0  0
 20 23  1  1  0  0  0
 21 22  1  6  0  0  0
 21 24  1  0  0  0  0
 22 27  1  0  0  0  0
 28 12  1  6  0  0  0
 28 29  1  0  0  0  0
 28 33  1  0  0  0  0
 29 30  1  0  0  0  0
 29 36  1  1  0  0  0
 30 31  1  0  0  0  0
 30 37  1  6  0  0  0
 31 32  1  0  0  0  0
 31 34  1  1  0  0  0
 32 33  1  0  0  0  0
 33 35  1  1  0  0  0
M  END
>  <CHROM.1>
-62.23817829,-109.84010835,-142.03363240,-82.82953741,-69.62282651,172.53229114
34.03272507,8.06174668,17.20240879,3.06130079,0.34857003,0.71294401

>  <Name>
1yrj_lig

>  <RI>
224

>  <Rbt.Current_Directory>
/home/itssahil/PROJECTS/Mol_Feturizer/New_Systems/rnas/1yrj

>  <Rbt.Executable>
rbdock ($Id: //depot/dev/client3/rdock/2013.1/src/exe/rbdock.cxx#4 $)

>  <Rbt.Library>
libRbt.so (2013.1, Build901 2013/11/27)

>  <Rbt.Parameter_File>
/export/apps/rDock/src/rDock_2013.1_src/data/scripts/dock_solv.prm

>  <Rbt.Receptor>
prm/blind_docking_80.prm

>  <SCORE>
-12.3062

>  <SCORE.INTER>
-14.6375

>  <SCORE.INTER.CONST>
1

>  <SCORE.INTER.POLAR>
-1.27447

>  <SCORE.INTER.ROT>
6

>  <SCORE.INTER.SOLV>
11.6796

>  <SCORE.INTER.VDW>
-17.0033

>  <SCORE.INTER.norm>
-0.395608

>  <SCORE.INTRA>
2.32083

>  <SCORE.INTRA.DIHEDRAL>
-6.48336

>  <SCORE.INTRA.DIHEDRAL.0>
15.6389

>  <SCORE.INTRA.POLAR>
0

>  <SCORE.INTRA.POLAR.0>
0

>  <SCORE.INTRA.REPUL>
0

>  <SCORE.INTRA.REPUL.0>
0

>  <SCORE.INTRA.SOLV>
3.31297

>  <SCORE.INTRA.SOLV.lig_0>
-90.9181

>  <SCORE.INTRA.VDW>
3.90602

>  <SCORE.INTRA.VDW.0>
-3.14158

>  <SCORE.INTRA.norm>
0.062725

>  <SCORE.RESTR>
0.0104374

>  <SCORE.RESTR.CAVITY>
0.0104374

>  <SCORE.RESTR.norm>
0.000282093

>  <SCORE.SYSTEM>
0

>  <SCORE.SYSTEM.CONST>
0

>  <SCORE.SYSTEM.DIHEDRAL>
0

>  <SCORE.SYSTEM.SOLV>
0

>  <SCORE.SYSTEM.norm>
0

>  <SCORE.heavy>
37

>  <SCORE.norm>
-0.3326

>  <RMSD>
13.644

$$$$
1yrj_lig
 OpenBabel11021811423D
libRbt.so/2013.1/901 2013/11/27
 37 40  0  0  0  0  0  0  0  0999 V2000
   32.3224    5.2469   19.9157 C   0  0  1  0  0  0  0  0  0  0  0  0
   33.6532    4.8331   20.5740 C   0  0  1  0  0  0  0  0  0  0  0  0
   34.8389    5.6407   20.0225 C   0  0  0  0  0  0  0  0  0  0  0  0
   34.8955    5.5148   18.4776 C   0  0  1  0  0  0  0  0  0  0  0  0
   33.5649    5.9860   17.8607 C   0  0  1  0  0  0  0  0  0  0  0  0
   33.6542    5.8593   16.2815 C   0  0  1  0  0  0  0  0  0  0  0  0
   34.8169    6.7182   15.7581 C   0  0  1  0  0  0  0  0  0  0  0  0
   36.1190    6.2377   16.4437 C   0  0  2  0  0  0  0  0  0  0  0  0
   35.3830    7.8546   13.5457 C   0  0  0  0  0  0  0  0  0  0  0  0
   33.5991    4.9455   22.0408 N   0  0  0  0  0  0  0  0  0  0  0  0
   34.8766    6.6443   14.2653 N   0  0  0  0  0  0  0  0  0  0  0  0
   31.8249    6.5196   20.3695 O   0  0  0  0  0  0  0  0  0  0  0  0
   32.4718    5.1856   18.4485 O   0  0  0  0  0  0  0  0  0  0  0  0
   36.0004    6.3084   17.8929 O   0  0  0  0  0  0  0  0  0  0  0  0
   33.9316    4.5191   15.9331 O   0  0  0  0  0  0  0  0  0  0  0  0
   37.2458    7.0265   16.0596 O   0  0  0  0  0  0  0  0  0  0  0  0
   37.5811    8.0515   17.0242 C   0  0  2  0  0  0  0  0  0  0  0  0
   36.7935    9.3567   16.8248 C   0  0  1  0  0  0  0  0  0  0  0  0
   37.2314   10.0818   15.5246 C   0  0  2  0  0  0  0  0  0  0  0  0
   38.7166   10.3600   15.5660 C   0  0  1  0  0  0  0  0  0  0  0  0
   39.4817    9.0264   15.7374 C   0  0  1  0  0  0  0  0  0  0  0  0
   40.9931    9.2193   15.8379 C   0  0  0  0  0  0  0  0  0  0  0  0
   39.1034   11.0452   14.3153 N   0  0  0  0  0  0  0  0  0  0  0  0
   39.0305    8.3535   16.9687 O   0  0  0  0  0  0  0  0  0  0  0  0
   35.3930    9.0441   16.8264 O   0  0  0  0  0  0  0  0  0  0  0  0
   36.5327   11.3289   15.4087 O   0  0  0  0  0  0  0  0  0  0  0  0
   41.4812    9.7223   14.6227 O   0  0  0  0  0  0  0  0  0  0  0  0
   30.3913    6.9893   20.1733 C   0  0  1  0  0  0  0  0  0  0  0  0
   30.1191    6.9980   18.6528 C   0  0  1  0  0  0  0  0  0  0  0  0
   28.6556    7.4001   18.3486 C   0  0  2  0  0  0  0  0  0  0  0  0
   27.6912    6.4278   19.0381 C   0  0  1  0  0  0  0  0  0  0  0  0
   27.9283    6.4363   20.5699 C   0  0  0  0  0  0  0  0  0  0  0  0
   29.3764    6.0201   20.8487 C   0  0  2  0  0  0  0  0  0  0  0  0
   26.2943    6.8245   18.7523 N   0  0  0  0  0  0  0  0  0  0  0  0
   29.5543    6.0231   22.2983 N   0  0  0  0  0  0  0  0  0  0  0  0
   31.0007    7.9520   18.0215 O   0  0  0  0  0  0  0  0  0  0  0  0
   28.4509    7.3676   16.9197 O   0  0  0  0  0  0  0  0  0  0  0  0
  1  2  1  0  0  0  0
  1 12  1  6  0  0  0
  1 13  1  0  0  0  0
  2  3  1  0  0  0  0
  2 10  1  1  0  0  0
  4  3  1  1  0  0  0
  4  5  1  0  0  0  0
  4 14  1  0  0  0  0
  5  6  1  0  0  0  0
  5 13  1  1  0  0  0
  6  7  1  0  0  0  0
  6 15  1  1  0  0  0
  7  8  1  0  0  0  0
  7 11  1  6  0  0  0
  8 14  1  0  0  0  0
  8 16  1  6  0  0  0
  9 11  1  0  0  0  0
 17 16  1  6  0  0  0
 17 18  1  0  0  0  0
 17 24  1  0  0  0  0
 18 19  1  0  0  0  0
 18 25  1  6  0  0  0
 19 20  1  0  0  0  0
 19 26  1  1  0  0  0
 20 21  1  0  0  0  0
 20 23  1  6  0  0  0
 21 22  1  1  0  0  0
 21 24  1  0  0  0  0
 22 27  1  0  0  0  0
 28 12  1  6  0  0  0
 28 29  1  0  0  0  0
 28 33  1  0  0  0  0
 29 30  1  0  0  0  0
 29 36  1  6  0  0  0
 30 31  1  0  0  0  0
 30 37  1  6  0  0  0
 31 32  1  0  0  0  0
 31 34  1  1  0  0  0
 32 33  1  0  0  0  0
 33 35  1  1  0  0  0
M  END
>  <CHROM.1>
-163.21983326,148.80018635,98.29834025,-86.13463821,-65.38563932,-58.97189500
34.12396420,7.29066032,17.58753207,-2.63764439,0.02105177,-0.93418658

>  <Name>
1yrj_lig

>  <RI>
224

>  <Rbt.Current_Directory>
/home/itssahil/PROJECTS/Mol_Feturizer/New_Systems/rnas/1yrj

>  <Rbt.Executable>
rbdock ($Id: //depot/dev/client3/rdock/2013.1/src/exe/rbdock.cxx#4 $)

>  <Rbt.Library>
libRbt.so (2013.1, Build901 2013/11/27)

>  <Rbt.Parameter_File>
/export/apps/rDock/src/rDock_2013.1_src/data/scripts/dock_solv.prm

>  <Rbt.Receptor>
prm/blind_docking_80.prm

>  <SCORE>
-10.3292

>  <SCORE.INTER>
-9.85718

>  <SCORE.INTER.CONST>
1

>  <SCORE.INTER.POLAR>
-1.07539

>  <SCORE.INTER.ROT>
6

>  <SCORE.INTER.SOLV>
14.7935

>  <SCORE.INTER.VDW>
-15.518

>  <SCORE.INTER.norm>
-0.26641

>  <SCORE.INTRA>
-0.531386

>  <SCORE.INTRA.DIHEDRAL>
-5.54717

>  <SCORE.INTRA.DIHEDRAL.0>
15.6389

>  <SCORE.INTRA.POLAR>
0

>  <SCORE.INTRA.POLAR.0>
0

>  <SCORE.INTRA.REPUL>
0

>  <SCORE.INTRA.REPUL.0>
0

>  <SCORE.INTRA.SOLV>
0.926794

>  <SCORE.INTRA.SOLV.lig_0>
-90.9181

>  <SCORE.INTRA.VDW>
1.7788

>  <SCORE.INTRA.VDW.0>
-3.14158

>  <SCORE.INTRA.norm>
-0.0143618

>  <SCORE.RESTR>
0.0593326

>  <SCORE.RESTR.CAVITY>
0.0593326

>  <SCORE.RESTR.norm>
0.00160358

>  <SCORE.SYSTEM>
0

>  <SCORE.SYSTEM.CONST>
0

>  <SCORE.SYSTEM.DIHEDRAL>
0

>  <SCORE.SYSTEM.SOLV>
0

>  <SCORE.SYSTEM.norm>
0

>  <SCORE.heavy>
37

>  <SCORE.norm>
-0.279168

>  <RMSD>
13.662

$$$$
1yrj_lig
 OpenBabel11021811423D
libRbt.so/2013.1/901 2013/11/27
 37 40  0  0  0  0  0  0  0  0999 V2000
   32.8271   11.6403   19.3497 C   0  0  1  0  0  0  0  0  0  0  0  0
   33.9809   12.6448   19.1617 C   0  0  1  0  0  0  0  0  0  0  0  0
   35.0397   12.1213   18.1782 C   0  0  0  0  0  0  0  0  0  0  0  0
   35.5531   10.7322   18.6391 C   0  0  1  0  0  0  0  0  0  0  0  0
   34.3740    9.7488   18.7645 C   0  0  1  0  0  0  0  0  0  0  0  0
   34.9276    8.3344   19.2241 C   0  0  1  0  0  0  0  0  0  0  0  0
   35.9446    7.8169   18.1939 C   0  0  1  0  0  0  0  0  0  0  0  0
   37.0804    8.8615   18.0699 C   0  0  2  0  0  0  0  0  0  0  0  0
   36.4712    5.4115   17.5279 C   0  0  0  0  0  0  0  0  0  0  0  0
   33.4949   13.9658   18.7307 N   0  0  0  0  0  0  0  0  0  0  0  0
   36.4338    6.4611   18.5938 N   0  0  0  0  0  0  0  0  0  0  0  0
   31.9289   11.5757   18.2263 O   0  0  0  0  0  0  0  0  0  0  0  0
   33.3894   10.3224   19.7041 O   0  0  0  0  0  0  0  0  0  0  0  0
   36.5495   10.1659   17.7015 O   0  0  0  0  0  0  0  0  0  0  0  0
   35.6084    8.4738   20.4535 O   0  0  0  0  0  0  0  0  0  0  0  0
   38.0424    8.4878   17.0827 O   0  0  0  0  0  0  0  0  0  0  0  0
   37.5606    8.6446   15.7274 C   0  0  2  0  0  0  0  0  0  0  0  0
   38.4113    7.8964   14.6881 C   0  0  1  0  0  0  0  0  0  0  0  0
   39.8106    8.5497   14.5351 C   0  0  2  0  0  0  0  0  0  0  0  0
   39.6603   10.0035   14.1494 C   0  0  1  0  0  0  0  0  0  0  0  0
   38.8261   10.7345   15.2278 C   0  0  1  0  0  0  0  0  0  0  0  0
   38.5828   12.2044   14.8930 C   0  0  0  0  0  0  0  0  0  0  0  0
   41.0064   10.5980   14.0160 N   0  0  0  0  0  0  0  0  0  0  0  0
   37.5125   10.0799   15.3632 O   0  0  0  0  0  0  0  0  0  0  0  0
   38.4957    6.5187   15.0805 O   0  0  0  0  0  0  0  0  0  0  0  0
   40.5484    7.8749   13.5068 O   0  0  0  0  0  0  0  0  0  0  0  0
   37.8136   12.2955   13.7235 O   0  0  0  0  0  0  0  0  0  0  0  0
   30.6731   10.7176   18.1918 C   0  0  1  0  0  0  0  0  0  0  0  0
   31.1241    9.2458   18.3194 C   0  0  1  0  0  0  0  0  0  0  0  0
   29.9075    8.2896   18.3623 C   0  0  2  0  0  0  0  0  0  0  0  0
   28.9974    8.6527   19.5416 C   0  0  1  0  0  0  0  0  0  0  0  0
   28.5071   10.1170   19.4071 C   0  0  0  0  0  0  0  0  0  0  0  0
   29.7252   11.0463   19.3830 C   0  0  2  0  0  0  0  0  0  0  0  0
   27.8310    7.7420   19.5701 N   0  0  0  0  0  0  0  0  0  0  0  0
   29.2226   12.4132   19.2738 N   0  0  0  0  0  0  0  0  0  0  0  0
   31.9410    8.9024   17.1790 O   0  0  0  0  0  0  0  0  0  0  0  0
   30.3848    6.9346   18.5067 O   0  0  0  0  0  0  0  0  0  0  0  0
  1  2  1  0  0  0  0
  1 12  1  6  0  0  0
  1 13  1  0  0  0  0
  2  3  1  0  0  0  0
  2 10  1  6  0  0  0
  4  3  1  6  0  0  0
  4  5  1  0  0  0  0
  4 14  1  0  0  0  0
  5  6  1  0  0  0  0
  5 13  1  1  0  0  0
  6  7  1  0  0  0  0
  6 15  1  1  0  0  0
  7  8  1  0  0  0  0
  7 11  1  1  0  0  0
  8 14  1  0  0  0  0
  8 16  1  6  0  0  0
  9 11  1  0  0  0  0
 17 16  1  1  0  0  0
 17 18  1  0  0  0  0
 17 24  1  0  0  0  0
 18 19  1  0  0  0  0
 18 25  1  1  0  0  0
 19 20  1  0  0  0  0
 19 26  1  6  0  0  0
 20 21  1  0  0  0  0
 20 23  1  1  0  0  0
 21 22  1  6  0  0  0
 21 24  1  0  0  0  0
 22 27  1  0  0  0  0
 28 12  1  1  0  0  0
 28 29  1  0  0  0  0
 28 33  1  0  0  0  0
 29 30  1  0  0  0  0
 29 36  1  6  0  0  0
 30 31  1  0  0  0  0
 30 37  1  1  0  0  0
 31 32  1  0  0  0  0
 31 34  1  6  0  0  0
 32 33  1  0  0  0  0
 33 35  1  6  0  0  0
M  END
>  <CHROM.1>
-176.72767024,133.34103238,73.41171633,-164.00215590,63.79222045,-62.33107155
34.85884051,9.60363311,17.44007156,-3.10583208,-0.44219334,3.06361008

>  <Name>
1yrj_lig

>  <RI>
0

>  <Rbt.Current_Directory>
/home/itssahil/PROJECTS/Mol_Feturizer/New_Systems/rnas/1yrj

>  <Rbt.Executable>
rbdock ($Id: //depot/dev/client3/rdock/2013.1/src/exe/rbdock.cxx#4 $)

>  <Rbt.Library>
libRbt.so (2013.1, Build901 2013/11/27)

>  <Rbt.Parameter_File>
/export/apps/rDock/src/rDock_2013.1_src/data/scripts/dock_solv.prm

>  <Rbt.Receptor>
prm/blind_docking_100.prm

>  <SCORE>
-10.7149

>  <SCORE.INTER>
-4.38351

>  <SCORE.INTER.CONST>
1

>  <SCORE.INTER.POLAR>
0

>  <SCORE.INTER.ROT>
6

>  <SCORE.INTER.SOLV>
6.27048

>  <SCORE.INTER.VDW>
-12.6125

>  <SCORE.INTER.norm>
-0.118473

>  <SCORE.INTRA>
-6.33137

>  <SCORE.INTRA.DIHEDRAL>
-12.3004

>  <SCORE.INTRA.DIHEDRAL.0>
15.6389

>  <SCORE.INTRA.POLAR>
0

>  <SCORE.INTRA.POLAR.0>
0

>  <SCORE.INTRA.REPUL>
0

>  <SCORE.INTRA.REPUL.0>
0

>  <SCORE.INTRA.SOLV>
-0.581588

>  <SCORE.INTRA.SOLV.lig_0>
-90.9181

>  <SCORE.INTRA.VDW>
0.10963

>  <SCORE.INTRA.VDW.0>
-3.14158

>  <SCORE.INTRA.norm>
-0.171118

>  <SCORE.RESTR>
0

>  <SCORE.RESTR.CAVITY>
0

>  <SCORE.RESTR.norm>
0

>  <SCORE.SYSTEM>
0

>  <SCORE.SYSTEM.CONST>
0

>  <SCORE.SYSTEM.DIHEDRAL>
0

>  <SCORE.SYSTEM.SOLV>
0

>  <SCORE.SYSTEM.norm>
0

>  <SCORE.heavy>
37

>  <SCORE.norm>
-0.289591

>  <RMSD>
13.688

$$$$
1yrj_lig
 OpenBabel11021811423D
libRbt.so/2013.1/901 2013/11/27
 37 40  0  0  0  0  0  0  0  0999 V2000
   31.7868    6.8143   21.3994 C   0  0  1  0  0  0  0  0  0  0  0  0
   33.1880    7.3699   21.7208 C   0  0  1  0  0  0  0  0  0  0  0  0
   34.0294    7.5682   20.4499 C   0  0  0  0  0  0  0  0  0  0  0  0
   34.1042    6.2420   19.6493 C   0  0  1  0  0  0  0  0  0  0  0  0
   32.6845    5.7515   19.3071 C   0  0  1  0  0  0  0  0  0  0  0  0
   32.7899    4.4024   18.4782 C   0  0  1  0  0  0  0  0  0  0  0  0
   33.5929    4.6475   17.1903 C   0  0  1  0  0  0  0  0  0  0  0  0
   34.9896    5.1843   17.5869 C   0  0  2  0  0  0  0  0  0  0  0  0
   32.3639    2.6703   16.1477 C   0  0  0  0  0  0  0  0  0  0  0  0
   33.1192    8.6252   22.4866 N   0  0  0  0  0  0  0  0  0  0  0  0
   33.6539    3.3927   16.3784 N   0  0  0  0  0  0  0  0  0  0  0  0
   30.8997    7.7869   20.8162 O   0  0  0  0  0  0  0  0  0  0  0  0
   31.9285    5.6035   20.5671 O   0  0  0  0  0  0  0  0  0  0  0  0
   34.8736    6.3909   18.3929 O   0  0  0  0  0  0  0  0  0  0  0  0
   33.4934    3.4400   19.2354 O   0  0  0  0  0  0  0  0  0  0  0  0
   35.7840    5.4992   16.4426 O   0  0  0  0  0  0  0  0  0  0  0  0
   35.2533    6.5968   15.6633 C   0  0  2  0  0  0  0  0  0  0  0  0
   35.9542    6.7754   14.3067 C   0  0  1  0  0  0  0  0  0  0  0  0
   37.4106    7.2786   14.4910 C   0  0  2  0  0  0  0  0  0  0  0  0
   37.4121    8.5779   15.2635 C   0  0  1  0  0  0  0  0  0  0  0  0
   36.7276    8.3585   16.6335 C   0  0  1  0  0  0  0  0  0  0  0  0
   36.6416    9.6369   17.4642 C   0  0  0  0  0  0  0  0  0  0  0  0
   38.8099    9.0283   15.4266 N   0  0  0  0  0  0  0  0  0  0  0  0
   35.3551    7.8631   16.4255 O   0  0  0  0  0  0  0  0  0  0  0  0
   35.8965    5.5277   13.6004 O   0  0  0  0  0  0  0  0  0  0  0  0
   38.0088    7.5059   13.2075 O   0  0  0  0  0  0  0  0  0  0  0  0
   36.0478    9.3499   18.7022 O   0  0  0  0  0  0  0  0  0  0  0  0
   29.5935    7.4349   20.1202 C   0  0  1  0  0  0  0  0  0  0  0  0
   29.8977    7.3256   18.6097 C   0  0  1  0  0  0  0  0  0  0  0  0
   28.6388    6.9023   17.8147 C   0  0  2  0  0  0  0  0  0  0  0  0
   28.1200    5.5559   18.3334 C   0  0  1  0  0  0  0  0  0  0  0  0
   27.7756    5.6611   19.8411 C   0  0  0  0  0  0  0  0  0  0  0  0
   29.0379    6.0648   20.6100 C   0  0  2  0  0  0  0  0  0  0  0  0
   26.9104    5.1626   17.5767 N   0  0  0  0  0  0  0  0  0  0  0  0
   28.6776    6.1356   22.0235 N   0  0  0  0  0  0  0  0  0  0  0  0
   30.3397    8.6118   18.1236 O   0  0  0  0  0  0  0  0  0  0  0  0
   28.9855    6.7919   16.4174 O   0  0  0  0  0  0  0  0  0  0  0  0
  1  2  1  0  0  0  0
  1 12  1  6  0  0  0
  1 13  1  0  0  0  0
  2  3  1  0  0  0  0
  2 10  1  6  0  0  0
  4  3  1  6  0  0  0
  4  5  1  0  0  0  0
  4 14  1  0  0  0  0
  5  6  1  0  0  0  0
  5 13  1  1  0  0  0
  6  7  1  0  0  0  0
  6 15  1  1  0  0  0
  7  8  1  0  0  0  0
  7 11  1  1  0  0  0
  8 14  1  0  0  0  0
  8 16  1  6  0  0  0
  9 11  1  0  0  0  0
 17 16  1  1  0  0  0
 17 18  1  0  0  0  0
 17 24  1  0  0  0  0
 18 19  1  0  0  0  0
 18 25  1  1  0  0  0
 19 20  1  0  0  0  0
 19 26  1  6  0  0  0
 20 21  1  0  0  0  0
 20 23  1  1  0  0  0
 21 22  1  6  0  0  0
 21 24  1  0  0  0  0
 22 27  1  0  0  0  0
 28 12  1  1  0  0  0
 28 29  1  0  0  0  0
 28 33  1  0  0  0  0
 29 30  1  0  0  0  0
 29 36  1  6  0  0  0
 30 31  1  0  0  0  0
 30 37  1  6  0  0  0
 31 32  1  0  0  0  0
 31 34  1  6  0  0  0
 32 33  1  0  0  0  0
 33 35  1  1  0  0  0
M  END
>  <CHROM.1>
165.39282789,48.64492635,65.52497458,-169.63598336,-178.25273696,-94.52633473
33.13196190,6.58309360,17.99535465,-2.76048764,-0.40056412,-2.09814232

>  <Name>
1yrj_lig

>  <RI>
224

>  <Rbt.Current_Directory>
/home/itssahil/PROJECTS/Mol_Feturizer/New_Systems/rnas/1yrj

>  <Rbt.Executable>
rbdock ($Id: //depot/dev/client3/rdock/2013.1/src/exe/rbdock.cxx#4 $)

>  <Rbt.Library>
libRbt.so (2013.1, Build901 2013/11/27)

>  <Rbt.Parameter_File>
/export/apps/rDock/src/rDock_2013.1_src/data/scripts/dock_solv.prm

>  <Rbt.Receptor>
prm/blind_docking_80.prm

>  <SCORE>
-15.8491

>  <SCORE.INTER>
-12.9889

>  <SCORE.INTER.CONST>
1

>  <SCORE.INTER.POLAR>
-1.64146

>  <SCORE.INTER.ROT>
6

>  <SCORE.INTER.SOLV>
23.1043

>  <SCORE.INTER.VDW>
-18.4891

>  <SCORE.INTER.norm>
-0.35105

>  <SCORE.INTRA>
-3.61712

>  <SCORE.INTRA.DIHEDRAL>
-9.32681

>  <SCORE.INTRA.DIHEDRAL.0>
15.6389

>  <SCORE.INTRA.POLAR>
0

>  <SCORE.INTRA.POLAR.0>
0

>  <SCORE.INTRA.REPUL>
0

>  <SCORE.INTRA.REPUL.0>
0

>  <SCORE.INTRA.SOLV>
-0.473632

>  <SCORE.INTRA.SOLV.lig_0>
-90.9181

>  <SCORE.INTRA.VDW>
1.2831

>  <SCORE.INTRA.VDW.0>
-3.14158

>  <SCORE.INTRA.norm>
-0.0977601

>  <SCORE.RESTR>
0.75694

>  <SCORE.RESTR.CAVITY>
0.75694

>  <SCORE.RESTR.norm>
0.0204578

>  <SCORE.SYSTEM>
0

>  <SCORE.SYSTEM.CONST>
0

>  <SCORE.SYSTEM.DIHEDRAL>
0

>  <SCORE.SYSTEM.SOLV>
0

>  <SCORE.SYSTEM.norm>
0

>  <SCORE.heavy>
37

>  <SCORE.norm>
-0.428353

>  <RMSD>
13.705

$$$$
1yrj_lig
 OpenBabel11021811423D
libRbt.so/2013.1/901 2013/11/27
 37 40  0  0  0  0  0  0  0  0999 V2000
   36.9091    6.9656   14.8170 C   0  0  1  0  0  0  0  0  0  0  0  0
   35.7810    6.0902   14.2370 C   0  0  1  0  0  0  0  0  0  0  0  0
   34.3909    6.6147   14.6307 C   0  0  0  0  0  0  0  0  0  0  0  0
   34.2878    6.7421   16.1731 C   0  0  1  0  0  0  0  0  0  0  0  0
   35.4021    7.6647   16.7021 C   0  0  1  0  0  0  0  0  0  0  0  0
   35.2659    7.7880   18.2783 C   0  0  1  0  0  0  0  0  0  0  0  0
   33.8854    8.3626   18.6352 C   0  0  1  0  0  0  0  0  0  0  0  0
   32.8047    7.4275   18.0404 C   0  0  2  0  0  0  0  0  0  0  0  0
   34.8670    9.2760   20.8053 C   0  0  0  0  0  0  0  0  0  0  0  0
   35.8812    5.9626   12.7739 N   0  0  0  0  0  0  0  0  0  0  0  0
   33.7678    8.5294   20.1170 N   0  0  0  0  0  0  0  0  0  0  0  0
   37.0614    8.2305   14.1461 O   0  0  0  0  0  0  0  0  0  0  0  0
   36.7033    7.1149   16.2710 O   0  0  0  0  0  0  0  0  0  0  0  0
   32.9773    7.2816   16.6023 O   0  0  0  0  0  0  0  0  0  0  0  0
   35.3493    6.5031   18.8585 O   0  0  0  0  0  0  0  0  0  0  0  0
   31.4854    7.9224   18.2730 O   0  0  0  0  0  0  0  0  0  0  0  0
   31.0553    7.7785   19.6470 C   0  0  2  0  0  0  0  0  0  0  0  0
   30.7715    6.3214   20.0470 C   0  0  1  0  0  0  0  0  0  0  0  0
   29.5066    5.7800   19.3293 C   0  0  2  0  0  0  0  0  0  0  0  0
   28.3185    6.6582   19.6485 C   0  0  1  0  0  0  0  0  0  0  0  0
   28.6230    8.1096   19.2079 C   0  0  1  0  0  0  0  0  0  0  0  0
   27.4902    9.0789   19.5381 C   0  0  0  0  0  0  0  0  0  0  0  0
   27.1331    6.1211   18.9487 N   0  0  0  0  0  0  0  0  0  0  0  0
   29.8385    8.5878   19.8908 O   0  0  0  0  0  0  0  0  0  0  0  0
   31.9377    5.5376   19.7562 O   0  0  0  0  0  0  0  0  0  0  0  0
   29.2284    4.4476   19.7813 O   0  0  0  0  0  0  0  0  0  0  0  0
   27.1706    8.9766   20.9002 O   0  0  0  0  0  0  0  0  0  0  0  0
   38.3579    9.0260   14.1185 C   0  0  1  0  0  0  0  0  0  0  0  0
   38.4956    9.7197   15.4917 C   0  0  1  0  0  0  0  0  0  0  0  0
   39.8252   10.5062   15.5904 C   0  0  2  0  0  0  0  0  0  0  0  0
   41.0112    9.5595   15.3713 C   0  0  1  0  0  0  0  0  0  0  0  0
   40.9054    8.8836   13.9804 C   0  0  0  0  0  0  0  0  0  0  0  0
   39.5915    8.0983   13.9106 C   0  0  2  0  0  0  0  0  0  0  0  0
   42.2783   10.3197   15.4560 N   0  0  0  0  0  0  0  0  0  0  0  0
   39.5378    7.4638   12.5963 N   0  0  0  0  0  0  0  0  0  0  0  0
   37.3990   10.6433   15.6654 O   0  0  0  0  0  0  0  0  0  0  0  0
   39.9125   11.1115   16.8984 O   0  0  0  0  0  0  0  0  0  0  0  0
  1  2  1  0  0  0  0
  1 12  1  6  0  0  0
  1 13  1  0  0  0  0
  2  3  1  0  0  0  0
  2 10  1  6  0  0  0
  4  3  1  6  0  0  0
  4  5  1  0  0  0  0
  4 14  1  0  0  0  0
  5  6  1  0  0  0  0
  5 13  1  1  0  0  0
  6  7  1  0  0  0  0
  6 15  1  1  0  0  0
  7  8  1  0  0  0  0
  7 11  1  1  0  0  0
  8 14  1  0  0  0  0
  8 16  1  6  0  0  0
  9 11  1  0  0  0  0
 17 16  1  6  0  0  0
 17 18  1  0  0  0  0
 17 24  1  0  0  0  0
 18 19  1  0  0  0  0
 18 25  1  6  0  0  0
 19 20  1  0  0  0  0
 19 26  1  1  0  0  0
 20 21  1  0  0  0  0
 20 23  1  6  0  0  0
 21 22  1  1  0  0  0
 21 24  1  0  0  0  0
 22 27  1  0  0  0  0
 28 12  1  1  0  0  0
 28 29  1  0  0  0  0
 28 33  1  0  0  0  0
 29 30  1  0  0  0  0
 29 36  1  6  0  0  0
 30 31  1  0  0  0  0
 30 37  1  1  0  0  0
 31 32  1  0  0  0  0
 31 34  1  6  0  0  0
 32 33  1  0  0  0  0
 33 35  1  6  0  0  0
M  END
>  <CHROM.1>
-155.21280624,51.47993154,-73.32330652,-71.19305956,53.35077207,-77.27566394
34.42011977,7.87462696,17.20889431,0.24000784,-0.41682453,-2.25185861

>  <Name>
1yrj_lig

>  <RI>
0

>  <Rbt.Current_Directory>
/home/itssahil/PROJECTS/Mol_Feturizer/New_Systems/rnas/1yrj

>  <Rbt.Executable>
rbdock ($Id: //depot/dev/client3/rdock/2013.1/src/exe/rbdock.cxx#4 $)

>  <Rbt.Library>
libRbt.so (2013.1, Build901 2013/11/27)

>  <Rbt.Parameter_File>
/export/apps/rDock/src/rDock_2013.1_src/data/scripts/dock_solv.prm

>  <Rbt.Receptor>
prm/blind_docking_100.prm

>  <SCORE>
-11.0182

>  <SCORE.INTER>
-9.33219

>  <SCORE.INTER.CONST>
1

>  <SCORE.INTER.POLAR>
-1.36076

>  <SCORE.INTER.ROT>
6

>  <SCORE.INTER.SOLV>
14.3527

>  <SCORE.INTER.VDW>
-14.0698

>  <SCORE.INTER.norm>
-0.252221

>  <SCORE.INTRA>
-2.52567

>  <SCORE.INTRA.DIHEDRAL>
-9.9233

>  <SCORE.INTRA.DIHEDRAL.0>
15.6389

>  <SCORE.INTRA.POLAR>
0

>  <SCORE.INTRA.POLAR.0>
0

>  <SCORE.INTRA.REPUL>
0

>  <SCORE.INTRA.REPUL.0>
0

>  <SCORE.INTRA.SOLV>
0.938908

>  <SCORE.INTRA.SOLV.lig_0>
-90.9181

>  <SCORE.INTRA.VDW>
1.96653

>  <SCORE.INTRA.VDW.0>
-3.14158

>  <SCORE.INTRA.norm>
-0.0682614

>  <SCORE.RESTR>
0.839648

>  <SCORE.RESTR.CAVITY>
0.839648

>  <SCORE.RESTR.norm>
0.0226932

>  <SCORE.SYSTEM>
0

>  <SCORE.SYSTEM.CONST>
0

>  <SCORE.SYSTEM.DIHEDRAL>
0

>  <SCORE.SYSTEM.SOLV>
0

>  <SCORE.SYSTEM.norm>
0

>  <SCORE.heavy>
37

>  <SCORE.norm>
-0.29779

>  <RMSD>
13.725

$$$$
1yrj_lig
 OpenBabel11021811423D
libRbt.so/2013.1/901 2013/11/27
 37 40  0  0  0  0  0  0  0  0999 V2000
   32.6670    5.9814   19.6513 C   0  0  1  0  0  0  0  0  0  0  0  0
   34.0083    5.8452   20.3982 C   0  0  1  0  0  0  0  0  0  0  0  0
   34.9222    7.0572   20.1572 C   0  0  0  0  0  0  0  0  0  0  0  0
   35.1285    7.2734   18.6352 C   0  0  1  0  0  0  0  0  0  0  0  0
   33.7665    7.4549   17.9387 C   0  0  1  0  0  0  0  0  0  0  0  0
   34.0065    7.6870   16.3874 C   0  0  1  0  0  0  0  0  0  0  0  0
   34.8807    8.9344   16.1797 C   0  0  1  0  0  0  0  0  0  0  0  0
   36.2134    8.7219   16.9379 C   0  0  2  0  0  0  0  0  0  0  0  0
   36.0652    8.3311   14.0027 C   0  0  0  0  0  0  0  0  0  0  0  0
   33.8144    5.6331   21.8420 N   0  0  0  0  0  0  0  0  0  0  0  0
   35.0699    9.1894   14.7180 N   0  0  0  0  0  0  0  0  0  0  0  0
   31.7673    6.9335   20.2490 O   0  0  0  0  0  0  0  0  0  0  0  0
   32.9355    6.2689   18.2287 O   0  0  0  0  0  0  0  0  0  0  0  0
   35.9726    8.4558   18.3487 O   0  0  0  0  0  0  0  0  0  0  0  0
   34.7108    6.5863   15.8516 O   0  0  0  0  0  0  0  0  0  0  0  0
   37.0650    9.8649   16.8491 O   0  0  0  0  0  0  0  0  0  0  0  0
   38.3613    9.6602   17.4586 C   0  0  2  0  0  0  0  0  0  0  0  0
   39.2143   10.9378   17.5194 C   0  0  1  0  0  0  0  0  0  0  0  0
   39.6691   11.3752   16.1016 C   0  0  2  0  0  0  0  0  0  0  0  0
   40.4386   10.2551   15.4397 C   0  0  1  0  0  0  0  0  0  0  0  0
   39.5446    8.9946   15.3669 C   0  0  1  0  0  0  0  0  0  0  0  0
   40.2619    7.7943   14.7533 C   0  0  0  0  0  0  0  0  0  0  0  0
   40.8531   10.6990   14.0927 N   0  0  0  0  0  0  0  0  0  0  0  0
   39.1139    8.6162   16.7248 O   0  0  0  0  0  0  0  0  0  0  0  0
   38.4545   11.9574   18.1842 O   0  0  0  0  0  0  0  0  0  0  0  0
   40.5227   12.5234   16.2014 O   0  0  0  0  0  0  0  0  0  0  0  0
   39.3640    6.7227   14.6384 O   0  0  0  0  0  0  0  0  0  0  0  0
   30.2756    6.9914   19.9561 C   0  0  1  0  0  0  0  0  0  0  0  0
   30.1157    7.0666   18.4216 C   0  0  1  0  0  0  0  0  0  0  0  0
   28.6224    7.0618   18.0137 C   0  0  2  0  0  0  0  0  0  0  0  0
   27.9398    5.7938   18.5403 C   0  0  1  0  0  0  0  0  0  0  0  0
   28.0605    5.7239   20.0841 C   0  0  0  0  0  0  0  0  0  0  0  0
   29.5449    5.7133   20.4643 C   0  0  2  0  0  0  0  0  0  0  0  0
   26.5104    5.8010   18.1565 N   0  0  0  0  0  0  0  0  0  0  0  0
   29.6163    5.6290   21.9205 N   0  0  0  0  0  0  0  0  0  0  0  0
   30.7207    8.2879   17.9439 O   0  0  0  0  0  0  0  0  0  0  0  0
   28.5327    7.1083   16.5734 O   0  0  0  0  0  0  0  0  0  0  0  0
  1  2  1  0  0  0  0
  1 12  1  1  0  0  0
  1 13  1  0  0  0  0
  2  3  1  0  0  0  0
  2 10  1  1  0  0  0
  4  3  1  1  0  0  0
  4  5  1  0  0  0  0
  4 14  1  0  0  0  0
  5  6  1  0  0  0  0
  5 13  1  6  0  0  0
  6  7  1  0  0  0  0
  6 15  1  1  0  0  0
  7  8  1  0  0  0  0
  7 11  1  6  0  0  0
  8 14  1  0  0  0  0
  8 16  1  1  0  0  0
  9 11  1  0  0  0  0
 17 16  1  6  0  0  0
 17 18  1  0  0  0  0
 17 24  1  0  0  0  0
 18 19  1  0  0  0  0
 18 25  1  6  0  0  0
 19 20  1  0  0  0  0
 19 26  1  1  0  0  0
 20 21  1  0  0  0  0
 20 23  1  6  0  0  0
 21 22  1  1  0  0  0
 21 24  1  0  0  0  0
 22 27  1  0  0  0  0
 28 12  1  6  0  0  0
 28 29  1  0  0  0  0
 28 33  1  0  0  0  0
 29 30  1  0  0  0  0
 29 36  1  1  0  0  0
 30 31  1  0  0  0  0
 30 37  1  6  0  0  0
 31 32  1  0  0  0  0
 31 34  1  1  0  0  0
 32 33  1  0  0  0  0
 33 35  1  1  0  0  0
M  END
>  <CHROM.1>
-162.80282578,-77.73373285,-175.44598021,-172.88525813,-176.02828548,-52.76285104
34.60330601,7.99268276,17.61685803,-2.76149403,-0.29057618,-1.37465840

>  <Name>
1yrj_lig

>  <RI>
0

>  <Rbt.Current_Directory>
/home/itssahil/PROJECTS/Mol_Feturizer/New_Systems/rnas/1yrj

>  <Rbt.Executable>
rbdock ($Id: //depot/dev/client3/rdock/2013.1/src/exe/rbdock.cxx#4 $)

>  <Rbt.Library>
libRbt.so (2013.1, Build901 2013/11/27)

>  <Rbt.Parameter_File>
/export/apps/rDock/src/rDock_2013.1_src/data/scripts/dock_solv.prm

>  <Rbt.Receptor>
prm/blind_docking_60.prm

>  <SCORE>
-12.1031

>  <SCORE.INTER>
-6.37785

>  <SCORE.INTER.CONST>
1

>  <SCORE.INTER.POLAR>
0

>  <SCORE.INTER.ROT>
6

>  <SCORE.INTER.SOLV>
14.9381

>  <SCORE.INTER.VDW>
-16.8313

>  <SCORE.INTER.norm>
-0.172374

>  <SCORE.INTRA>
-5.72522

>  <SCORE.INTRA.DIHEDRAL>
-13.2858

>  <SCORE.INTRA.DIHEDRAL.0>
15.6389

>  <SCORE.INTRA.POLAR>
0

>  <SCORE.INTRA.POLAR.0>
0

>  <SCORE.INTRA.REPUL>
0

>  <SCORE.INTRA.REPUL.0>
0

>  <SCORE.INTRA.SOLV>
-1.45003

>  <SCORE.INTRA.SOLV.lig_0>
-90.9181

>  <SCORE.INTRA.VDW>
1.64269

>  <SCORE.INTRA.VDW.0>
-3.14158

>  <SCORE.INTRA.norm>
-0.154736

>  <SCORE.RESTR>
0

>  <SCORE.RESTR.CAVITY>
0

>  <SCORE.RESTR.norm>
0

>  <SCORE.SYSTEM>
0

>  <SCORE.SYSTEM.CONST>
0

>  <SCORE.SYSTEM.DIHEDRAL>
0

>  <SCORE.SYSTEM.SOLV>
0

>  <SCORE.SYSTEM.norm>
0

>  <SCORE.heavy>
37

>  <SCORE.norm>
-0.32711

>  <RMSD>
13.729

$$$$
1yrj_lig
 OpenBabel11021811423D
libRbt.so/2013.1/901 2013/11/27
 37 40  0  0  0  0  0  0  0  0999 V2000
   32.3223    6.6313   16.6147 C   0  0  1  0  0  0  0  0  0  0  0  0
   33.0859    6.2364   15.3355 C   0  0  1  0  0  0  0  0  0  0  0  0
   34.4948    6.8498   15.2986 C   0  0  0  0  0  0  0  0  0  0  0  0
   34.4092    8.3892   15.4678 C   0  0  1  0  0  0  0  0  0  0  0  0
   33.6843    8.7361   16.7820 C   0  0  1  0  0  0  0  0  0  0  0  0
   33.6220   10.3142   16.9365 C   0  0  1  0  0  0  0  0  0  0  0  0
   35.0474   10.8900   16.9472 C   0  0  1  0  0  0  0  0  0  0  0  0
   35.7467   10.4726   15.6308 C   0  0  2  0  0  0  0  0  0  0  0  0
   34.6476   12.8645   18.5119 C   0  0  0  0  0  0  0  0  0  0  0  0
   33.1623    4.7757   15.1697 N   0  0  0  0  0  0  0  0  0  0  0  0
   34.9995   12.3721   17.1433 N   0  0  0  0  0  0  0  0  0  0  0  0
   32.7833    5.9494   17.7961 O   0  0  0  0  0  0  0  0  0  0  0  0
   32.3516    8.1000   16.7586 O   0  0  0  0  0  0  0  0  0  0  0  0
   35.7465    9.0249   15.4780 O   0  0  0  0  0  0  0  0  0  0  0  0
   32.9530   10.8688   15.8232 O   0  0  0  0  0  0  0  0  0  0  0  0
   37.1036   10.9155   15.5846 O   0  0  0  0  0  0  0  0  0  0  0  0
   37.9602   10.2314   16.5290 C   0  0  2  0  0  0  0  0  0  0  0  0
   39.3233   10.9159   16.7217 C   0  0  1  0  0  0  0  0  0  0  0  0
   40.1997   10.7867   15.4475 C   0  0  2  0  0  0  0  0  0  0  0  0
   40.3840    9.3283   15.0956 C   0  0  1  0  0  0  0  0  0  0  0  0
   38.9981    8.6758   14.8794 C   0  0  1  0  0  0  0  0  0  0  0  0
   39.0881    7.1840   14.5658 C   0  0  0  0  0  0  0  0  0  0  0  0
   41.2168    9.2381   13.8784 N   0  0  0  0  0  0  0  0  0  0  0  0
   38.1838    8.8318   16.0980 O   0  0  0  0  0  0  0  0  0  0  0  0
   39.0942   12.2848   17.0861 O   0  0  0  0  0  0  0  0  0  0  0  0
   41.4885   11.3686   15.6871 O   0  0  0  0  0  0  0  0  0  0  0  0
   37.8027    6.6816   14.3144 O   0  0  0  0  0  0  0  0  0  0  0  0
   32.3188    6.2847   19.2054 C   0  0  1  0  0  0  0  0  0  0  0  0
   30.7877    6.0831   19.2401 C   0  0  1  0  0  0  0  0  0  0  0  0
   30.2221    6.3359   20.6586 C   0  0  2  0  0  0  0  0  0  0  0  0
   30.8882    5.3895   21.6644 C   0  0  1  0  0  0  0  0  0  0  0  0
   32.4230    5.6070   21.6669 C   0  0  0  0  0  0  0  0  0  0  0  0
   32.9634    5.3360   20.2590 C   0  0  2  0  0  0  0  0  0  0  0  0
   30.3511    5.6441   23.0198 N   0  0  0  0  0  0  0  0  0  0  0  0
   34.4097    5.5334   20.3069 N   0  0  0  0  0  0  0  0  0  0  0  0
   30.1690    7.0125   18.3240 O   0  0  0  0  0  0  0  0  0  0  0  0
   28.7961    6.1099   20.6387 O   0  0  0  0  0  0  0  0  0  0  0  0
  1  2  1  0  0  0  0
  1 12  1  1  0  0  0
  1 13  1  0  0  0  0
  2  3  1  0  0  0  0
  2 10  1  1  0  0  0
  4  3  1  1  0  0  0
  4  5  1  0  0  0  0
  4 14  1  0  0  0  0
  5  6  1  0  0  0  0
  5 13  1  6  0  0  0
  6  7  1  0  0  0  0
  6 15  1  6  0  0  0
  7  8  1  0  0  0  0
  7 11  1  6  0  0  0
  8 14  1  0  0  0  0
  8 16  1  1  0  0  0
  9 11  1  0  0  0  0
 17 16  1  6  0  0  0
 17 18  1  0  0  0  0
 17 24  1  0  0  0  0
 18 19  1  0  0  0  0
 18 25  1  6  0  0  0
 19 20  1  0  0  0  0
 19 26  1  1  0  0  0
 20 21  1  0  0  0  0
 20 23  1  6  0  0  0
 21 22  1  1  0  0  0
 21 24  1  0  0  0  0
 22 27  1  0  0  0  0
 28 12  1  6  0  0  0
 28 29  1  0  0  0  0
 28 33  1  0  0  0  0
 29 30  1  0  0  0  0
 29 36  1  6  0  0  0
 30 31  1  0  0  0  0
 30 37  1  6  0  0  0
 31 32  1  0  0  0  0
 31 34  1  1  0  0  0
 32 33  1  0  0  0  0
 33 35  1  1  0  0  0
M  END
>  <CHROM.1>
172.03352711,73.08783637,68.86023691,-166.42710476,-176.91849564,59.58629731
34.96334840,8.36188849,17.18374920,-2.86220367,0.59046494,0.27044613

>  <Name>
1yrj_lig

>  <RI>
0

>  <Rbt.Current_Directory>
/home/itssahil/PROJECTS/Mol_Feturizer/New_Systems/rnas/1yrj

>  <Rbt.Executable>
rbdock ($Id: //depot/dev/client3/rdock/2013.1/src/exe/rbdock.cxx#4 $)

>  <Rbt.Library>
libRbt.so (2013.1, Build901 2013/11/27)

>  <Rbt.Parameter_File>
/export/apps/rDock/src/rDock_2013.1_src/data/scripts/dock_solv.prm

>  <Rbt.Receptor>
prm/blind_docking_60.prm

>  <SCORE>
-17.2408

>  <SCORE.INTER>
-10.5292

>  <SCORE.INTER.CONST>
1

>  <SCORE.INTER.POLAR>
-0.848528

>  <SCORE.INTER.ROT>
6

>  <SCORE.INTER.SOLV>
14.9616

>  <SCORE.INTER.VDW>
-16.7782

>  <SCORE.INTER.norm>
-0.284573

>  <SCORE.INTRA>
-6.72358

>  <SCORE.INTRA.DIHEDRAL>
-13.803

>  <SCORE.INTRA.DIHEDRAL.0>
15.6389

>  <SCORE.INTRA.POLAR>
0

>  <SCORE.INTRA.POLAR.0>
0

>  <SCORE.INTRA.REPUL>
0

>  <SCORE.INTRA.REPUL.0>
0

>  <SCORE.INTRA.SOLV>
-1.79069

>  <SCORE.INTRA.SOLV.lig_0>
-90.9181

>  <SCORE.INTRA.VDW>
1.07327

>  <SCORE.INTRA.VDW.0>
-3.14158

>  <SCORE.INTRA.norm>
-0.181718

>  <SCORE.RESTR>
0.0120056

>  <SCORE.RESTR.CAVITY>
0.0120056

>  <SCORE.RESTR.norm>
0.000324475

>  <SCORE.SYSTEM>
0

>  <SCORE.SYSTEM.CONST>
0

>  <SCORE.SYSTEM.DIHEDRAL>
0

>  <SCORE.SYSTEM.SOLV>
0

>  <SCORE.SYSTEM.norm>
0

>  <SCORE.heavy>
37

>  <SCORE.norm>
-0.465967

>  <RMSD>
13.729

$$$$
1yrj_lig
 OpenBabel11021811423D
libRbt.so/2013.1/901 2013/11/27
 37 40  0  0  0  0  0  0  0  0999 V2000
   31.7435    5.0087   18.7853 C   0  0  1  0  0  0  0  0  0  0  0  0
   32.3566    5.6029   20.0685 C   0  0  1  0  0  0  0  0  0  0  0  0
   33.2958    6.7800   19.7610 C   0  0  0  0  0  0  0  0  0  0  0  0
   34.3869    6.3399   18.7503 C   0  0  1  0  0  0  0  0  0  0  0  0
   33.7295    5.8010   17.4656 C   0  0  1  0  0  0  0  0  0  0  0  0
   34.8660    5.3706   16.4452 C   0  0  1  0  0  0  0  0  0  0  0  0
   35.7554    6.5816   16.1198 C   0  0  1  0  0  0  0  0  0  0  0  0
   36.3507    7.1136   17.4461 C   0  0  2  0  0  0  0  0  0  0  0  0
   36.5668    6.6155   13.7018 C   0  0  0  0  0  0  0  0  0  0  0  0
   31.3226    6.0150   21.0319 N   0  0  0  0  0  0  0  0  0  0  0  0
   36.7987    6.1966   15.1195 N   0  0  0  0  0  0  0  0  0  0  0  0
   30.7185    5.8331   18.1997 O   0  0  0  0  0  0  0  0  0  0  0  0
   32.8283    4.6910   17.8360 O   0  0  0  0  0  0  0  0  0  0  0  0
   35.2962    7.4519   18.3909 O   0  0  0  0  0  0  0  0  0  0  0  0
   35.6899    4.3930   17.0452 O   0  0  0  0  0  0  0  0  0  0  0  0
   37.1450    8.2829   17.2424 O   0  0  0  0  0  0  0  0  0  0  0  0
   38.5510    8.0724   17.5115 C   0  0  2  0  0  0  0  0  0  0  0  0
   39.1843    9.1922   18.3533 C   0  0  1  0  0  0  0  0  0  0  0  0
   39.2776   10.5145   17.5465 C   0  0  2  0  0  0  0  0  0  0  0  0
   40.0719   10.2896   16.2803 C   0  0  1  0  0  0  0  0  0  0  0  0
   39.3939    9.1798   15.4423 C   0  0  1  0  0  0  0  0  0  0  0  0
   40.1600    8.8525   14.1625 C   0  0  0  0  0  0  0  0  0  0  0  0
   40.1391   11.5626   15.5330 N   0  0  0  0  0  0  0  0  0  0  0  0
   39.3027    7.9446   16.2413 O   0  0  0  0  0  0  0  0  0  0  0  0
   38.4160    9.3432   19.5558 O   0  0  0  0  0  0  0  0  0  0  0  0
   39.9397   11.5142   18.3334 O   0  0  0  0  0  0  0  0  0  0  0  0
   40.2203    9.9943   13.3498 O   0  0  0  0  0  0  0  0  0  0  0  0
   29.5559    6.4256   18.9819 C   0  0  1  0  0  0  0  0  0  0  0  0
   29.0600    7.6591   18.1955 C   0  0  1  0  0  0  0  0  0  0  0  0
   27.8269    8.2992   18.8781 C   0  0  2  0  0  0  0  0  0  0  0  0
   26.6956    7.2700   18.9871 C   0  0  1  0  0  0  0  0  0  0  0  0
   27.1679    6.0416   19.8061 C   0  0  0  0  0  0  0  0  0  0  0  0
   28.3774    5.4147   19.1048 C   0  0  2  0  0  0  0  0  0  0  0  0
   25.5242    7.8851   19.6504 N   0  0  0  0  0  0  0  0  0  0  0  0
   28.7802    4.2543   19.8946 N   0  0  0  0  0  0  0  0  0  0  0  0
   30.1184    8.6402   18.1409 O   0  0  0  0  0  0  0  0  0  0  0  0
   27.3920    9.4284   18.0903 O   0  0  0  0  0  0  0  0  0  0  0  0
  1  2  1  0  0  0  0
  1 12  1  6  0  0  0
  1 13  1  0  0  0  0
  2  3  1  0  0  0  0
  2 10  1  1  0  0  0
  4  3  1  1  0  0  0
  4  5  1  0  0  0  0
  4 14  1  0  0  0  0
  5  6  1  0  0  0  0
  5 13  1  1  0  0  0
  6  7  1  0  0  0  0
  6 15  1  1  0  0  0
  7  8  1  0  0  0  0
  7 11  1  6  0  0  0
  8 14  1  0  0  0  0
  8 16  1  6  0  0  0
  9 11  1  0  0  0  0
 17 16  1  6  0  0  0
 17 18  1  0  0  0  0
 17 24  1  0  0  0  0
 18 19  1  0  0  0  0
 18 25  1  1  0  0  0
 19 20  1  0  0  0  0
 19 26  1  1  0  0  0
 20 21  1  0  0  0  0
 20 23  1  6  0  0  0
 21 22  1  6  0  0  0
 21 24  1  0  0  0  0
 22 27  1  0  0  0  0
 28 12  1  6  0  0  0
 28 29  1  0  0  0  0
 28 33  1  0  0  0  0
 29 30  1  0  0  0  0
 29 36  1  1  0  0  0
 30 31  1  0  0  0  0
 30 37  1  6  0  0  0
 31 32  1  0  0  0  0
 31 34  1  1  0  0  0
 32 33  1  0  0  0  0
 33 35  1  1  0  0  0
M  END
>  <CHROM.1>
-49.07556265,102.14012579,-113.19859505,-134.46364623,-61.25897675,156.71126236
34.21655105,7.47971559,17.69167413,-2.96060713,0.30247589,0.16119272

>  <Name>
1yrj_lig

>  <RI>
224

>  <Rbt.Current_Directory>
/home/itssahil/PROJECTS/Mol_Feturizer/New_Systems/rnas/1yrj

>  <Rbt.Executable>
rbdock ($Id: //depot/dev/client3/rdock/2013.1/src/exe/rbdock.cxx#4 $)

>  <Rbt.Library>
libRbt.so (2013.1, Build901 2013/11/27)

>  <Rbt.Parameter_File>
/export/apps/rDock/src/rDock_2013.1_src/data/scripts/dock_solv.prm

>  <Rbt.Receptor>
prm/blind_docking_80.prm

>  <SCORE>
-3.37431

>  <SCORE.INTER>
-5.84474

>  <SCORE.INTER.CONST>
1

>  <SCORE.INTER.POLAR>
0

>  <SCORE.INTER.ROT>
6

>  <SCORE.INTER.SOLV>
9.59863

>  <SCORE.INTER.VDW>
-14.696

>  <SCORE.INTER.norm>
-0.157966

>  <SCORE.INTRA>
2.46174

>  <SCORE.INTRA.DIHEDRAL>
1.48293

>  <SCORE.INTRA.DIHEDRAL.0>
15.6389

>  <SCORE.INTRA.POLAR>
0

>  <SCORE.INTRA.POLAR.0>
0

>  <SCORE.INTRA.REPUL>
0

>  <SCORE.INTRA.REPUL.0>
0

>  <SCORE.INTRA.SOLV>
3.62102

>  <SCORE.INTRA.SOLV.lig_0>
-90.9181

>  <SCORE.INTRA.VDW>
-0.090235

>  <SCORE.INTRA.VDW.0>
-3.14158

>  <SCORE.INTRA.norm>
0.0665335

>  <SCORE.RESTR>
0.00869026

>  <SCORE.RESTR.CAVITY>
0.00869026

>  <SCORE.RESTR.norm>
0.000234872

>  <SCORE.SYSTEM>
0

>  <SCORE.SYSTEM.CONST>
0

>  <SCORE.SYSTEM.DIHEDRAL>
0

>  <SCORE.SYSTEM.SOLV>
0

>  <SCORE.SYSTEM.norm>
0

>  <SCORE.heavy>
37

>  <SCORE.norm>
-0.0911975

>  <RMSD>
13.736

$$$$
1yrj_lig
 OpenBabel11021811423D
libRbt.so/2013.1/901 2013/11/27
 37 40  0  0  0  0  0  0  0  0999 V2000
   33.1578    6.8062   20.5787 C   0  0  1  0  0  0  0  0  0  0  0  0
   34.0956    7.7543   21.3515 C   0  0  1  0  0  0  0  0  0  0  0  0
   34.7963    8.7525   20.4162 C   0  0  0  0  0  0  0  0  0  0  0  0
   35.5445    7.9915   19.2907 C   0  0  1  0  0  0  0  0  0  0  0  0
   34.5602    7.0965   18.5142 C   0  0  1  0  0  0  0  0  0  0  0  0
   35.3476    6.3406   17.3624 C   0  0  1  0  0  0  0  0  0  0  0  0
   35.9929    7.3668   16.4168 C   0  0  1  0  0  0  0  0  0  0  0  0
   36.9322    8.2697   17.2528 C   0  0  2  0  0  0  0  0  0  0  0  0
   35.8873    6.3537   14.0782 C   0  0  0  0  0  0  0  0  0  0  0  0
   33.3886    8.4724   22.4246 N   0  0  0  0  0  0  0  0  0  0  0  0
   36.6951    6.6627   15.2994 N   0  0  0  0  0  0  0  0  0  0  0  0
   31.9400    7.4334   20.1352 O   0  0  0  0  0  0  0  0  0  0  0  0
   33.9101    6.1808   19.4734 O   0  0  0  0  0  0  0  0  0  0  0  0
   36.2057    8.9125   18.3382 O   0  0  0  0  0  0  0  0  0  0  0  0
   36.3916    5.5776   17.9302 O   0  0  0  0  0  0  0  0  0  0  0  0
   37.5290    9.2965   16.4596 O   0  0  0  0  0  0  0  0  0  0  0  0
   38.6633    9.9265   17.1001 C   0  0  2  0  0  0  0  0  0  0  0  0
   38.8309   11.4074   16.7226 C   0  0  1  0  0  0  0  0  0  0  0  0
   39.2614   11.5618   15.2397 C   0  0  2  0  0  0  0  0  0  0  0  0
   40.5462   10.8039   14.9954 C   0  0  1  0  0  0  0  0  0  0  0  0
   40.3369    9.3141   15.3559 C   0  0  1  0  0  0  0  0  0  0  0  0
   41.6040    8.4794   15.1842 C   0  0  0  0  0  0  0  0  0  0  0  0
   40.9272   10.9657   13.5769 N   0  0  0  0  0  0  0  0  0  0  0  0
   39.9106    9.2020   16.7623 O   0  0  0  0  0  0  0  0  0  0  0  0
   37.5991   12.0877   17.0037 O   0  0  0  0  0  0  0  0  0  0  0  0
   39.4812   12.9476   14.9428 O   0  0  0  0  0  0  0  0  0  0  0  0
   42.6198    9.0000   15.9998 O   0  0  0  0  0  0  0  0  0  0  0  0
   30.8917    6.7403   19.2779 C   0  0  1  0  0  0  0  0  0  0  0  0
   29.7527    6.2962   20.2221 C   0  0  1  0  0  0  0  0  0  0  0  0
   28.5970    5.6352   19.4324 C   0  0  2  0  0  0  0  0  0  0  0  0
   28.0475    6.6156   18.3894 C   0  0  1  0  0  0  0  0  0  0  0  0
   29.1724    7.0416   17.4117 C   0  0  0  0  0  0  0  0  0  0  0  0
   30.2972    7.7072   18.2115 C   0  0  2  0  0  0  0  0  0  0  0  0
   26.9507    5.9737   17.6308 N   0  0  0  0  0  0  0  0  0  0  0  0
   31.3262    8.1090   17.2561 N   0  0  0  0  0  0  0  0  0  0  0  0
   30.2722    5.3374   21.1690 O   0  0  0  0  0  0  0  0  0  0  0  0
   27.5531    5.2635   20.3580 O   0  0  0  0  0  0  0  0  0  0  0  0
  1  2  1  0  0  0  0
  1 12  1  6  0  0  0
  1 13  1  0  0  0  0
  2  3  1  0  0  0  0
  2 10  1  1  0  0  0
  4  3  1  1  0  0  0
  4  5  1  0  0  0  0
  4 14  1  0  0  0  0
  5  6  1  0  0  0  0
  5 13  1  1  0  0  0
  6  7  1  0  0  0  0
  6 15  1  1  0  0  0
  7  8  1  0  0  0  0
  7 11  1  6  0  0  0
  8 14  1  0  0  0  0
  8 16  1  6  0  0  0
  9 11  1  0  0  0  0
 17 16  1  6  0  0  0
 17 18  1  0  0  0  0
 17 24  1  0  0  0  0
 18 19  1  0  0  0  0
 18 25  1  6  0  0  0
 19 20  1  0  0  0  0
 19 26  1  1  0  0  0
 20 21  1  0  0  0  0
 20 23  1  6  0  0  0
 21 22  1  1  0  0  0
 21 24  1  0  0  0  0
 22 27  1  0  0  0  0
 28 12  1  1  0  0  0
 28 29  1  0  0  0  0
 28 33  1  0  0  0  0
 29 30  1  0  0  0  0
 29 36  1  1  0  0  0
 30 31  1  0  0  0  0
 30 37  1  1  0  0  0
 31 32  1  0  0  0  0
 31 34  1  6  0  0  0
 32 33  1  0  0  0  0
 33 35  1  6  0  0  0
M  END
>  <CHROM.1>
175.95352280,88.78765118,-164.48161320,-148.34277176,58.90415162,100.58968330
35.04195907,8.10439148,17.76969654,-2.79905156,-0.35333893,-1.57735900

>  <Name>
1yrj_lig

>  <RI>
224

>  <Rbt.Current_Directory>
/home/itssahil/PROJECTS/Mol_Feturizer/New_Systems/rnas/1yrj

>  <Rbt.Executable>
rbdock ($Id: //depot/dev/client3/rdock/2013.1/src/exe/rbdock.cxx#4 $)

>  <Rbt.Library>
libRbt.so (2013.1, Build901 2013/11/27)

>  <Rbt.Parameter_File>
/export/apps/rDock/src/rDock_2013.1_src/data/scripts/dock_solv.prm

>  <Rbt.Receptor>
prm/blind_docking_80.prm

>  <SCORE>
-10.9867

>  <SCORE.INTER>
-8.10653

>  <SCORE.INTER.CONST>
1

>  <SCORE.INTER.POLAR>
0

>  <SCORE.INTER.ROT>
6

>  <SCORE.INTER.SOLV>
15.8196

>  <SCORE.INTER.VDW>
-18.2775

>  <SCORE.INTER.norm>
-0.219095

>  <SCORE.INTRA>
-2.90013

>  <SCORE.INTRA.DIHEDRAL>
-4.3837

>  <SCORE.INTRA.DIHEDRAL.0>
15.6389

>  <SCORE.INTRA.POLAR>
0

>  <SCORE.INTRA.POLAR.0>
0

>  <SCORE.INTRA.REPUL>
0

>  <SCORE.INTRA.REPUL.0>
0

>  <SCORE.INTRA.SOLV>
-1.26538

>  <SCORE.INTRA.SOLV.lig_0>
-90.9181

>  <SCORE.INTRA.VDW>
-0.0755916

>  <SCORE.INTRA.VDW.0>
-3.14158

>  <SCORE.INTRA.norm>
-0.0783819

>  <SCORE.RESTR>
0.019966

>  <SCORE.RESTR.CAVITY>
0.019966

>  <SCORE.RESTR.norm>
0.000539622

>  <SCORE.SYSTEM>
0

>  <SCORE.SYSTEM.CONST>
0

>  <SCORE.SYSTEM.DIHEDRAL>
0

>  <SCORE.SYSTEM.SOLV>
0

>  <SCORE.SYSTEM.norm>
0

>  <SCORE.heavy>
37

>  <SCORE.norm>
-0.296938

>  <RMSD>
13.743

$$$$
1yrj_lig
 OpenBabel11021811423D
libRbt.so/2013.1/901 2013/11/27
 37 40  0  0  0  0  0  0  0  0999 V2000
   36.8783    6.6385   15.2175 C   0  0  1  0  0  0  0  0  0  0  0  0
   35.8567    5.9521   14.2897 C   0  0  1  0  0  0  0  0  0  0  0  0
   34.4103    6.3012   14.6749 C   0  0  0  0  0  0  0  0  0  0  0  0
   34.1589    5.9559   16.1660 C   0  0  1  0  0  0  0  0  0  0  0  0
   35.1690    6.7023   17.0580 C   0  0  1  0  0  0  0  0  0  0  0  0
   34.8818    6.3422   18.5765 C   0  0  1  0  0  0  0  0  0  0  0  0
   33.4456    6.7503   18.9427 C   0  0  1  0  0  0  0  0  0  0  0  0
   32.4757    6.0127   17.9880 C   0  0  2  0  0  0  0  0  0  0  0  0
   33.4501    7.5654   21.3598 C   0  0  0  0  0  0  0  0  0  0  0  0
   36.0979    6.2732   12.8735 N   0  0  0  0  0  0  0  0  0  0  0  0
   33.1833    6.4605   20.3865 N   0  0  0  0  0  0  0  0  0  0  0  0
   37.0239    8.0498   14.9724 O   0  0  0  0  0  0  0  0  0  0  0  0
   36.5318    6.3383   16.6206 O   0  0  0  0  0  0  0  0  0  0  0  0
   32.7876    6.3105   16.5976 O   0  0  0  0  0  0  0  0  0  0  0  0
   34.9799    4.9446   18.7541 O   0  0  0  0  0  0  0  0  0  0  0  0
   31.1160    6.3836   18.2188 O   0  0  0  0  0  0  0  0  0  0  0  0
   30.6967    7.5296   17.4414 C   0  0  2  0  0  0  0  0  0  0  0  0
   30.7554    8.8514   18.2244 C   0  0  1  0  0  0  0  0  0  0  0  0
   29.6736    8.8919   19.3362 C   0  0  2  0  0  0  0  0  0  0  0  0
   28.3035    8.6965   18.7283 C   0  0  1  0  0  0  0  0  0  0  0  0
   28.2673    7.3465   17.9735 C   0  0  1  0  0  0  0  0  0  0  0  0
   26.9292    7.0888   17.2845 C   0  0  0  0  0  0  0  0  0  0  0  0
   27.2974    8.7353   19.8098 N   0  0  0  0  0  0  0  0  0  0  0  0
   29.3171    7.3314   16.9390 O   0  0  0  0  0  0  0  0  0  0  0  0
   32.0811    9.0060   18.7514 O   0  0  0  0  0  0  0  0  0  0  0  0
   29.7069   10.1650   19.9958 O   0  0  0  0  0  0  0  0  0  0  0  0
   26.9332    5.8031   16.7233 O   0  0  0  0  0  0  0  0  0  0  0  0
   38.1760    8.8892   15.5038 C   0  0  1  0  0  0  0  0  0  0  0  0
   39.4488    8.4441   14.7503 C   0  0  1  0  0  0  0  0  0  0  0  0
   40.6742    9.2900   15.1734 C   0  0  2  0  0  0  0  0  0  0  0  0
   40.4061   10.7744   14.8978 C   0  0  1  0  0  0  0  0  0  0  0  0
   39.1517   11.2444   15.6776 C   0  0  0  0  0  0  0  0  0  0  0  0
   37.9491   10.4059   15.2320 C   0  0  2  0  0  0  0  0  0  0  0  0
   41.5768   11.5782   15.3147 N   0  0  0  0  0  0  0  0  0  0  0  0
   36.7877   10.8895   15.9736 N   0  0  0  0  0  0  0  0  0  0  0  0
   39.7171    7.0582   15.0557 O   0  0  0  0  0  0  0  0  0  0  0  0
   41.8262    8.8493   14.4228 O   0  0  0  0  0  0  0  0  0  0  0  0
  1  2  1  0  0  0  0
  1 12  1  1  0  0  0
  1 13  1  0  0  0  0
  2  3  1  0  0  0  0
  2 10  1  6  0  0  0
  4  3  1  6  0  0  0
  4  5  1  0  0  0  0
  4 14  1  0  0  0  0
  5  6  1  0  0  0  0
  5 13  1  6  0  0  0
  6  7  1  0  0  0  0
  6 15  1  6  0  0  0
  7  8  1  0  0  0  0
  7 11  1  1  0  0  0
  8 14  1  0  0  0  0
  8 16  1  1  0  0  0
  9 11  1  0  0  0  0
 17 16  1  1  0  0  0
 17 18  1  0  0  0  0
 17 24  1  0  0  0  0
 18 19  1  0  0  0  0
 18 25  1  1  0  0  0
 19 20  1  0  0  0  0
 19 26  1  6  0  0  0
 20 21  1  0  0  0  0
 20 23  1  1  0  0  0
 21 22  1  6  0  0  0
 21 24  1  0  0  0  0
 22 27  1  0  0  0  0
 28 12  1  6  0  0  0
 28 29  1  0  0  0  0
 28 33  1  0  0  0  0
 29 30  1  0  0  0  0
 29 36  1  1  0  0  0
 30 31  1  0  0  0  0
 30 37  1  6  0  0  0
 31 32  1  0  0  0  0
 31 34  1  1  0  0  0
 32 33  1  0  0  0  0
 33 35  1  1  0  0  0
M  END
>  <CHROM.1>
-164.96459044,91.99474454,89.21028431,-97.68537574,-174.92010622,69.28717498
34.24430443,7.81019338,16.93257232,0.04290817,-0.34693808,-2.61363574

>  <Name>
1yrj_lig

>  <RI>
0

>  <Rbt.Current_Directory>
/home/itssahil/PROJECTS/Mol_Feturizer/New_Systems/rnas/1yrj

>  <Rbt.Executable>
rbdock ($Id: //depot/dev/client3/rdock/2013.1/src/exe/rbdock.cxx#4 $)

>  <Rbt.Library>
libRbt.so (2013.1, Build901 2013/11/27)

>  <Rbt.Parameter_File>
/export/apps/rDock/src/rDock_2013.1_src/data/scripts/dock_solv.prm

>  <Rbt.Receptor>
prm/blind_docking_100.prm

>  <SCORE>
-15.0605

>  <SCORE.INTER>
-13.9049

>  <SCORE.INTER.CONST>
1

>  <SCORE.INTER.POLAR>
-1.20739

>  <SCORE.INTER.ROT>
6

>  <SCORE.INTER.SOLV>
14.8194

>  <SCORE.INTER.VDW>
-17.7851

>  <SCORE.INTER.norm>
-0.375809

>  <SCORE.INTRA>
-1.1556

>  <SCORE.INTRA.DIHEDRAL>
-4.89092

>  <SCORE.INTRA.DIHEDRAL.0>
15.6389

>  <SCORE.INTRA.POLAR>
0

>  <SCORE.INTRA.POLAR.0>
0

>  <SCORE.INTRA.REPUL>
0

>  <SCORE.INTRA.REPUL.0>
0

>  <SCORE.INTRA.SOLV>
-1.24708

>  <SCORE.INTRA.SOLV.lig_0>
-90.9181

>  <SCORE.INTRA.VDW>
1.9134

>  <SCORE.INTRA.VDW.0>
-3.14158

>  <SCORE.INTRA.norm>
-0.0312325

>  <SCORE.RESTR>
0

>  <SCORE.RESTR.CAVITY>
0

>  <SCORE.RESTR.norm>
0

>  <SCORE.SYSTEM>
0

>  <SCORE.SYSTEM.CONST>
0

>  <SCORE.SYSTEM.DIHEDRAL>
0

>  <SCORE.SYSTEM.SOLV>
0

>  <SCORE.SYSTEM.norm>
0

>  <SCORE.heavy>
37

>  <SCORE.norm>
-0.407042

>  <RMSD>
13.747

$$$$
1yrj_lig
 OpenBabel11021811423D
libRbt.so/2013.1/901 2013/11/27
 37 40  0  0  0  0  0  0  0  0999 V2000
   36.5545    7.4189   15.0193 C   0  0  1  0  0  0  0  0  0  0  0  0
   35.3749    6.9255   14.1587 C   0  0  1  0  0  0  0  0  0  0  0  0
   34.0328    7.0654   14.8946 C   0  0  0  0  0  0  0  0  0  0  0  0
   34.0965    6.3336   16.2607 C   0  0  1  0  0  0  0  0  0  0  0  0
   35.2566    6.8933   17.1056 C   0  0  1  0  0  0  0  0  0  0  0  0
   35.2912    6.1378   18.5006 C   0  0  1  0  0  0  0  0  0  0  0  0
   33.9543    6.3402   19.2322 C   0  0  1  0  0  0  0  0  0  0  0  0
   32.8206    5.8077   18.3226 C   0  0  2  0  0  0  0  0  0  0  0  0
   33.3875    6.4153   21.7181 C   0  0  0  0  0  0  0  0  0  0  0  0
   35.3169    7.6141   12.8589 N   0  0  0  0  0  0  0  0  0  0  0  0
   33.9969    5.6733   20.5704 N   0  0  0  0  0  0  0  0  0  0  0  0
   36.6264    8.8525   15.1329 O   0  0  0  0  0  0  0  0  0  0  0  0
   36.5065    6.7467   16.3325 O   0  0  0  0  0  0  0  0  0  0  0  0
   32.8373    6.4721   17.0275 O   0  0  0  0  0  0  0  0  0  0  0  0
   35.4437    4.7512   18.2797 O   0  0  0  0  0  0  0  0  0  0  0  0
   31.5315    6.0142   18.9017 O   0  0  0  0  0  0  0  0  0  0  0  0
   30.4710    6.0958   17.9208 C   0  0  2  0  0  0  0  0  0  0  0  0
   29.9691    7.5296   17.6843 C   0  0  1  0  0  0  0  0  0  0  0  0
   29.2069    8.0676   18.9244 C   0  0  2  0  0  0  0  0  0  0  0  0
   28.0526    7.1500   19.2568 C   0  0  1  0  0  0  0  0  0  0  0  0
   28.5924    5.7239   19.5180 C   0  0  1  0  0  0  0  0  0  0  0  0
   27.4842    4.7163   19.8152 C   0  0  0  0  0  0  0  0  0  0  0  0
   27.3506    7.6849   20.4419 N   0  0  0  0  0  0  0  0  0  0  0  0
   29.3266    5.2493   18.3313 O   0  0  0  0  0  0  0  0  0  0  0  0
   31.0940    8.3513   17.3402 O   0  0  0  0  0  0  0  0  0  0  0  0
   28.6889    9.3750   18.6428 O   0  0  0  0  0  0  0  0  0  0  0  0
   28.0534    3.4629   20.0856 O   0  0  0  0  0  0  0  0  0  0  0  0
   37.5993    9.5839   16.0455 C   0  0  1  0  0  0  0  0  0  0  0  0
   38.9814    9.5521   15.3564 C   0  0  1  0  0  0  0  0  0  0  0  0
   40.0347   10.3334   16.1787 C   0  0  2  0  0  0  0  0  0  0  0  0
   39.5839   11.7877   16.3601 C   0  0  1  0  0  0  0  0  0  0  0  0
   38.2142   11.8360   17.0842 C   0  0  0  0  0  0  0  0  0  0  0  0
   37.1842   11.0715   16.2461 C   0  0  2  0  0  0  0  0  0  0  0  0
   40.5898   12.5258   17.1563 N   0  0  0  0  0  0  0  0  0  0  0  0
   35.9076   11.1551   16.9504 N   0  0  0  0  0  0  0  0  0  0  0  0
   39.4159    8.1802   15.2345 O   0  0  0  0  0  0  0  0  0  0  0  0
   41.2967   10.2921   15.4784 O   0  0  0  0  0  0  0  0  0  0  0  0
  1  2  1  0  0  0  0
  1 12  1  1  0  0  0
  1 13  1  0  0  0  0
  2  3  1  0  0  0  0
  2 10  1  6  0  0  0
  4  3  1  6  0  0  0
  4  5  1  0  0  0  0
  4 14  1  0  0  0  0
  5  6  1  0  0  0  0
  5 13  1  6  0  0  0
  6  7  1  0  0  0  0
  6 15  1  6  0  0  0
  7  8  1  0  0  0  0
  7 11  1  1  0  0  0
  8 14  1  0  0  0  0
  8 16  1  1  0  0  0
  9 11  1  0  0  0  0
 17 16  1  1  0  0  0
 17 18  1  0  0  0  0
 17 24  1  0  0  0  0
 18 19  1  0  0  0  0
 18 25  1  1  0  0  0
 19 20  1  0  0  0  0
 19 26  1  6  0  0  0
 20 21  1  0  0  0  0
 20 23  1  1  0  0  0
 21 22  1  6  0  0  0
 21 24  1  0  0  0  0
 22 27  1  0  0  0  0
 28 12  1  6  0  0  0
 28 29  1  0  0  0  0
 28 33  1  0  0  0  0
 29 30  1  0  0  0  0
 29 36  1  1  0  0  0
 30 31  1  0  0  0  0
 30 37  1  6  0  0  0
 31 32  1  0  0  0  0
 31 34  1  1  0  0  0
 32 33  1  0  0  0  0
 33 35  1  1  0  0  0
M  END
>  <CHROM.1>
173.00657776,138.70813497,154.35654681,-104.46512611,-177.97039994,77.22732415
34.03393509,7.67523317,17.42827395,-0.31527223,-0.38582509,-3.01007451

>  <Name>
1yrj_lig

>  <RI>
224

>  <Rbt.Current_Directory>
/home/itssahil/PROJECTS/Mol_Feturizer/New_Systems/rnas/1yrj

>  <Rbt.Executable>
rbdock ($Id: //depot/dev/client3/rdock/2013.1/src/exe/rbdock.cxx#4 $)

>  <Rbt.Library>
libRbt.so (2013.1, Build901 2013/11/27)

>  <Rbt.Parameter_File>
/export/apps/rDock/src/rDock_2013.1_src/data/scripts/dock_solv.prm

>  <Rbt.Receptor>
prm/blind_docking_80.prm

>  <SCORE>
-10.5521

>  <SCORE.INTER>
-8.77841

>  <SCORE.INTER.CONST>
1

>  <SCORE.INTER.POLAR>
-0.867425

>  <SCORE.INTER.ROT>
6

>  <SCORE.INTER.SOLV>
12.3103

>  <SCORE.INTER.VDW>
-14.6643

>  <SCORE.INTER.norm>
-0.237254

>  <SCORE.INTRA>
-1.79549

>  <SCORE.INTRA.DIHEDRAL>
-4.15833

>  <SCORE.INTRA.DIHEDRAL.0>
15.6389

>  <SCORE.INTRA.POLAR>
0

>  <SCORE.INTRA.POLAR.0>
0

>  <SCORE.INTRA.REPUL>
0

>  <SCORE.INTRA.REPUL.0>
0

>  <SCORE.INTRA.SOLV>
-2.26331

>  <SCORE.INTRA.SOLV.lig_0>
-90.9181

>  <SCORE.INTRA.VDW>
1.41534

>  <SCORE.INTRA.VDW.0>
-3.14158

>  <SCORE.INTRA.norm>
-0.0485266

>  <SCORE.RESTR>
0.021771

>  <SCORE.RESTR.CAVITY>
0.021771

>  <SCORE.RESTR.norm>
0.000588407

>  <SCORE.SYSTEM>
0

>  <SCORE.SYSTEM.CONST>
0

>  <SCORE.SYSTEM.DIHEDRAL>
0

>  <SCORE.SYSTEM.SOLV>
0

>  <SCORE.SYSTEM.norm>
0

>  <SCORE.heavy>
37

>  <SCORE.norm>
-0.285193

>  <RMSD>
13.775

$$$$
1yrj_lig
 OpenBabel11021811423D
libRbt.so/2013.1/901 2013/11/27
 37 40  0  0  0  0  0  0  0  0999 V2000
   32.8128    6.1838   20.3227 C   0  0  1  0  0  0  0  0  0  0  0  0
   33.7520    6.9811   21.2489 C   0  0  1  0  0  0  0  0  0  0  0  0
   34.6475    7.9487   20.4588 C   0  0  0  0  0  0  0  0  0  0  0  0
   35.4328    7.1756   19.3674 C   0  0  1  0  0  0  0  0  0  0  0  0
   34.4532    6.4363   18.4363 C   0  0  1  0  0  0  0  0  0  0  0  0
   35.2807    5.6655   17.3231 C   0  0  1  0  0  0  0  0  0  0  0  0
   36.1253    6.6673   16.5192 C   0  0  1  0  0  0  0  0  0  0  0  0
   37.0546    7.4160   17.5051 C   0  0  2  0  0  0  0  0  0  0  0  0
   36.8160    6.5576   14.0661 C   0  0  0  0  0  0  0  0  0  0  0  0
   33.0089    7.7101   22.2897 N   0  0  0  0  0  0  0  0  0  0  0  0
   36.8699    5.9551   15.4348 N   0  0  0  0  0  0  0  0  0  0  0  0
   31.7201    6.9622   19.8000 O   0  0  0  0  0  0  0  0  0  0  0  0
   33.6136    5.5438   19.2608 O   0  0  0  0  0  0  0  0  0  0  0  0
   36.2832    8.0717   18.5511 O   0  0  0  0  0  0  0  0  0  0  0  0
   36.1743    4.7641   17.9425 O   0  0  0  0  0  0  0  0  0  0  0  0
   37.8348    8.4152   16.8475 O   0  0  0  0  0  0  0  0  0  0  0  0
   38.8664    8.9806   17.6899 C   0  0  2  0  0  0  0  0  0  0  0  0
   38.6193   10.4549   18.0493 C   0  0  1  0  0  0  0  0  0  0  0  0
   38.7808   11.3689   16.8056 C   0  0  2  0  0  0  0  0  0  0  0  0
   40.1599   11.1919   16.2127 C   0  0  1  0  0  0  0  0  0  0  0  0
   40.3667    9.7060   15.8348 C   0  0  1  0  0  0  0  0  0  0  0  0
   41.7577    9.4264   15.2703 C   0  0  0  0  0  0  0  0  0  0  0  0
   40.2815   12.0696   15.0302 N   0  0  0  0  0  0  0  0  0  0  0  0
   40.1880    8.8634   17.0308 O   0  0  0  0  0  0  0  0  0  0  0  0
   37.3150   10.5642   18.6373 O   0  0  0  0  0  0  0  0  0  0  0  0
   38.6182   12.7409   17.1906 O   0  0  0  0  0  0  0  0  0  0  0  0
   41.8466    8.0777   14.8948 O   0  0  0  0  0  0  0  0  0  0  0  0
   30.6058    6.3886   18.9375 C   0  0  1  0  0  0  0  0  0  0  0  0
   29.4475    6.0065   19.8852 C   0  0  1  0  0  0  0  0  0  0  0  0
   28.2298    5.4715   19.0933 C   0  0  2  0  0  0  0  0  0  0  0  0
   27.7487    6.5303   18.0941 C   0  0  1  0  0  0  0  0  0  0  0  0
   28.8910    6.8968   17.1125 C   0  0  0  0  0  0  0  0  0  0  0  0
   30.0784    7.4386   17.9152 C   0  0  2  0  0  0  0  0  0  0  0  0
   26.5918    6.0083   17.3329 N   0  0  0  0  0  0  0  0  0  0  0  0
   31.1234    7.7880   16.9567 N   0  0  0  0  0  0  0  0  0  0  0  0
   29.8991    4.9751   20.7897 O   0  0  0  0  0  0  0  0  0  0  0  0
   27.1719    5.1544   20.0233 O   0  0  0  0  0  0  0  0  0  0  0  0
  1  2  1  0  0  0  0
  1 12  1  6  0  0  0
  1 13  1  0  0  0  0
  2  3  1  0  0  0  0
  2 10  1  1  0  0  0
  4  3  1  1  0  0  0
  4  5  1  0  0  0  0
  4 14  1  0  0  0  0
  5  6  1  0  0  0  0
  5 13  1  1  0  0  0
  6  7  1  0  0  0  0
  6 15  1  1  0  0  0
  7  8  1  0  0  0  0
  7 11  1  6  0  0  0
  8 14  1  0  0  0  0
  8 16  1  6  0  0  0
  9 11  1  0  0  0  0
 17 16  1  6  0  0  0
 17 18  1  0  0  0  0
 17 24  1  0  0  0  0
 18 19  1  0  0  0  0
 18 25  1  6  0  0  0
 19 20  1  0  0  0  0
 19 26  1  1  0  0  0
 20 21  1  0  0  0  0
 20 23  1  6  0  0  0
 21 22  1  1  0  0  0
 21 24  1  0  0  0  0
 22 27  1  0  0  0  0
 28 12  1  1  0  0  0
 28 29  1  0  0  0  0
 28 33  1  0  0  0  0
 29 30  1  0  0  0  0
 29 36  1  1  0  0  0
 30 31  1  0  0  0  0
 30 37  1  1  0  0  0
 31 32  1  0  0  0  0
 31 34  1  6  0  0  0
 32 33  1  0  0  0  0
 33 35  1  6  0  0  0
M  END
>  <CHROM.1>
-175.87526914,132.49419006,-170.42356521,-112.22439254,-177.26084468,93.48731056
34.86416325,7.68805675,17.94830025,-3.10658666,-0.42271210,-2.15316332

>  <Name>
1yrj_lig

>  <RI>
0

>  <Rbt.Current_Directory>
/home/itssahil/PROJECTS/Mol_Feturizer/New_Systems/rnas/1yrj

>  <Rbt.Executable>
rbdock ($Id: //depot/dev/client3/rdock/2013.1/src/exe/rbdock.cxx#4 $)

>  <Rbt.Library>
libRbt.so (2013.1, Build901 2013/11/27)

>  <Rbt.Parameter_File>
/export/apps/rDock/src/rDock_2013.1_src/data/scripts/dock_solv.prm

>  <Rbt.Receptor>
prm/blind_docking_60.prm

>  <SCORE>
-11.193

>  <SCORE.INTER>
-8.61956

>  <SCORE.INTER.CONST>
1

>  <SCORE.INTER.POLAR>
0

>  <SCORE.INTER.ROT>
6

>  <SCORE.INTER.SOLV>
18.2759

>  <SCORE.INTER.VDW>
-19.4383

>  <SCORE.INTER.norm>
-0.232961

>  <SCORE.INTRA>
-2.5872

>  <SCORE.INTRA.DIHEDRAL>
-2.78081

>  <SCORE.INTRA.DIHEDRAL.0>
15.6389

>  <SCORE.INTRA.POLAR>
0

>  <SCORE.INTRA.POLAR.0>
0

>  <SCORE.INTRA.REPUL>
0

>  <SCORE.INTRA.REPUL.0>
0

>  <SCORE.INTRA.SOLV>
-2.05367

>  <SCORE.INTRA.SOLV.lig_0>
-90.9181

>  <SCORE.INTRA.VDW>
-0.169956

>  <SCORE.INTRA.VDW.0>
-3.14158

>  <SCORE.INTRA.norm>
-0.0699243

>  <SCORE.RESTR>
0.0138033

>  <SCORE.RESTR.CAVITY>
0.0138033

>  <SCORE.RESTR.norm>
0.000373061

>  <SCORE.SYSTEM>
0

>  <SCORE.SYSTEM.CONST>
0

>  <SCORE.SYSTEM.DIHEDRAL>
0

>  <SCORE.SYSTEM.SOLV>
0

>  <SCORE.SYSTEM.norm>
0

>  <SCORE.heavy>
37

>  <SCORE.norm>
-0.302512

>  <RMSD>
13.785

$$$$
1yrj_lig
 OpenBabel11021811423D
libRbt.so/2013.1/901 2013/11/27
 37 40  0  0  0  0  0  0  0  0999 V2000
   32.2823    7.1045   20.8848 C   0  0  1  0  0  0  0  0  0  0  0  0
   33.4176    7.8025   21.6588 C   0  0  1  0  0  0  0  0  0  0  0  0
   34.3988    8.5154   20.7146 C   0  0  0  0  0  0  0  0  0  0  0  0
   34.9468    7.5154   19.6634 C   0  0  1  0  0  0  0  0  0  0  0  0
   33.7814    6.8809   18.8808 C   0  0  1  0  0  0  0  0  0  0  0  0
   34.3694    5.8735   17.8050 C   0  0  1  0  0  0  0  0  0  0  0  0
   35.3054    6.6277   16.8467 C   0  0  1  0  0  0  0  0  0  0  0  0
   36.4276    7.2856   17.6859 C   0  0  2  0  0  0  0  0  0  0  0  0
   35.9581    6.2404   14.4114 C   0  0  0  0  0  0  0  0  0  0  0  0
   32.8992    8.7472   22.6619 N   0  0  0  0  0  0  0  0  0  0  0  0
   35.8246    5.6953   15.7985 N   0  0  0  0  0  0  0  0  0  0  0  0
   31.3011    8.0146   20.3535 O   0  0  0  0  0  0  0  0  0  0  0  0
   32.8708    6.2348   19.8476 O   0  0  0  0  0  0  0  0  0  0  0  0
   35.8693    8.1639   18.7036 O   0  0  0  0  0  0  0  0  0  0  0  0
   35.1418    4.8878   18.4579 O   0  0  0  0  0  0  0  0  0  0  0  0
   37.3119    8.0624   16.8771 O   0  0  0  0  0  0  0  0  0  0  0  0
   38.6730    8.0743   17.3680 C   0  0  2  0  0  0  0  0  0  0  0  0
   38.9788    9.2685   18.2866 C   0  0  1  0  0  0  0  0  0  0  0  0
   38.9870   10.6001   17.4897 C   0  0  2  0  0  0  0  0  0  0  0  0
   39.9971   10.5221   16.3679 C   0  0  1  0  0  0  0  0  0  0  0  0
   39.6456    9.3306   15.4459 C   0  0  1  0  0  0  0  0  0  0  0  0
   40.6466    9.1471   14.3075 C   0  0  0  0  0  0  0  0  0  0  0  0
   39.9783   11.8000   15.6263 N   0  0  0  0  0  0  0  0  0  0  0  0
   39.6268    8.0855   16.2344 O   0  0  0  0  0  0  0  0  0  0  0  0
   38.0158    9.2787   19.3504 O   0  0  0  0  0  0  0  0  0  0  0  0
   39.3487   11.6812   18.3601 O   0  0  0  0  0  0  0  0  0  0  0  0
   41.9083    8.8431   14.8399 O   0  0  0  0  0  0  0  0  0  0  0  0
   29.9300    7.5866   19.8520 C   0  0  1  0  0  0  0  0  0  0  0  0
   29.3368    8.7815   19.0734 C   0  0  1  0  0  0  0  0  0  0  0  0
   27.9612    8.4227   18.4609 C   0  0  2  0  0  0  0  0  0  0  0  0
   28.1036    7.2178   17.5233 C   0  0  1  0  0  0  0  0  0  0  0  0
   28.6638    5.9994   18.3006 C   0  0  0  0  0  0  0  0  0  0  0  0
   30.0312    6.3707   18.8839 C   0  0  2  0  0  0  0  0  0  0  0  0
   26.7833    6.8734   16.9500 N   0  0  0  0  0  0  0  0  0  0  0  0
   30.5320    5.1951   19.5910 N   0  0  0  0  0  0  0  0  0  0  0  0
   29.1633    9.8941   19.9778 O   0  0  0  0  0  0  0  0  0  0  0  0
   27.4664    9.5632   17.7265 O   0  0  0  0  0  0  0  0  0  0  0  0
  1  2  1  0  0  0  0
  1 12  1  6  0  0  0
  1 13  1  0  0  0  0
  2  3  1  0  0  0  0
  2 10  1  1  0  0  0
  4  3  1  1  0  0  0
  4  5  1  0  0  0  0
  4 14  1  0  0  0  0
  5  6  1  0  0  0  0
  5 13  1  1  0  0  0
  6  7  1  0  0  0  0
  6 15  1  1  0  0  0
  7  8  1  0  0  0  0
  7 11  1  6  0  0  0
  8 14  1  0  0  0  0
  8 16  1  6  0  0  0
  9 11  1  0  0  0  0
 17 16  1  6  0  0  0
 17 18  1  0  0  0  0
 17 24  1  0  0  0  0
 18 19  1  0  0  0  0
 18 25  1  1  0  0  0
 19 20  1  0  0  0  0
 19 26  1  1  0  0  0
 20 21  1  0  0  0  0
 20 23  1  6  0  0  0
 21 22  1  6  0  0  0
 21 24  1  0  0  0  0
 22 27  1  0  0  0  0
 28 12  1  6  0  0  0
 28 29  1  0  0  0  0
 28 33  1  0  0  0  0
 29 30  1  0  0  0  0
 29 36  1  1  0  0  0
 30 31  1  0  0  0  0
 30 37  1  6  0  0  0
 31 32  1  0  0  0  0
 31 34  1  1  0  0  0
 32 33  1  0  0  0  0
 33 35  1  1  0  0  0
M  END
>  <CHROM.1>
-164.64786640,141.53524751,-147.88791533,-93.46186454,63.14482302,-166.84986101
34.52695229,8.02082558,18.13236321,-3.00700666,-0.27312019,-2.10389109

>  <Name>
1yrj_lig

>  <RI>
224

>  <Rbt.Current_Directory>
/home/itssahil/PROJECTS/Mol_Feturizer/New_Systems/rnas/1yrj

>  <Rbt.Executable>
rbdock ($Id: //depot/dev/client3/rdock/2013.1/src/exe/rbdock.cxx#4 $)

>  <Rbt.Library>
libRbt.so (2013.1, Build901 2013/11/27)

>  <Rbt.Parameter_File>
/export/apps/rDock/src/rDock_2013.1_src/data/scripts/dock_solv.prm

>  <Rbt.Receptor>
prm/blind_docking_80.prm

>  <SCORE>
-10.6705

>  <SCORE.INTER>
-9.46946

>  <SCORE.INTER.CONST>
1

>  <SCORE.INTER.POLAR>
0

>  <SCORE.INTER.ROT>
6

>  <SCORE.INTER.SOLV>
16.8481

>  <SCORE.INTER.VDW>
-19.529

>  <SCORE.INTER.norm>
-0.255931

>  <SCORE.INTRA>
-1.20104

>  <SCORE.INTRA.DIHEDRAL>
-4.52393

>  <SCORE.INTRA.DIHEDRAL.0>
15.6389

>  <SCORE.INTRA.POLAR>
0

>  <SCORE.INTRA.POLAR.0>
0

>  <SCORE.INTRA.REPUL>
0

>  <SCORE.INTRA.REPUL.0>
0

>  <SCORE.INTRA.SOLV>
0.879621

>  <SCORE.INTRA.SOLV.lig_0>
-90.9181

>  <SCORE.INTRA.VDW>
0.621114

>  <SCORE.INTRA.VDW.0>
-3.14158

>  <SCORE.INTRA.norm>
-0.0324605

>  <SCORE.RESTR>
0

>  <SCORE.RESTR.CAVITY>
0

>  <SCORE.RESTR.norm>
0

>  <SCORE.SYSTEM>
0

>  <SCORE.SYSTEM.CONST>
0

>  <SCORE.SYSTEM.DIHEDRAL>
0

>  <SCORE.SYSTEM.SOLV>
0

>  <SCORE.SYSTEM.norm>
0

>  <SCORE.heavy>
37

>  <SCORE.norm>
-0.288392

>  <RMSD>
13.790

$$$$
1yrj_lig
 OpenBabel11021811423D
libRbt.so/2013.1/901 2013/11/27
 37 40  0  0  0  0  0  0  0  0999 V2000
   30.4059    6.5043   18.2744 C   0  0  1  0  0  0  0  0  0  0  0  0
   31.2439    5.2133   18.3568 C   0  0  1  0  0  0  0  0  0  0  0  0
   32.5832    5.4463   19.0739 C   0  0  0  0  0  0  0  0  0  0  0  0
   33.3622    6.5970   18.3850 C   0  0  1  0  0  0  0  0  0  0  0  0
   32.5073    7.8784   18.3707 C   0  0  1  0  0  0  0  0  0  0  0  0
   33.3313    9.0415   17.6734 C   0  0  1  0  0  0  0  0  0  0  0  0
   34.6393    9.2833   18.4442 C   0  0  1  0  0  0  0  0  0  0  0  0
   35.4361    7.9563   18.4714 C   0  0  2  0  0  0  0  0  0  0  0  0
   35.7545   11.5616   18.7127 C   0  0  0  0  0  0  0  0  0  0  0  0
   30.5036    4.1179   19.0043 N   0  0  0  0  0  0  0  0  0  0  0  0
   35.3985   10.4124   17.8229 N   0  0  0  0  0  0  0  0  0  0  0  0
   29.8086    6.8860   19.5277 O   0  0  0  0  0  0  0  0  0  0  0  0
   31.2323    7.5779   17.6885 O   0  0  0  0  0  0  0  0  0  0  0  0
   34.6458    6.8871   19.0640 O   0  0  0  0  0  0  0  0  0  0  0  0
   33.6822    8.6477   16.3632 O   0  0  0  0  0  0  0  0  0  0  0  0
   36.6433    8.0751   19.2252 O   0  0  0  0  0  0  0  0  0  0  0  0
   37.7511    7.3445   18.6485 C   0  0  2  0  0  0  0  0  0  0  0  0
   38.1130    7.8081   17.2280 C   0  0  1  0  0  0  0  0  0  0  0  0
   37.0030    7.4240   16.2139 C   0  0  2  0  0  0  0  0  0  0  0  0
   36.7753    5.9299   16.2419 C   0  0  1  0  0  0  0  0  0  0  0  0
   36.3845    5.4995   17.6755 C   0  0  1  0  0  0  0  0  0  0  0  0
   36.1818    3.9916   17.8067 C   0  0  0  0  0  0  0  0  0  0  0  0
   35.7121    5.5963   15.2715 N   0  0  0  0  0  0  0  0  0  0  0  0
   37.4480    5.8947   18.6164 O   0  0  0  0  0  0  0  0  0  0  0  0
   38.3516    9.2227   17.2614 O   0  0  0  0  0  0  0  0  0  0  0  0
   37.4059    7.8033   14.8907 O   0  0  0  0  0  0  0  0  0  0  0  0
   35.0547    3.6061   17.0660 O   0  0  0  0  0  0  0  0  0  0  0  0
   29.2237    8.2628   19.8048 C   0  0  1  0  0  0  0  0  0  0  0  0
   30.3998    9.2641   19.8114 C   0  0  1  0  0  0  0  0  0  0  0  0
   29.8992   10.7139   20.0200 C   0  0  2  0  0  0  0  0  0  0  0  0
   28.9094   11.0907   18.9113 C   0  0  1  0  0  0  0  0  0  0  0  0
   27.7045   10.1155   18.9166 C   0  0  0  0  0  0  0  0  0  0  0  0
   28.2206    8.6903   18.6926 C   0  0  2  0  0  0  0  0  0  0  0  0
   28.4265   12.4736   19.1230 N   0  0  0  0  0  0  0  0  0  0  0  0
   27.0578    7.8067   18.6864 N   0  0  0  0  0  0  0  0  0  0  0  0
   31.2998    8.9269   20.8896 O   0  0  0  0  0  0  0  0  0  0  0  0
   31.0334   11.6069   19.9929 O   0  0  0  0  0  0  0  0  0  0  0  0
  1  2  1  0  0  0  0
  1 12  1  1  0  0  0
  1 13  1  0  0  0  0
  2  3  1  0  0  0  0
  2 10  1  1  0  0  0
  4  3  1  1  0  0  0
  4  5  1  0  0  0  0
  4 14  1  0  0  0  0
  5  6  1  0  0  0  0
  5 13  1  6  0  0  0
  6  7  1  0  0  0  0
  6 15  1  6  0  0  0
  7  8  1  0  0  0  0
  7 11  1  6  0  0  0
  8 14  1  0  0  0  0
  8 16  1  1  0  0  0
  9 11  1  0  0  0  0
 17 16  1  6  0  0  0
 17 18  1  0  0  0  0
 17 24  1  0  0  0  0
 18 19  1  0  0  0  0
 18 25  1  1  0  0  0
 19 20  1  0  0  0  0
 19 26  1  6  0  0  0
 20 21  1  0  0  0  0
 20 23  1  6  0  0  0
 21 22  1  6  0  0  0
 21 24  1  0  0  0  0
 22 27  1  0  0  0  0
 28 12  1  6  0  0  0
 28 29  1  0  0  0  0
 28 33  1  0  0  0  0
 29 30  1  0  0  0  0
 29 36  1  1  0  0  0
 30 31  1  0  0  0  0
 30 37  1  6  0  0  0
 31 32  1  0  0  0  0
 31 34  1  1  0  0  0
 32 33  1  0  0  0  0
 33 35  1  1  0  0  0
M  END
>  <CHROM.1>
164.78081172,123.82241936,-142.09649738,60.14166616,-67.04811890,-67.40998990
33.28001179,7.86943553,18.27459141,2.81601546,0.21631361,0.12540306

>  <Name>
1yrj_lig

>  <RI>
224

>  <Rbt.Current_Directory>
/home/itssahil/PROJECTS/Mol_Feturizer/New_Systems/rnas/1yrj

>  <Rbt.Executable>
rbdock ($Id: //depot/dev/client3/rdock/2013.1/src/exe/rbdock.cxx#4 $)

>  <Rbt.Library>
libRbt.so (2013.1, Build901 2013/11/27)

>  <Rbt.Parameter_File>
/export/apps/rDock/src/rDock_2013.1_src/data/scripts/dock_solv.prm

>  <Rbt.Receptor>
prm/blind_docking_80.prm

>  <SCORE>
-5.03126

>  <SCORE.INTER>
-5.80512

>  <SCORE.INTER.CONST>
1

>  <SCORE.INTER.POLAR>
-0.0150304

>  <SCORE.INTER.ROT>
6

>  <SCORE.INTER.SOLV>
9.20547

>  <SCORE.INTER.VDW>
-14.4885

>  <SCORE.INTER.norm>
-0.156895

>  <SCORE.INTRA>
-0.886453

>  <SCORE.INTRA.DIHEDRAL>
-7.80699

>  <SCORE.INTRA.DIHEDRAL.0>
15.6389

>  <SCORE.INTRA.POLAR>
0

>  <SCORE.INTRA.POLAR.0>
0

>  <SCORE.INTRA.REPUL>
0

>  <SCORE.INTRA.REPUL.0>
0

>  <SCORE.INTRA.SOLV>
3.00503

>  <SCORE.INTRA.SOLV.lig_0>
-90.9181

>  <SCORE.INTRA.VDW>
1.51453

>  <SCORE.INTRA.VDW.0>
-3.14158

>  <SCORE.INTRA.norm>
-0.0239582

>  <SCORE.RESTR>
1.66032

>  <SCORE.RESTR.CAVITY>
1.66032

>  <SCORE.RESTR.norm>
0.0448735

>  <SCORE.SYSTEM>
0

>  <SCORE.SYSTEM.CONST>
0

>  <SCORE.SYSTEM.DIHEDRAL>
0

>  <SCORE.SYSTEM.SOLV>
0

>  <SCORE.SYSTEM.norm>
0

>  <SCORE.heavy>
37

>  <SCORE.norm>
-0.13598

>  <RMSD>
13.808

$$$$
1yrj_lig
 OpenBabel11021811423D
libRbt.so/2013.1/901 2013/11/27
 37 40  0  0  0  0  0  0  0  0999 V2000
   31.9958    5.1760   19.7880 C   0  0  1  0  0  0  0  0  0  0  0  0
   32.9964    5.4070   20.9372 C   0  0  1  0  0  0  0  0  0  0  0  0
   34.1522    6.3268   20.5123 C   0  0  0  0  0  0  0  0  0  0  0  0
   34.8470    5.7582   19.2476 C   0  0  1  0  0  0  0  0  0  0  0  0
   33.8203    5.5918   18.1112 C   0  0  1  0  0  0  0  0  0  0  0  0
   34.5586    5.0219   16.8274 C   0  0  1  0  0  0  0  0  0  0  0  0
   35.6737    5.9897   16.3992 C   0  0  1  0  0  0  0  0  0  0  0  0
   36.6486    6.1600   17.5896 C   0  0  2  0  0  0  0  0  0  0  0  0
   36.0411    6.2078   13.8844 C   0  0  0  0  0  0  0  0  0  0  0  0
   32.3376    5.9402   22.1408 N   0  0  0  0  0  0  0  0  0  0  0  0
   36.3417    5.4849   15.1597 N   0  0  0  0  0  0  0  0  0  0  0  0
   31.1542    6.3126   19.5178 O   0  0  0  0  0  0  0  0  0  0  0  0
   32.7320    4.7176   18.5936 O   0  0  0  0  0  0  0  0  0  0  0  0
   35.9458    6.6308   18.7743 O   0  0  0  0  0  0  0  0  0  0  0  0
   35.1707    3.7898   17.1462 O   0  0  0  0  0  0  0  0  0  0  0  0
   37.6870    7.0962   17.2981 O   0  0  0  0  0  0  0  0  0  0  0  0
   37.3295    8.0419   16.2629 C   0  0  2  0  0  0  0  0  0  0  0  0
   38.5163    8.8889   15.7755 C   0  0  1  0  0  0  0  0  0  0  0  0
   38.9837    9.8817   16.8729 C   0  0  2  0  0  0  0  0  0  0  0  0
   37.8329   10.7702   17.2867 C   0  0  1  0  0  0  0  0  0  0  0  0
   36.6676    9.8912   17.7993 C   0  0  1  0  0  0  0  0  0  0  0  0
   35.4395   10.7078   18.1952 C   0  0  0  0  0  0  0  0  0  0  0  0
   38.3068   11.6991   18.3335 N   0  0  0  0  0  0  0  0  0  0  0  0
   36.2598    8.9475   16.7430 O   0  0  0  0  0  0  0  0  0  0  0  0
   39.5661    8.0015   15.3638 O   0  0  0  0  0  0  0  0  0  0  0  0
   40.0397   10.7056   16.3602 O   0  0  0  0  0  0  0  0  0  0  0  0
   35.7306   11.4625   19.3413 O   0  0  0  0  0  0  0  0  0  0  0  0
   30.0146    6.3046   18.5100 C   0  0  1  0  0  0  0  0  0  0  0  0
   28.9568    5.3048   19.0271 C   0  0  1  0  0  0  0  0  0  0  0  0
   27.7173    5.2725   18.1004 C   0  0  2  0  0  0  0  0  0  0  0  0
   27.0985    6.6720   18.0045 C   0  0  1  0  0  0  0  0  0  0  0  0
   28.1388    7.6794   17.4516 C   0  0  0  0  0  0  0  0  0  0  0  0
   29.3485    7.7074   18.3916 C   0  0  2  0  0  0  0  0  0  0  0  0
   25.9210    6.6362   17.1086 N   0  0  0  0  0  0  0  0  0  0  0  0
   30.2947    8.6779   17.8478 N   0  0  0  0  0  0  0  0  0  0  0  0
   29.5375    3.9830   19.0676 O   0  0  0  0  0  0  0  0  0  0  0  0
   26.7542    4.3435   18.6428 O   0  0  0  0  0  0  0  0  0  0  0  0
  1  2  1  0  0  0  0
  1 12  1  6  0  0  0
  1 13  1  0  0  0  0
  2  3  1  0  0  0  0
  2 10  1  1  0  0  0
  4  3  1  1  0  0  0
  4  5  1  0  0  0  0
  4 14  1  0  0  0  0
  5  6  1  0  0  0  0
  5 13  1  1  0  0  0
  6  7  1  0  0  0  0
  6 15  1  1  0  0  0
  7  8  1  0  0  0  0
  7 11  1  6  0  0  0
  8 14  1  0  0  0  0
  8 16  1  6  0  0  0
  9 11  1  0  0  0  0
 17 16  1  1  0  0  0
 17 18  1  0  0  0  0
 17 24  1  0  0  0  0
 18 19  1  0  0  0  0
 18 25  1  1  0  0  0
 19 20  1  0  0  0  0
 19 26  1  6  0  0  0
 20 21  1  0  0  0  0
 20 23  1  1  0  0  0
 21 22  1  6  0  0  0
 21 24  1  0  0  0  0
 22 27  1  0  0  0  0
 28 12  1  1  0  0  0
 28 29  1  0  0  0  0
 28 33  1  0  0  0  0
 29 30  1  0  0  0  0
 29 36  1  6  0  0  0
 30 31  1  0  0  0  0
 30 37  1  1  0  0  0
 31 32  1  0  0  0  0
 31 34  1  6  0  0  0
 32 33  1  0  0  0  0
 33 35  1  6  0  0  0
M  END
>  <CHROM.1>
-175.01096297,106.69032776,23.61290628,-169.98623123,-68.37539121,64.78186027
33.83945723,7.10885387,17.89387445,-2.83753012,0.24090457,0.14719122

>  <Name>
1yrj_lig

>  <RI>
0

>  <Rbt.Current_Directory>
/home/itssahil/PROJECTS/Mol_Feturizer/New_Systems/rnas/1yrj

>  <Rbt.Executable>
rbdock ($Id: //depot/dev/client3/rdock/2013.1/src/exe/rbdock.cxx#4 $)

>  <Rbt.Library>
libRbt.so (2013.1, Build901 2013/11/27)

>  <Rbt.Parameter_File>
/export/apps/rDock/src/rDock_2013.1_src/data/scripts/dock_solv.prm

>  <Rbt.Receptor>
prm/blind_docking_60.prm

>  <SCORE>
-5.54153

>  <SCORE.INTER>
-3.59057

>  <SCORE.INTER.CONST>
1

>  <SCORE.INTER.POLAR>
-0.211323

>  <SCORE.INTER.ROT>
6

>  <SCORE.INTER.SOLV>
17.1691

>  <SCORE.INTER.VDW>
-15.0123

>  <SCORE.INTER.norm>
-0.0970423

>  <SCORE.INTRA>
-1.96803

>  <SCORE.INTRA.DIHEDRAL>
-8.74476

>  <SCORE.INTRA.DIHEDRAL.0>
15.6389

>  <SCORE.INTRA.POLAR>
0

>  <SCORE.INTRA.POLAR.0>
0

>  <SCORE.INTRA.REPUL>
0

>  <SCORE.INTRA.REPUL.0>
0

>  <SCORE.INTRA.SOLV>
-0.70812

>  <SCORE.INTRA.SOLV.lig_0>
-90.9181

>  <SCORE.INTRA.VDW>
2.75841

>  <SCORE.INTRA.VDW.0>
-3.14158

>  <SCORE.INTRA.norm>
-0.0531901

>  <SCORE.RESTR>
0.0170644

>  <SCORE.RESTR.CAVITY>
0.0170644

>  <SCORE.RESTR.norm>
0.0004612

>  <SCORE.SYSTEM>
0

>  <SCORE.SYSTEM.CONST>
0

>  <SCORE.SYSTEM.DIHEDRAL>
0

>  <SCORE.SYSTEM.SOLV>
0

>  <SCORE.SYSTEM.norm>
0

>  <SCORE.heavy>
37

>  <SCORE.norm>
-0.149771

>  <RMSD>
13.856

$$$$
1yrj_lig
 OpenBabel11021811423D
libRbt.so/2013.1/901 2013/11/27
 37 40  0  0  0  0  0  0  0  0999 V2000
   36.3289    6.6506   14.6830 C   0  0  1  0  0  0  0  0  0  0  0  0
   35.0387    6.6378   13.8400 C   0  0  1  0  0  0  0  0  0  0  0  0
   33.7809    6.7240   14.7191 C   0  0  0  0  0  0  0  0  0  0  0  0
   33.7914    5.5884   15.7755 C   0  0  1  0  0  0  0  0  0  0  0  0
   35.0729    5.6711   16.6263 C   0  0  1  0  0  0  0  0  0  0  0  0
   35.0523    4.5081   17.7057 C   0  0  1  0  0  0  0  0  0  0  0  0
   33.8100    4.6534   18.5996 C   0  0  1  0  0  0  0  0  0  0  0  0
   32.5556    4.6133   17.6934 C   0  0  2  0  0  0  0  0  0  0  0  0
   34.8731    3.6737   20.7012 C   0  0  0  0  0  0  0  0  0  0  0  0
   35.0299    7.7108   12.8322 N   0  0  0  0  0  0  0  0  0  0  0  0
   33.8093    3.5905   19.6520 N   0  0  0  0  0  0  0  0  0  0  0  0
   36.6496    7.9440   15.2283 O   0  0  0  0  0  0  0  0  0  0  0  0
   36.2369    5.6039   15.7197 O   0  0  0  0  0  0  0  0  0  0  0  0
   32.6166    5.6513   16.6746 O   0  0  0  0  0  0  0  0  0  0  0  0
   34.9549    3.2610   17.0501 O   0  0  0  0  0  0  0  0  0  0  0  0
   31.3530    4.8049   18.4394 O   0  0  0  0  0  0  0  0  0  0  0  0
   31.1630    6.1713   18.8759 C   0  0  2  0  0  0  0  0  0  0  0  0
   30.6640    6.2838   20.3256 C   0  0  1  0  0  0  0  0  0  0  0  0
   29.2046    5.7725   20.4566 C   0  0  2  0  0  0  0  0  0  0  0  0
   28.3023    6.5475   19.5238 C   0  0  1  0  0  0  0  0  0  0  0  0
   28.8127    6.3905   18.0718 C   0  0  1  0  0  0  0  0  0  0  0  0
   27.9844    7.1839   17.0638 C   0  0  0  0  0  0  0  0  0  0  0  0
   26.9236    6.0358   19.6676 N   0  0  0  0  0  0  0  0  0  0  0  0
   30.2051    6.8659   17.9843 O   0  0  0  0  0  0  0  0  0  0  0  0
   31.5699    5.5622   21.1728 O   0  0  0  0  0  0  0  0  0  0  0  0
   28.7461    5.9612   21.8024 O   0  0  0  0  0  0  0  0  0  0  0  0
   26.7411    6.5589   16.8866 O   0  0  0  0  0  0  0  0  0  0  0  0
   35.9340    8.5643   16.4190 C   0  0  1  0  0  0  0  0  0  0  0  0
   36.8996    8.4849   17.6221 C   0  0  1  0  0  0  0  0  0  0  0  0
   36.2873    9.1549   18.8761 C   0  0  2  0  0  0  0  0  0  0  0  0
   35.9574   10.6222   18.5775 C   0  0  1  0  0  0  0  0  0  0  0  0
   34.9597   10.7155   17.3949 C   0  0  0  0  0  0  0  0  0  0  0  0
   35.5917   10.0617   16.1616 C   0  0  2  0  0  0  0  0  0  0  0  0
   35.3624   11.2534   19.7766 N   0  0  0  0  0  0  0  0  0  0  0  0
   34.6315   10.1855   15.0682 N   0  0  0  0  0  0  0  0  0  0  0  0
   37.1646    7.0974   17.9231 O   0  0  0  0  0  0  0  0  0  0  0  0
   37.2387    9.0739   19.9591 O   0  0  0  0  0  0  0  0  0  0  0  0
  1  2  1  0  0  0  0
  1 12  1  1  0  0  0
  1 13  1  0  0  0  0
  2  3  1  0  0  0  0
  2 10  1  6  0  0  0
  4  3  1  6  0  0  0
  4  5  1  0  0  0  0
  4 14  1  0  0  0  0
  5  6  1  0  0  0  0
  5 13  1  6  0  0  0
  6  7  1  0  0  0  0
  6 15  1  6  0  0  0
  7  8  1  0  0  0  0
  7 11  1  1  0  0  0
  8 14  1  0  0  0  0
  8 16  1  1  0  0  0
  9 11  1  0  0  0  0
 17 16  1  6  0  0  0
 17 18  1  0  0  0  0
 17 24  1  0  0  0  0
 18 19  1  0  0  0  0
 18 25  1  1  0  0  0
 19 20  1  0  0  0  0
 19 26  1  1  0  0  0
 20 21  1  0  0  0  0
 20 23  1  6  0  0  0
 21 22  1  6  0  0  0
 21 24  1  0  0  0  0
 22 27  1  0  0  0  0
 28 12  1  6  0  0  0
 28 29  1  0  0  0  0
 28 33  1  0  0  0  0
 29 30  1  0  0  0  0
 29 36  1  1  0  0  0
 30 31  1  0  0  0  0
 30 37  1  1  0  0  0
 31 32  1  0  0  0  0
 31 34  1  1  0  0  0
 32 33  1  0  0  0  0
 33 35  1  6  0  0  0
M  END
>  <CHROM.1>
75.83710442,67.77519782,73.51256396,-137.24180098,-72.75107967,106.37865858
33.26258332,6.77443450,17.74082213,0.16747426,-0.43585792,-2.08577140

>  <Name>
1yrj_lig

>  <RI>
0

>  <Rbt.Current_Directory>
/home/itssahil/PROJECTS/Mol_Feturizer/New_Systems/rnas/1yrj

>  <Rbt.Executable>
rbdock ($Id: //depot/dev/client3/rdock/2013.1/src/exe/rbdock.cxx#4 $)

>  <Rbt.Library>
libRbt.so (2013.1, Build901 2013/11/27)

>  <Rbt.Parameter_File>
/export/apps/rDock/src/rDock_2013.1_src/data/scripts/dock_solv.prm

>  <Rbt.Receptor>
prm/blind_docking_60.prm

>  <SCORE>
-7.74334

>  <SCORE.INTER>
-9.53238

>  <SCORE.INTER.CONST>
1

>  <SCORE.INTER.POLAR>
-0.42002

>  <SCORE.INTER.ROT>
6

>  <SCORE.INTER.SOLV>
18.4831

>  <SCORE.INTER.VDW>
-18.7159

>  <SCORE.INTER.norm>
-0.257632

>  <SCORE.INTRA>
1.03058

>  <SCORE.INTRA.DIHEDRAL>
-0.796538

>  <SCORE.INTRA.DIHEDRAL.0>
15.6389

>  <SCORE.INTRA.POLAR>
0

>  <SCORE.INTRA.POLAR.0>
0

>  <SCORE.INTRA.REPUL>
0

>  <SCORE.INTRA.REPUL.0>
0

>  <SCORE.INTRA.SOLV>
3.10557

>  <SCORE.INTRA.SOLV.lig_0>
-90.9181

>  <SCORE.INTRA.VDW>
-0.123936

>  <SCORE.INTRA.VDW.0>
-3.14158

>  <SCORE.INTRA.norm>
0.0278535

>  <SCORE.RESTR>
0.758459

>  <SCORE.RESTR.CAVITY>
0.758459

>  <SCORE.RESTR.norm>
0.0204989

>  <SCORE.SYSTEM>
0

>  <SCORE.SYSTEM.CONST>
0

>  <SCORE.SYSTEM.DIHEDRAL>
0

>  <SCORE.SYSTEM.SOLV>
0

>  <SCORE.SYSTEM.norm>
0

>  <SCORE.heavy>
37

>  <SCORE.norm>
-0.20928

>  <RMSD>
13.859

$$$$
1yrj_lig
 OpenBabel11021811423D
libRbt.so/2013.1/901 2013/11/27
 37 40  0  0  0  0  0  0  0  0999 V2000
   32.6374    6.8127   20.1331 C   0  0  1  0  0  0  0  0  0  0  0  0
   33.7844    7.5758   20.8241 C   0  0  1  0  0  0  0  0  0  0  0  0
   34.3492    8.6908   19.9296 C   0  0  0  0  0  0  0  0  0  0  0  0
   34.7873    8.1049   18.5620 C   0  0  1  0  0  0  0  0  0  0  0  0
   33.5981    7.3966   17.8860 C   0  0  1  0  0  0  0  0  0  0  0  0
   34.0693    6.8186   16.4854 C   0  0  1  0  0  0  0  0  0  0  0  0
   34.5801    7.9651   15.5976 C   0  0  1  0  0  0  0  0  0  0  0  0
   35.7384    8.6728   16.3418 C   0  0  2  0  0  0  0  0  0  0  0  0
   35.1262    8.4319   13.1501 C   0  0  0  0  0  0  0  0  0  0  0  0
   33.3724    8.1269   22.1255 N   0  0  0  0  0  0  0  0  0  0  0  0
   34.9792    7.4356   14.2568 N   0  0  0  0  0  0  0  0  0  0  0  0
   31.4052    7.5550   20.0707 O   0  0  0  0  0  0  0  0  0  0  0  0
   33.0938    6.3567   18.8056 O   0  0  0  0  0  0  0  0  0  0  0  0
   35.3042    9.1484   17.6473 O   0  0  0  0  0  0  0  0  0  0  0  0
   35.1474    5.9282   16.6838 O   0  0  0  0  0  0  0  0  0  0  0  0
   36.2336    9.7957   15.6115 O   0  0  0  0  0  0  0  0  0  0  0  0
   37.3120   10.4853   16.2860 C   0  0  2  0  0  0  0  0  0  0  0  0
   37.5434   11.9126   15.7634 C   0  0  1  0  0  0  0  0  0  0  0  0
   38.1185   11.8947   14.3222 C   0  0  2  0  0  0  0  0  0  0  0  0
   39.4064   11.1040   14.2919 C   0  0  1  0  0  0  0  0  0  0  0  0
   39.1350    9.6663   14.7946 C   0  0  1  0  0  0  0  0  0  0  0  0
   40.3969    8.8077   14.8430 C   0  0  0  0  0  0  0  0  0  0  0  0
   39.9260   11.1012   12.9087 N   0  0  0  0  0  0  0  0  0  0  0  0
   38.5724    9.7175   16.1559 O   0  0  0  0  0  0  0  0  0  0  0  0
   36.3032   12.6299   15.8440 O   0  0  0  0  0  0  0  0  0  0  0  0
   38.3922   13.2363   13.8951 O   0  0  0  0  0  0  0  0  0  0  0  0
   40.0481    7.4818   15.1400 O   0  0  0  0  0  0  0  0  0  0  0  0
   30.3333    7.3332   19.0142 C   0  0  1  0  0  0  0  0  0  0  0  0
   29.6801    5.9648   19.3088 C   0  0  1  0  0  0  0  0  0  0  0  0
   28.5228    5.6734   18.3230 C   0  0  2  0  0  0  0  0  0  0  0  0
   27.4645    6.7790   18.4163 C   0  0  1  0  0  0  0  0  0  0  0  0
   28.0985    8.1545   18.0866 C   0  0  0  0  0  0  0  0  0  0  0  0
   29.2294    8.4297   19.0832 C   0  0  2  0  0  0  0  0  0  0  0  0
   26.3667    6.5000   17.4637 N   0  0  0  0  0  0  0  0  0  0  0  0
   29.7874    9.7380   18.7516 N   0  0  0  0  0  0  0  0  0  0  0  0
   30.6759    4.9278   19.1711 O   0  0  0  0  0  0  0  0  0  0  0  0
   27.9347    4.3982   18.6589 O   0  0  0  0  0  0  0  0  0  0  0  0
  1  2  1  0  0  0  0
  1 12  1  6  0  0  0
  1 13  1  0  0  0  0
  2  3  1  0  0  0  0
  2 10  1  1  0  0  0
  4  3  1  1  0  0  0
  4  5  1  0  0  0  0
  4 14  1  0  0  0  0
  5  6  1  0  0  0  0
  5 13  1  1  0  0  0
  6  7  1  0  0  0  0
  6 15  1  1  0  0  0
  7  8  1  0  0  0  0
  7 11  1  6  0  0  0
  8 14  1  0  0  0  0
  8 16  1  6  0  0  0
  9 11  1  0  0  0  0
 17 16  1  6  0  0  0
 17 18  1  0  0  0  0
 17 24  1  0  0  0  0
 18 19  1  0  0  0  0
 18 25  1  6  0  0  0
 19 20  1  0  0  0  0
 19 26  1  1  0  0  0
 20 21  1  0  0  0  0
 20 23  1  6  0  0  0
 21 22  1  1  0  0  0
 21 24  1  0  0  0  0
 22 27  1  0  0  0  0
 28 12  1  1  0  0  0
 28 29  1  0  0  0  0
 28 33  1  0  0  0  0
 29 30  1  0  0  0  0
 29 36  1  6  0  0  0
 30 31  1  0  0  0  0
 30 37  1  1  0  0  0
 31 32  1  0  0  0  0
 31 34  1  6  0  0  0
 32 33  1  0  0  0  0
 33 35  1  6  0  0  0
M  END
>  <CHROM.1>
154.15077680,163.05122278,179.58591988,-161.39823234,-172.48693938,70.28220119
34.13297081,8.39453870,17.13344951,-2.58295795,-0.05205812,-0.91890502

>  <Name>
1yrj_lig

>  <RI>
224

>  <Rbt.Current_Directory>
/home/itssahil/PROJECTS/Mol_Feturizer/New_Systems/rnas/1yrj

>  <Rbt.Executable>
rbdock ($Id: //depot/dev/client3/rdock/2013.1/src/exe/rbdock.cxx#4 $)

>  <Rbt.Library>
libRbt.so (2013.1, Build901 2013/11/27)

>  <Rbt.Parameter_File>
/export/apps/rDock/src/rDock_2013.1_src/data/scripts/dock_solv.prm

>  <Rbt.Receptor>
prm/blind_docking_80.prm

>  <SCORE>
-9.82384

>  <SCORE.INTER>
-3.95596

>  <SCORE.INTER.CONST>
1

>  <SCORE.INTER.POLAR>
0

>  <SCORE.INTER.ROT>
6

>  <SCORE.INTER.SOLV>
9.9989

>  <SCORE.INTER.VDW>
-13.5703

>  <SCORE.INTER.norm>
-0.106918

>  <SCORE.INTRA>
-5.93109

>  <SCORE.INTRA.DIHEDRAL>
-10.2514

>  <SCORE.INTRA.DIHEDRAL.0>
15.6389

>  <SCORE.INTRA.POLAR>
0

>  <SCORE.INTRA.POLAR.0>
0

>  <SCORE.INTRA.REPUL>
0

>  <SCORE.INTRA.REPUL.0>
0

>  <SCORE.INTRA.SOLV>
-2.79305

>  <SCORE.INTRA.SOLV.lig_0>
-90.9181

>  <SCORE.INTRA.VDW>
0.591135

>  <SCORE.INTRA.VDW.0>
-3.14158

>  <SCORE.INTRA.norm>
-0.1603

>  <SCORE.RESTR>
0.0632057

>  <SCORE.RESTR.CAVITY>
0.0632057

>  <SCORE.RESTR.norm>
0.00170826

>  <SCORE.SYSTEM>
0

>  <SCORE.SYSTEM.CONST>
0

>  <SCORE.SYSTEM.DIHEDRAL>
0

>  <SCORE.SYSTEM.SOLV>
0

>  <SCORE.SYSTEM.norm>
0

>  <SCORE.heavy>
37

>  <SCORE.norm>
-0.265509

>  <RMSD>
13.862

$$$$
1yrj_lig
 OpenBabel11021811423D
libRbt.so/2013.1/901 2013/11/27
 37 40  0  0  0  0  0  0  0  0999 V2000
   31.0581    6.1750   17.7350 C   0  0  1  0  0  0  0  0  0  0  0  0
   32.1041    5.8029   18.8041 C   0  0  1  0  0  0  0  0  0  0  0  0
   33.4124    6.5886   18.6214 C   0  0  0  0  0  0  0  0  0  0  0  0
   33.9586    6.3853   17.1840 C   0  0  1  0  0  0  0  0  0  0  0  0
   32.9002    6.8169   16.1513 C   0  0  1  0  0  0  0  0  0  0  0  0
   33.4883    6.6113   14.6919 C   0  0  1  0  0  0  0  0  0  0  0  0
   34.7663    7.4495   14.5259 C   0  0  1  0  0  0  0  0  0  0  0  0
   35.7757    7.0119   15.6150 C   0  0  2  0  0  0  0  0  0  0  0  0
   36.1139    8.4342   12.5970 C   0  0  0  0  0  0  0  0  0  0  0  0
   31.5851    5.9887   20.1691 N   0  0  0  0  0  0  0  0  0  0  0  0
   35.2993    7.3007   13.1363 N   0  0  0  0  0  0  0  0  0  0  0  0
   30.4551    7.4660   17.9420 O   0  0  0  0  0  0  0  0  0  0  0  0
   31.6681    6.0407   16.3976 O   0  0  0  0  0  0  0  0  0  0  0  0
   35.2008    7.1549   16.9447 O   0  0  0  0  0  0  0  0  0  0  0  0
   33.8484    5.2568   14.5176 O   0  0  0  0  0  0  0  0  0  0  0  0
   36.9744    7.7870   15.5728 O   0  0  0  0  0  0  0  0  0  0  0  0
   36.7526    9.1958   15.8167 C   0  0  2  0  0  0  0  0  0  0  0  0
   38.0286   10.0441   15.6904 C   0  0  1  0  0  0  0  0  0  0  0  0
   39.0189    9.7413   16.8462 C   0  0  2  0  0  0  0  0  0  0  0  0
   38.3472    9.9894   18.1774 C   0  0  1  0  0  0  0  0  0  0  0  0
   37.0853    9.1010   18.2863 C   0  0  1  0  0  0  0  0  0  0  0  0
   36.3145    9.3235   19.5856 C   0  0  0  0  0  0  0  0  0  0  0  0
   39.3114    9.6886   19.2559 N   0  0  0  0  0  0  0  0  0  0  0  0
   36.1748    9.3978   17.1659 O   0  0  0  0  0  0  0  0  0  0  0  0
   38.6084    9.7991   14.4009 O   0  0  0  0  0  0  0  0  0  0  0  0
   40.1617   10.6013   16.7403 O   0  0  0  0  0  0  0  0  0  0  0  0
   37.0177    8.7416   20.6509 O   0  0  0  0  0  0  0  0  0  0  0  0
   29.5777    7.8115   19.1359 C   0  0  1  0  0  0  0  0  0  0  0  0
   29.1006    9.2680   18.9437 C   0  0  1  0  0  0  0  0  0  0  0  0
   28.1405    9.6967   20.0798 C   0  0  2  0  0  0  0  0  0  0  0  0
   26.9276    8.7597   20.1219 C   0  0  1  0  0  0  0  0  0  0  0  0
   27.3895    7.2979   20.3513 C   0  0  0  0  0  0  0  0  0  0  0  0
   28.3247    6.8894   19.2083 C   0  0  2  0  0  0  0  0  0  0  0  0
   26.0196    9.1684   21.2169 N   0  0  0  0  0  0  0  0  0  0  0  0
   28.7224    5.5052   19.4504 N   0  0  0  0  0  0  0  0  0  0  0  0
   30.2480   10.1451   18.9536 O   0  0  0  0  0  0  0  0  0  0  0  0
   27.7079   11.0527   19.8372 O   0  0  0  0  0  0  0  0  0  0  0  0
  1  2  1  0  0  0  0
  1 12  1  1  0  0  0
  1 13  1  0  0  0  0
  2  3  1  0  0  0  0
  2 10  1  1  0  0  0
  4  3  1  1  0  0  0
  4  5  1  0  0  0  0
  4 14  1  0  0  0  0
  5  6  1  0  0  0  0
  5 13  1  6  0  0  0
  6  7  1  0  0  0  0
  6 15  1  1  0  0  0
  7  8  1  0  0  0  0
  7 11  1  6  0  0  0
  8 14  1  0  0  0  0
  8 16  1  1  0  0  0
  9 11  1  0  0  0  0
 17 16  1  1  0  0  0
 17 18  1  0  0  0  0
 17 24  1  0  0  0  0
 18 19  1  0  0  0  0
 18 25  1  6  0  0  0
 19 20  1  0  0  0  0
 19 26  1  6  0  0  0
 20 21  1  0  0  0  0
 20 23  1  1  0  0  0
 21 22  1  1  0  0  0
 21 24  1  0  0  0  0
 22 27  1  0  0  0  0
 28 12  1  6  0  0  0
 28 29  1  0  0  0  0
 28 33  1  0  0  0  0
 29 30  1  0  0  0  0
 29 36  1  1  0  0  0
 30 31  1  0  0  0  0
 30 37  1  6  0  0  0
 31 32  1  0  0  0  0
 31 34  1  1  0  0  0
 32 33  1  0  0  0  0
 33 35  1  1  0  0  0
M  END
>  <CHROM.1>
-64.94857128,153.46910452,61.72152720,-176.62078922,-73.54344094,-177.97994660
33.49809581,8.11325585,17.55939307,2.90385037,0.27702031,0.98422240

>  <Name>
1yrj_lig

>  <RI>
0

>  <Rbt.Current_Directory>
/home/itssahil/PROJECTS/Mol_Feturizer/New_Systems/rnas/1yrj

>  <Rbt.Executable>
rbdock ($Id: //depot/dev/client3/rdock/2013.1/src/exe/rbdock.cxx#4 $)

>  <Rbt.Library>
libRbt.so (2013.1, Build901 2013/11/27)

>  <Rbt.Parameter_File>
/export/apps/rDock/src/rDock_2013.1_src/data/scripts/dock_solv.prm

>  <Rbt.Receptor>
prm/blind_docking_100.prm

>  <SCORE>
-18.6719

>  <SCORE.INTER>
-14.3094

>  <SCORE.INTER.CONST>
1

>  <SCORE.INTER.POLAR>
-1.37378

>  <SCORE.INTER.ROT>
6

>  <SCORE.INTER.SOLV>
15.4779

>  <SCORE.INTER.VDW>
-17.7196

>  <SCORE.INTER.norm>
-0.38674

>  <SCORE.INTRA>
-4.36256

>  <SCORE.INTRA.DIHEDRAL>
-14.1925

>  <SCORE.INTRA.DIHEDRAL.0>
15.6389

>  <SCORE.INTRA.POLAR>
0

>  <SCORE.INTRA.POLAR.0>
0

>  <SCORE.INTRA.REPUL>
0

>  <SCORE.INTRA.REPUL.0>
0

>  <SCORE.INTRA.SOLV>
3.71222

>  <SCORE.INTRA.SOLV.lig_0>
-90.9181

>  <SCORE.INTRA.VDW>
0.877595

>  <SCORE.INTRA.VDW.0>
-3.14158

>  <SCORE.INTRA.norm>
-0.117907

>  <SCORE.RESTR>
0

>  <SCORE.RESTR.CAVITY>
0

>  <SCORE.RESTR.norm>
0

>  <SCORE.SYSTEM>
0

>  <SCORE.SYSTEM.CONST>
0

>  <SCORE.SYSTEM.DIHEDRAL>
0

>  <SCORE.SYSTEM.SOLV>
0

>  <SCORE.SYSTEM.norm>
0

>  <SCORE.heavy>
37

>  <SCORE.norm>
-0.504647

>  <RMSD>
13.863

$$$$
1yrj_lig
 OpenBabel11021811423D
libRbt.so/2013.1/901 2013/11/27
 37 40  0  0  0  0  0  0  0  0999 V2000
   36.6378    5.9312   14.7749 C   0  0  1  0  0  0  0  0  0  0  0  0
   35.3508    6.4601   14.1119 C   0  0  1  0  0  0  0  0  0  0  0  0
   34.4926    7.2707   15.0961 C   0  0  0  0  0  0  0  0  0  0  0  0
   34.1853    6.4222   16.3576 C   0  0  1  0  0  0  0  0  0  0  0  0
   35.4992    5.9585   17.0146 C   0  0  1  0  0  0  0  0  0  0  0  0
   35.1570    5.1050   18.3078 C   0  0  1  0  0  0  0  0  0  0  0  0
   34.3430    5.9603   19.2922 C   0  0  1  0  0  0  0  0  0  0  0  0
   33.0609    6.4401   18.5693 C   0  0  2  0  0  0  0  0  0  0  0  0
   33.7666    5.9623   21.7771 C   0  0  0  0  0  0  0  0  0  0  0  0
   35.6402    7.2601   12.9105 N   0  0  0  0  0  0  0  0  0  0  0  0
   34.0594    5.1793   20.5360 N   0  0  0  0  0  0  0  0  0  0  0  0
   37.6331    6.9478   14.9962 O   0  0  0  0  0  0  0  0  0  0  0  0
   36.2801    5.2077   16.0108 O   0  0  0  0  0  0  0  0  0  0  0  0
   33.3914    7.1739   17.3563 O   0  0  0  0  0  0  0  0  0  0  0  0
   34.3523    4.0030   17.9434 O   0  0  0  0  0  0  0  0  0  0  0  0
   32.2722    7.2970   19.3958 O   0  0  0  0  0  0  0  0  0  0  0  0
   32.9986    8.4513   19.8793 C   0  0  2  0  0  0  0  0  0  0  0  0
   32.1580    9.3632   20.7878 C   0  0  1  0  0  0  0  0  0  0  0  0
   31.0459   10.0853   19.9815 C   0  0  2  0  0  0  0  0  0  0  0  0
   31.6625   10.8824   18.8549 C   0  0  1  0  0  0  0  0  0  0  0  0
   32.4760    9.9335   17.9432 C   0  0  1  0  0  0  0  0  0  0  0  0
   33.1763   10.6657   16.8008 C   0  0  0  0  0  0  0  0  0  0  0  0
   30.5808   11.5531   18.1042 N   0  0  0  0  0  0  0  0  0  0  0  0
   33.5097    9.2494   18.7406 O   0  0  0  0  0  0  0  0  0  0  0  0
   31.6241    8.5684   21.8566 O   0  0  0  0  0  0  0  0  0  0  0  0
   30.3309   10.9824   20.8422 O   0  0  0  0  0  0  0  0  0  0  0  0
   34.0116   11.6621   17.3276 O   0  0  0  0  0  0  0  0  0  0  0  0
   37.4051    8.1880   15.8473 C   0  0  1  0  0  0  0  0  0  0  0  0
   38.3608    8.0918   17.0570 C   0  0  1  0  0  0  0  0  0  0  0  0
   38.2537    9.3475   17.9559 C   0  0  2  0  0  0  0  0  0  0  0  0
   38.5807   10.6044   17.1409 C   0  0  1  0  0  0  0  0  0  0  0  0
   37.6048   10.7336   15.9435 C   0  0  0  0  0  0  0  0  0  0  0  0
   37.7390    9.4893   15.0594 C   0  0  2  0  0  0  0  0  0  0  0  0
   38.4656   11.8017   18.0033 N   0  0  0  0  0  0  0  0  0  0  0  0
   36.8199    9.6569   13.9369 N   0  0  0  0  0  0  0  0  0  0  0  0
   38.0120    6.9309   17.8422 O   0  0  0  0  0  0  0  0  0  0  0  0
   39.1830    9.2156   19.0531 O   0  0  0  0  0  0  0  0  0  0  0  0
  1  2  1  0  0  0  0
  1 12  1  1  0  0  0
  1 13  1  0  0  0  0
  2  3  1  0  0  0  0
  2 10  1  6  0  0  0
  4  3  1  6  0  0  0
  4  5  1  0  0  0  0
  4 14  1  0  0  0  0
  5  6  1  0  0  0  0
  5 13  1  6  0  0  0
  6  7  1  0  0  0  0
  6 15  1  6  0  0  0
  7  8  1  0  0  0  0
  7 11  1  1  0  0  0
  8 14  1  0  0  0  0
  8 16  1  1  0  0  0
  9 11  1  0  0  0  0
 17 16  1  6  0  0  0
 17 18  1  0  0  0  0
 17 24  1  0  0  0  0
 18 19  1  0  0  0  0
 18 25  1  1  0  0  0
 19 20  1  0  0  0  0
 19 26  1  1  0  0  0
 20 21  1  0  0  0  0
 20 23  1  6  0  0  0
 21 22  1  6  0  0  0
 21 24  1  0  0  0  0
 22 27  1  0  0  0  0
 28 12  1  6  0  0  0
 28 29  1  0  0  0  0
 28 33  1  0  0  0  0
 29 30  1  0  0  0  0
 29 36  1  1  0  0  0
 30 31  1  0  0  0  0
 30 37  1  1  0  0  0
 31 32  1  0  0  0  0
 31 34  1  1  0  0  0
 32 33  1  0  0  0  0
 33 35  1  6  0  0  0
M  END
>  <CHROM.1>
59.31234571,156.95848112,56.39231702,-179.06775895,57.04020858,115.36435644
34.85074217,8.20655392,17.69699177,0.15481705,-0.66147409,3.11657372

>  <Name>
1yrj_lig

>  <RI>
224

>  <Rbt.Current_Directory>
/home/itssahil/PROJECTS/Mol_Feturizer/New_Systems/rnas/1yrj

>  <Rbt.Executable>
rbdock ($Id: //depot/dev/client3/rdock/2013.1/src/exe/rbdock.cxx#4 $)

>  <Rbt.Library>
libRbt.so (2013.1, Build901 2013/11/27)

>  <Rbt.Parameter_File>
/export/apps/rDock/src/rDock_2013.1_src/data/scripts/dock_solv.prm

>  <Rbt.Receptor>
prm/blind_docking_80.prm

>  <SCORE>
-12.234

>  <SCORE.INTER>
-9.87843

>  <SCORE.INTER.CONST>
1

>  <SCORE.INTER.POLAR>
-0.913429

>  <SCORE.INTER.ROT>
6

>  <SCORE.INTER.SOLV>
15.4502

>  <SCORE.INTER.VDW>
-16.2909

>  <SCORE.INTER.norm>
-0.266985

>  <SCORE.INTRA>
-2.3556

>  <SCORE.INTRA.DIHEDRAL>
-7.95808

>  <SCORE.INTRA.DIHEDRAL.0>
15.6389

>  <SCORE.INTRA.POLAR>
0

>  <SCORE.INTRA.POLAR.0>
0

>  <SCORE.INTRA.REPUL>
0

>  <SCORE.INTRA.REPUL.0>
0

>  <SCORE.INTRA.SOLV>
4.03521

>  <SCORE.INTRA.SOLV.lig_0>
-90.9181

>  <SCORE.INTRA.VDW>
-0.394165

>  <SCORE.INTRA.VDW.0>
-3.14158

>  <SCORE.INTRA.norm>
-0.0636648

>  <SCORE.RESTR>
0

>  <SCORE.RESTR.CAVITY>
0

>  <SCORE.RESTR.norm>
0

>  <SCORE.SYSTEM>
0

>  <SCORE.SYSTEM.CONST>
0

>  <SCORE.SYSTEM.DIHEDRAL>
0

>  <SCORE.SYSTEM.SOLV>
0

>  <SCORE.SYSTEM.norm>
0

>  <SCORE.heavy>
37

>  <SCORE.norm>
-0.330649

>  <RMSD>
13.864

$$$$
1yrj_lig
 OpenBabel11021811423D
libRbt.so/2013.1/901 2013/11/27
 37 40  0  0  0  0  0  0  0  0999 V2000
   32.8250   11.3295   19.1238 C   0  0  1  0  0  0  0  0  0  0  0  0
   33.8502   11.2720   17.9744 C   0  0  1  0  0  0  0  0  0  0  0  0
   33.3902   10.3367   16.8448 C   0  0  0  0  0  0  0  0  0  0  0  0
   33.0814    8.9273   17.4138 C   0  0  1  0  0  0  0  0  0  0  0  0
   32.0169    9.0276   18.5228 C   0  0  1  0  0  0  0  0  0  0  0  0
   31.7105    7.5729   19.0778 C   0  0  1  0  0  0  0  0  0  0  0  0
   31.2047    6.6784   17.9344 C   0  0  1  0  0  0  0  0  0  0  0  0
   32.2871    6.6509   16.8280 C   0  0  2  0  0  0  0  0  0  0  0  0
   29.5311    5.1596   19.1171 C   0  0  0  0  0  0  0  0  0  0  0  0
   34.1497   12.6096   17.4375 N   0  0  0  0  0  0  0  0  0  0  0  0
   30.8656    5.3194   18.4591 N   0  0  0  0  0  0  0  0  0  0  0  0
   31.6449   12.0914   18.8075 O   0  0  0  0  0  0  0  0  0  0  0  0
   32.5135    9.9543   19.5601 O   0  0  0  0  0  0  0  0  0  0  0  0
   32.5960    7.9973   16.3688 O   0  0  0  0  0  0  0  0  0  0  0  0
   32.9034    6.9961   19.5666 O   0  0  0  0  0  0  0  0  0  0  0  0
   31.8709    5.8885   15.6943 O   0  0  0  0  0  0  0  0  0  0  0  0
   32.7680    4.7979   15.3787 C   0  0  2  0  0  0  0  0  0  0  0  0
   33.3296    4.0916   16.6234 C   0  0  1  0  0  0  0  0  0  0  0  0
   34.3136    5.0121   17.3933 C   0  0  2  0  0  0  0  0  0  0  0  0
   35.4359    5.4453   16.4780 C   0  0  1  0  0  0  0  0  0  0  0  0
   34.8413    6.1777   15.2518 C   0  0  1  0  0  0  0  0  0  0  0  0
   35.9061    6.6096   14.2462 C   0  0  0  0  0  0  0  0  0  0  0  0
   36.3516    6.3224   17.2365 N   0  0  0  0  0  0  0  0  0  0  0  0
   33.8979    5.2857   14.5540 O   0  0  0  0  0  0  0  0  0  0  0  0
   32.2275    3.6715   17.4406 O   0  0  0  0  0  0  0  0  0  0  0  0
   34.8748    4.2977   18.5030 O   0  0  0  0  0  0  0  0  0  0  0  0
   35.2973    6.8916   13.0142 O   0  0  0  0  0  0  0  0  0  0  0  0
   30.3910   11.4951   18.1857 C   0  0  1  0  0  0  0  0  0  0  0  0
   29.4589   11.0835   19.3467 C   0  0  1  0  0  0  0  0  0  0  0  0
   28.1173   10.5231   18.8154 C   0  0  2  0  0  0  0  0  0  0  0  0
   27.4196   11.5737   17.9434 C   0  0  1  0  0  0  0  0  0  0  0  0
   28.3294   11.9692   16.7524 C   0  0  0  0  0  0  0  0  0  0  0  0
   29.6434   12.5358   17.3005 C   0  0  2  0  0  0  0  0  0  0  0  0
   26.1434   11.0275   17.4299 N   0  0  0  0  0  0  0  0  0  0  0  0
   30.4631   12.9120   16.1519 N   0  0  0  0  0  0  0  0  0  0  0  0
   30.1079   10.0600   20.1322 O   0  0  0  0  0  0  0  0  0  0  0  0
   27.2785   10.1789   19.9390 O   0  0  0  0  0  0  0  0  0  0  0  0
  1  2  1  0  0  0  0
  1 12  1  6  0  0  0
  1 13  1  0  0  0  0
  2  3  1  0  0  0  0
  2 10  1  6  0  0  0
  4  3  1  6  0  0  0
  4  5  1  0  0  0  0
  4 14  1  0  0  0  0
  5  6  1  0  0  0  0
  5 13  1  1  0  0  0
  6  7  1  0  0  0  0
  6 15  1  6  0  0  0
  7  8  1  0  0  0  0
  7 11  1  1  0  0  0
  8 14  1  0  0  0  0
  8 16  1  6  0  0  0
  9 11  1  0  0  0  0
 17 16  1  1  0  0  0
 17 18  1  0  0  0  0
 17 24  1  0  0  0  0
 18 19  1  0  0  0  0
 18 25  1  1  0  0  0
 19 20  1  0  0  0  0
 19 26  1  1  0  0  0
 20 21  1  0  0  0  0
 20 23  1  1  0  0  0
 21 22  1  6  0  0  0
 21 24  1  0  0  0  0
 22 27  1  0  0  0  0
 28 12  1  1  0  0  0
 28 29  1  0  0  0  0
 28 33  1  0  0  0  0
 29 30  1  0  0  0  0
 29 36  1  6  0  0  0
 30 31  1  0  0  0  0
 30 37  1  1  0  0  0
 31 32  1  0  0  0  0
 31 34  1  6  0  0  0
 32 33  1  0  0  0  0
 33 35  1  6  0  0  0
M  END
>  <CHROM.1>
90.38059928,81.29274172,-122.29760303,38.48997494,162.49508890,91.74140382
31.98418486,8.32920534,17.48572976,-2.31084370,-0.45002105,3.10675918

>  <Name>
1yrj_lig

>  <RI>
0

>  <Rbt.Current_Directory>
/home/itssahil/PROJECTS/Mol_Feturizer/New_Systems/rnas/1yrj

>  <Rbt.Executable>
rbdock ($Id: //depot/dev/client3/rdock/2013.1/src/exe/rbdock.cxx#4 $)

>  <Rbt.Library>
libRbt.so (2013.1, Build901 2013/11/27)

>  <Rbt.Parameter_File>
/export/apps/rDock/src/rDock_2013.1_src/data/scripts/dock_solv.prm

>  <Rbt.Receptor>
prm/blind_docking_40.prm

>  <SCORE>
4.38361

>  <SCORE.INTER>
-10.1006

>  <SCORE.INTER.CONST>
1

>  <SCORE.INTER.POLAR>
-0.865232

>  <SCORE.INTER.ROT>
6

>  <SCORE.INTER.SOLV>
9.64837

>  <SCORE.INTER.VDW>
-14.6658

>  <SCORE.INTER.norm>
-0.272989

>  <SCORE.INTRA>
7.11575

>  <SCORE.INTRA.DIHEDRAL>
2.54154

>  <SCORE.INTRA.DIHEDRAL.0>
15.6389

>  <SCORE.INTRA.POLAR>
0

>  <SCORE.INTRA.POLAR.0>
0

>  <SCORE.INTRA.REPUL>
0

>  <SCORE.INTRA.REPUL.0>
0

>  <SCORE.INTRA.SOLV>
3.53857

>  <SCORE.INTRA.SOLV.lig_0>
-90.9181

>  <SCORE.INTRA.VDW>
4.0757

>  <SCORE.INTRA.VDW.0>
-3.14158

>  <SCORE.INTRA.norm>
0.192318

>  <SCORE.RESTR>
7.36846

>  <SCORE.RESTR.CAVITY>
7.36846

>  <SCORE.RESTR.norm>
0.199148

>  <SCORE.SYSTEM>
0

>  <SCORE.SYSTEM.CONST>
0

>  <SCORE.SYSTEM.DIHEDRAL>
0

>  <SCORE.SYSTEM.SOLV>
0

>  <SCORE.SYSTEM.norm>
0

>  <SCORE.heavy>
37

>  <SCORE.norm>
0.118476

>  <RMSD>
13.883

$$$$
1yrj_lig
 OpenBabel11021811423D
libRbt.so/2013.1/901 2013/11/27
 37 40  0  0  0  0  0  0  0  0999 V2000
   36.4176    7.4850   14.9820 C   0  0  1  0  0  0  0  0  0  0  0  0
   35.6770    6.2449   14.4443 C   0  0  1  0  0  0  0  0  0  0  0  0
   34.3069    6.0616   15.1163 C   0  0  0  0  0  0  0  0  0  0  0  0
   34.4730    6.0115   16.6575 C   0  0  1  0  0  0  0  0  0  0  0  0
   35.1711    7.2914   17.1550 C   0  0  1  0  0  0  0  0  0  0  0  0
   35.3165    7.2204   18.7335 C   0  0  1  0  0  0  0  0  0  0  0  0
   33.9261    7.0889   19.3761 C   0  0  1  0  0  0  0  0  0  0  0  0
   33.2497    5.8178   18.8075 C   0  0  2  0  0  0  0  0  0  0  0  0
   33.6632    8.3211   21.5940 C   0  0  0  0  0  0  0  0  0  0  0  0
   35.5245    6.2874   12.9807 N   0  0  0  0  0  0  0  0  0  0  0  0
   34.0504    7.0721   20.8666 N   0  0  0  0  0  0  0  0  0  0  0  0
   35.8792    8.7317   14.5035 O   0  0  0  0  0  0  0  0  0  0  0  0
   36.4660    7.4153   16.4556 O   0  0  0  0  0  0  0  0  0  0  0  0
   33.1739    5.8745   17.3549 O   0  0  0  0  0  0  0  0  0  0  0  0
   36.0530    6.0680   19.0856 O   0  0  0  0  0  0  0  0  0  0  0  0
   31.9221    5.6520   19.3071 O   0  0  0  0  0  0  0  0  0  0  0  0
   31.2249    6.9046   19.5034 C   0  0  2  0  0  0  0  0  0  0  0  0
   30.3465    6.9216   20.7650 C   0  0  1  0  0  0  0  0  0  0  0  0
   29.1260    5.9758   20.6101 C   0  0  2  0  0  0  0  0  0  0  0  0
   28.3178    6.3735   19.3963 C   0  0  1  0  0  0  0  0  0  0  0  0
   29.2204    6.3180   18.1410 C   0  0  1  0  0  0  0  0  0  0  0  0
   28.4946    6.7532   16.8699 C   0  0  0  0  0  0  0  0  0  0  0  0
   27.1678    5.4539   19.2730 N   0  0  0  0  0  0  0  0  0  0  0  0
   30.3787    7.2104   18.3264 O   0  0  0  0  0  0  0  0  0  0  0  0
   31.1650    6.5713   21.8904 O   0  0  0  0  0  0  0  0  0  0  0  0
   28.2899    6.0728   21.7714 O   0  0  0  0  0  0  0  0  0  0  0  0
   27.9212    8.0178   17.0696 O   0  0  0  0  0  0  0  0  0  0  0  0
   36.3772   10.0983   14.9495 C   0  0  1  0  0  0  0  0  0  0  0  0
   35.9700   10.2702   16.4296 C   0  0  1  0  0  0  0  0  0  0  0  0
   36.4924   11.6104   17.0015 C   0  0  2  0  0  0  0  0  0  0  0  0
   38.0194   11.6730   16.8778 C   0  0  1  0  0  0  0  0  0  0  0  0
   38.4409   11.5386   15.3921 C   0  0  0  0  0  0  0  0  0  0  0  0
   37.9283   10.1996   14.8516 C   0  0  2  0  0  0  0  0  0  0  0  0
   38.5109   12.9610   17.4161 N   0  0  0  0  0  0  0  0  0  0  0  0
   38.3596   10.1030   13.4596 N   0  0  0  0  0  0  0  0  0  0  0  0
   34.5291   10.2574   16.5266 O   0  0  0  0  0  0  0  0  0  0  0  0
   36.1058   11.7070   18.3893 O   0  0  0  0  0  0  0  0  0  0  0  0
  1  2  1  0  0  0  0
  1 12  1  1  0  0  0
  1 13  1  0  0  0  0
  2  3  1  0  0  0  0
  2 10  1  6  0  0  0
  4  3  1  6  0  0  0
  4  5  1  0  0  0  0
  4 14  1  0  0  0  0
  5  6  1  0  0  0  0
  5 13  1  6  0  0  0
  6  7  1  0  0  0  0
  6 15  1  6  0  0  0
  7  8  1  0  0  0  0
  7 11  1  1  0  0  0
  8 14  1  0  0  0  0
  8 16  1  1  0  0  0
  9 11  1  0  0  0  0
 17 16  1  6  0  0  0
 17 18  1  0  0  0  0
 17 24  1  0  0  0  0
 18 19  1  0  0  0  0
 18 25  1  1  0  0  0
 19 20  1  0  0  0  0
 19 26  1  1  0  0  0
 20 21  1  0  0  0  0
 20 23  1  6  0  0  0
 21 22  1  6  0  0  0
 21 24  1  0  0  0  0
 22 27  1  0  0  0  0
 28 12  1  1  0  0  0
 28 29  1  0  0  0  0
 28 33  1  0  0  0  0
 29 30  1  0  0  0  0
 29 36  1  6  0  0  0
 30 31  1  0  0  0  0
 30 37  1  1  0  0  0
 31 32  1  0  0  0  0
 31 34  1  6  0  0  0
 32 33  1  0  0  0  0
 33 35  1  6  0  0  0
M  END
>  <CHROM.1>
176.22549389,104.56033272,35.10376009,-141.53230749,53.63890402,-68.71681728
33.67843890,7.87196958,17.66569182,0.24898596,-0.57166389,-1.96607632

>  <Name>
1yrj_lig

>  <RI>
0

>  <Rbt.Current_Directory>
/home/itssahil/PROJECTS/Mol_Feturizer/New_Systems/rnas/1yrj

>  <Rbt.Executable>
rbdock ($Id: //depot/dev/client3/rdock/2013.1/src/exe/rbdock.cxx#4 $)

>  <Rbt.Library>
libRbt.so (2013.1, Build901 2013/11/27)

>  <Rbt.Parameter_File>
/export/apps/rDock/src/rDock_2013.1_src/data/scripts/dock_solv.prm

>  <Rbt.Receptor>
prm/blind_docking_60.prm

>  <SCORE>
-13.645

>  <SCORE.INTER>
-11.7601

>  <SCORE.INTER.CONST>
1

>  <SCORE.INTER.POLAR>
-1.42973

>  <SCORE.INTER.ROT>
6

>  <SCORE.INTER.SOLV>
15.5335

>  <SCORE.INTER.VDW>
-15.8521

>  <SCORE.INTER.norm>
-0.317841

>  <SCORE.INTRA>
-1.89898

>  <SCORE.INTRA.DIHEDRAL>
-6.17425

>  <SCORE.INTRA.DIHEDRAL.0>
15.6389

>  <SCORE.INTRA.POLAR>
0

>  <SCORE.INTRA.POLAR.0>
0

>  <SCORE.INTRA.REPUL>
0

>  <SCORE.INTRA.REPUL.0>
0

>  <SCORE.INTRA.SOLV>
0.292619

>  <SCORE.INTRA.SOLV.lig_0>
-90.9181

>  <SCORE.INTRA.VDW>
1.04184

>  <SCORE.INTRA.VDW.0>
-3.14158

>  <SCORE.INTRA.norm>
-0.0513237

>  <SCORE.RESTR>
0.0140423

>  <SCORE.RESTR.CAVITY>
0.0140423

>  <SCORE.RESTR.norm>
0.000379521

>  <SCORE.SYSTEM>
0

>  <SCORE.SYSTEM.CONST>
0

>  <SCORE.SYSTEM.DIHEDRAL>
0

>  <SCORE.SYSTEM.SOLV>
0

>  <SCORE.SYSTEM.norm>
0

>  <SCORE.heavy>
37

>  <SCORE.norm>
-0.368785

>  <RMSD>
13.902

$$$$
1yrj_lig
 OpenBabel11021811423D
libRbt.so/2013.1/901 2013/11/27
 37 40  0  0  0  0  0  0  0  0999 V2000
   36.3350    7.6166   14.9975 C   0  0  1  0  0  0  0  0  0  0  0  0
   35.5012    6.4236   14.4906 C   0  0  1  0  0  0  0  0  0  0  0  0
   34.0202    6.5550   14.8801 C   0  0  0  0  0  0  0  0  0  0  0  0
   33.8882    6.7409   16.4142 C   0  0  1  0  0  0  0  0  0  0  0  0
   34.6953    7.9721   16.8679 C   0  0  1  0  0  0  0  0  0  0  0  0
   34.5329    8.1469   18.4367 C   0  0  1  0  0  0  0  0  0  0  0  0
   33.0468    8.3267   18.7865 C   0  0  1  0  0  0  0  0  0  0  0  0
   32.2753    7.0892   18.2671 C   0  0  2  0  0  0  0  0  0  0  0  0
   31.6346    9.2176   20.7149 C   0  0  0  0  0  0  0  0  0  0  0  0
   35.6306    6.2414   13.0355 N   0  0  0  0  0  0  0  0  0  0  0  0
   32.8896    8.5426   20.2582 N   0  0  0  0  0  0  0  0  0  0  0  0
   36.1200    8.8296   14.2523 O   0  0  0  0  0  0  0  0  0  0  0  0
   36.0983    7.7890   16.4442 O   0  0  0  0  0  0  0  0  0  0  0  0
   32.4794    6.9115   16.8368 O   0  0  0  0  0  0  0  0  0  0  0  0
   34.9794    6.9760   19.0881 O   0  0  0  0  0  0  0  0  0  0  0  0
   30.8702    7.2025   18.4962 O   0  0  0  0  0  0  0  0  0  0  0  0
   30.2042    5.9227   18.6059 C   0  0  2  0  0  0  0  0  0  0  0  0
   28.7145    6.0402   18.9672 C   0  0  1  0  0  0  0  0  0  0  0  0
   28.5297    6.5458   20.4228 C   0  0  2  0  0  0  0  0  0  0  0  0
   29.2364    5.6172   21.3835 C   0  0  1  0  0  0  0  0  0  0  0  0
   30.7365    5.5432   21.0124 C   0  0  1  0  0  0  0  0  0  0  0  0
   31.5212    4.5853   21.9059 C   0  0  0  0  0  0  0  0  0  0  0  0
   29.0467    6.1263   22.7576 N   0  0  0  0  0  0  0  0  0  0  0  0
   30.8780    5.0793   19.6206 O   0  0  0  0  0  0  0  0  0  0  0  0
   28.0837    6.9024   18.0092 O   0  0  0  0  0  0  0  0  0  0  0  0
   27.1338    6.5719   20.7510 O   0  0  0  0  0  0  0  0  0  0  0  0
   32.8951    4.7567   21.6806 O   0  0  0  0  0  0  0  0  0  0  0  0
   36.7781   10.1597   14.5874 C   0  0  1  0  0  0  0  0  0  0  0  0
   36.2207   10.6115   15.9553 C   0  0  1  0  0  0  0  0  0  0  0  0
   36.8823   11.9312   16.4208 C   0  0  2  0  0  0  0  0  0  0  0  0
   38.4015   11.7490   16.5195 C   0  0  1  0  0  0  0  0  0  0  0  0
   38.9799   11.3310   15.1435 C   0  0  0  0  0  0  0  0  0  0  0  0
   38.3241   10.0158   14.7100 C   0  0  2  0  0  0  0  0  0  0  0  0
   39.0285   13.0172   16.9542 N   0  0  0  0  0  0  0  0  0  0  0  0
   38.9065    9.6474   13.4224 N   0  0  0  0  0  0  0  0  0  0  0  0
   34.7972   10.8255   15.8368 O   0  0  0  0  0  0  0  0  0  0  0  0
   36.3441   12.2924   17.7110 O   0  0  0  0  0  0  0  0  0  0  0  0
  1  2  1  0  0  0  0
  1 12  1  6  0  0  0
  1 13  1  0  0  0  0
  2  3  1  0  0  0  0
  2 10  1  6  0  0  0
  4  3  1  6  0  0  0
  4  5  1  0  0  0  0
  4 14  1  0  0  0  0
  5  6  1  0  0  0  0
  5 13  1  1  0  0  0
  6  7  1  0  0  0  0
  6 15  1  1  0  0  0
  7  8  1  0  0  0  0
  7 11  1  1  0  0  0
  8 14  1  0  0  0  0
  8 16  1  6  0  0  0
  9 11  1  0  0  0  0
 17 16  1  1  0  0  0
 17 18  1  0  0  0  0
 17 24  1  0  0  0  0
 18 19  1  0  0  0  0
 18 25  1  6  0  0  0
 19 20  1  0  0  0  0
 19 26  1  1  0  0  0
 20 21  1  0  0  0  0
 20 23  1  1  0  0  0
 21 22  1  1  0  0  0
 21 24  1  0  0  0  0
 22 27  1  0  0  0  0
 28 12  1  1  0  0  0
 28 29  1  0  0  0  0
 28 33  1  0  0  0  0
 29 30  1  0  0  0  0
 29 36  1  6  0  0  0
 30 31  1  0  0  0  0
 30 37  1  1  0  0  0
 31 32  1  0  0  0  0
 31 34  1  6  0  0  0
 32 33  1  0  0  0  0
 33 35  1  6  0  0  0
M  END
>  <CHROM.1>
177.39940070,158.23790150,-153.63581170,175.24785740,-169.02617328,-66.01333739
33.64841087,7.98285896,17.72197719,0.14699591,-0.70119121,-2.23454755

>  <Name>
1yrj_lig

>  <RI>
0

>  <Rbt.Current_Directory>
/home/itssahil/PROJECTS/Mol_Feturizer/New_Systems/rnas/1yrj

>  <Rbt.Executable>
rbdock ($Id: //depot/dev/client3/rdock/2013.1/src/exe/rbdock.cxx#4 $)

>  <Rbt.Library>
libRbt.so (2013.1, Build901 2013/11/27)

>  <Rbt.Parameter_File>
/export/apps/rDock/src/rDock_2013.1_src/data/scripts/dock_solv.prm

>  <Rbt.Receptor>
prm/blind_docking_60.prm

>  <SCORE>
-16.5473

>  <SCORE.INTER>
-10.2101

>  <SCORE.INTER.CONST>
1

>  <SCORE.INTER.POLAR>
-1.4437

>  <SCORE.INTER.ROT>
6

>  <SCORE.INTER.SOLV>
17.676

>  <SCORE.INTER.VDW>
-15.4864

>  <SCORE.INTER.norm>
-0.275948

>  <SCORE.INTRA>
-7.05773

>  <SCORE.INTRA.DIHEDRAL>
-11.5221

>  <SCORE.INTRA.DIHEDRAL.0>
15.6389

>  <SCORE.INTRA.POLAR>
0

>  <SCORE.INTRA.POLAR.0>
0

>  <SCORE.INTRA.REPUL>
0.0442249

>  <SCORE.INTRA.REPUL.0>
0

>  <SCORE.INTRA.SOLV>
-1.07236

>  <SCORE.INTRA.SOLV.lig_0>
-90.9181

>  <SCORE.INTRA.VDW>
-0.981628

>  <SCORE.INTRA.VDW.0>
-3.14158

>  <SCORE.INTRA.norm>
-0.190749

>  <SCORE.RESTR>
0.720476

>  <SCORE.RESTR.CAVITY>
0.720476

>  <SCORE.RESTR.norm>
0.0194723

>  <SCORE.SYSTEM>
0

>  <SCORE.SYSTEM.CONST>
0

>  <SCORE.SYSTEM.DIHEDRAL>
0

>  <SCORE.SYSTEM.SOLV>
0

>  <SCORE.SYSTEM.norm>
0

>  <SCORE.heavy>
37

>  <SCORE.norm>
-0.447225

>  <RMSD>
13.909

$$$$
1yrj_lig
 OpenBabel11021811423D
libRbt.so/2013.1/901 2013/11/27
 37 40  0  0  0  0  0  0  0  0999 V2000
   36.9315    6.8845   14.9056 C   0  0  1  0  0  0  0  0  0  0  0  0
   35.9036    5.9492   14.2393 C   0  0  1  0  0  0  0  0  0  0  0  0
   34.4729    6.2360   14.7221 C   0  0  0  0  0  0  0  0  0  0  0  0
   34.4078    6.1561   16.2697 C   0  0  1  0  0  0  0  0  0  0  0  0
   35.4144    7.1424   16.8918 C   0  0  1  0  0  0  0  0  0  0  0  0
   35.3183    7.0500   18.4731 C   0  0  1  0  0  0  0  0  0  0  0  0
   33.8894    7.3919   18.9257 C   0  0  1  0  0  0  0  0  0  0  0  0
   32.9155    6.4058   18.2361 C   0  0  2  0  0  0  0  0  0  0  0  0
   32.7841    8.2446   21.0606 C   0  0  0  0  0  0  0  0  0  0  0  0
   35.9685    6.0186   12.7703 N   0  0  0  0  0  0  0  0  0  0  0  0
   33.8030    7.3564   20.4186 N   0  0  0  0  0  0  0  0  0  0  0  0
   36.8996    8.2320   14.3992 O   0  0  0  0  0  0  0  0  0  0  0  0
   36.7589    6.8238   16.3703 O   0  0  0  0  0  0  0  0  0  0  0  0
   33.0554    6.4636   16.7883 O   0  0  0  0  0  0  0  0  0  0  0  0
   35.5832    5.7246   18.8827 O   0  0  0  0  0  0  0  0  0  0  0  0
   31.5531    6.6927   18.5541 O   0  0  0  0  0  0  0  0  0  0  0  0
   30.9236    7.5920   17.6115 C   0  0  2  0  0  0  0  0  0  0  0  0
   30.8757    9.0493   18.0989 C   0  0  1  0  0  0  0  0  0  0  0  0
   29.8959    9.2088   19.2918 C   0  0  2  0  0  0  0  0  0  0  0  0
   28.5164    8.7384   18.8909 C   0  0  1  0  0  0  0  0  0  0  0  0
   28.5927    7.2622   18.4342 C   0  0  1  0  0  0  0  0  0  0  0  0
   27.2460    6.7175   17.9636 C   0  0  0  0  0  0  0  0  0  0  0  0
   27.6092    8.8978   20.0462 N   0  0  0  0  0  0  0  0  0  0  0  0
   29.5440    7.1406   17.3150 O   0  0  0  0  0  0  0  0  0  0  0  0
   32.2097    9.4578   18.4342 O   0  0  0  0  0  0  0  0  0  0  0  0
   29.8187   10.5896   19.6717 O   0  0  0  0  0  0  0  0  0  0  0  0
   27.3821    5.3619   17.6293 O   0  0  0  0  0  0  0  0  0  0  0  0
   37.6820    9.3862   15.0076 C   0  0  1  0  0  0  0  0  0  0  0  0
   36.9681    9.7782   16.3201 C   0  0  1  0  0  0  0  0  0  0  0  0
   37.7294   10.9078   17.0553 C   0  0  2  0  0  0  0  0  0  0  0  0
   39.1626   10.4586   17.3639 C   0  0  1  0  0  0  0  0  0  0  0  0
   39.9034   10.0970   16.0512 C   0  0  0  0  0  0  0  0  0  0  0  0
   39.1428    8.9674   15.3488 C   0  0  2  0  0  0  0  0  0  0  0  0
   39.8879   11.5470   18.0566 N   0  0  0  0  0  0  0  0  0  0  0  0
   39.8795    8.6444   14.1299 N   0  0  0  0  0  0  0  0  0  0  0  0
   35.6364   10.2442   16.0114 O   0  0  0  0  0  0  0  0  0  0  0  0
   37.0342   11.2160   18.2827 O   0  0  0  0  0  0  0  0  0  0  0  0
  1  2  1  0  0  0  0
  1 12  1  6  0  0  0
  1 13  1  0  0  0  0
  2  3  1  0  0  0  0
  2 10  1  6  0  0  0
  4  3  1  6  0  0  0
  4  5  1  0  0  0  0
  4 14  1  0  0  0  0
  5  6  1  0  0  0  0
  5 13  1  1  0  0  0
  6  7  1  0  0  0  0
  6 15  1  6  0  0  0
  7  8  1  0  0  0  0
  7 11  1  1  0  0  0
  8 14  1  0  0  0  0
  8 16  1  6  0  0  0
  9 11  1  0  0  0  0
 17 16  1  1  0  0  0
 17 18  1  0  0  0  0
 17 24  1  0  0  0  0
 18 19  1  0  0  0  0
 18 25  1  1  0  0  0
 19 20  1  0  0  0  0
 19 26  1  6  0  0  0
 20 21  1  0  0  0  0
 20 23  1  1  0  0  0
 21 22  1  6  0  0  0
 21 24  1  0  0  0  0
 22 27  1  0  0  0  0
 28 12  1  1  0  0  0
 28 29  1  0  0  0  0
 28 33  1  0  0  0  0
 29 30  1  0  0  0  0
 29 36  1  6  0  0  0
 30 31  1  0  0  0  0
 30 37  1  1  0  0  0
 31 32  1  0  0  0  0
 31 34  1  6  0  0  0
 32 33  1  0  0  0  0
 33 35  1  6  0  0  0
M  END
>  <CHROM.1>
171.84671527,151.49738978,91.39449129,-99.15926386,-177.15049563,-74.23255185
34.04151292,8.10360664,17.28869555,0.09796394,-0.32619636,-2.39030464

>  <Name>
1yrj_lig

>  <RI>
0

>  <Rbt.Current_Directory>
/home/itssahil/PROJECTS/Mol_Feturizer/New_Systems/rnas/1yrj

>  <Rbt.Executable>
rbdock ($Id: //depot/dev/client3/rdock/2013.1/src/exe/rbdock.cxx#4 $)

>  <Rbt.Library>
libRbt.so (2013.1, Build901 2013/11/27)

>  <Rbt.Parameter_File>
/export/apps/rDock/src/rDock_2013.1_src/data/scripts/dock_solv.prm

>  <Rbt.Receptor>
prm/blind_docking_100.prm

>  <SCORE>
-13.0845

>  <SCORE.INTER>
-11.7544

>  <SCORE.INTER.CONST>
1

>  <SCORE.INTER.POLAR>
-1.39259

>  <SCORE.INTER.ROT>
6

>  <SCORE.INTER.SOLV>
17.9063

>  <SCORE.INTER.VDW>
-16.7631

>  <SCORE.INTER.norm>
-0.317687

>  <SCORE.INTRA>
-1.33056

>  <SCORE.INTRA.DIHEDRAL>
-4.59107

>  <SCORE.INTRA.DIHEDRAL.0>
15.6389

>  <SCORE.INTRA.POLAR>
0

>  <SCORE.INTRA.POLAR.0>
0

>  <SCORE.INTRA.REPUL>
0.0080234

>  <SCORE.INTRA.REPUL.0>
0

>  <SCORE.INTRA.SOLV>
-0.344408

>  <SCORE.INTRA.SOLV.lig_0>
-90.9181

>  <SCORE.INTRA.VDW>
1.09706

>  <SCORE.INTRA.VDW.0>
-3.14158

>  <SCORE.INTRA.norm>
-0.035961

>  <SCORE.RESTR>
0.000468356

>  <SCORE.RESTR.CAVITY>
0.000468356

>  <SCORE.RESTR.norm>
1.26583e-05

>  <SCORE.SYSTEM>
0

>  <SCORE.SYSTEM.CONST>
0

>  <SCORE.SYSTEM.DIHEDRAL>
0

>  <SCORE.SYSTEM.SOLV>
0

>  <SCORE.SYSTEM.norm>
0

>  <SCORE.heavy>
37

>  <SCORE.norm>
-0.353635

>  <RMSD>
13.914

$$$$
1yrj_lig
 OpenBabel11021811423D
libRbt.so/2013.1/901 2013/11/27
 37 40  0  0  0  0  0  0  0  0999 V2000
   36.8603    6.3456   15.3841 C   0  0  1  0  0  0  0  0  0  0  0  0
   35.6088    5.9872   14.5589 C   0  0  1  0  0  0  0  0  0  0  0  0
   34.3708    6.7663   15.0309 C   0  0  0  0  0  0  0  0  0  0  0  0
   34.1461    6.5389   16.5486 C   0  0  1  0  0  0  0  0  0  0  0  0
   35.4019    6.9573   17.3365 C   0  0  1  0  0  0  0  0  0  0  0  0
   35.1409    6.7272   18.8848 C   0  0  1  0  0  0  0  0  0  0  0  0
   33.9289    7.5590   19.3348 C   0  0  1  0  0  0  0  0  0  0  0  0
   32.7089    7.1356   18.4812 C   0  0  2  0  0  0  0  0  0  0  0  0
   32.9631    8.4767   21.5100 C   0  0  0  0  0  0  0  0  0  0  0  0
   35.8225    6.1960   13.1175 N   0  0  0  0  0  0  0  0  0  0  0  0
   33.7069    7.3870   20.8039 N   0  0  0  0  0  0  0  0  0  0  0  0
   37.4055    7.6414   15.0730 O   0  0  0  0  0  0  0  0  0  0  0  0
   36.5519    6.1886   16.8190 O   0  0  0  0  0  0  0  0  0  0  0  0
   32.9848    7.3011   17.0614 O   0  0  0  0  0  0  0  0  0  0  0  0
   34.8260    5.3691   19.1108 O   0  0  0  0  0  0  0  0  0  0  0  0
   31.5477    7.9065   18.7923 O   0  0  0  0  0  0  0  0  0  0  0  0
   30.4115    7.5920   17.9533 C   0  0  2  0  0  0  0  0  0  0  0  0
   29.1112    8.2749   18.4077 C   0  0  1  0  0  0  0  0  0  0  0  0
   28.6058    7.6804   19.7491 C   0  0  2  0  0  0  0  0  0  0  0  0
   28.3996    6.1899   19.6059 C   0  0  1  0  0  0  0  0  0  0  0  0
   29.7310    5.5287   19.1773 C   0  0  1  0  0  0  0  0  0  0  0  0
   29.6018    4.0226   18.9615 C   0  0  0  0  0  0  0  0  0  0  0  0
   27.9238    5.6531   20.8978 N   0  0  0  0  0  0  0  0  0  0  0  0
   30.1942    6.1271   17.9125 O   0  0  0  0  0  0  0  0  0  0  0  0
   29.3493    9.6873   18.4956 O   0  0  0  0  0  0  0  0  0  0  0  0
   27.3552    8.2859   20.1045 O   0  0  0  0  0  0  0  0  0  0  0  0
   30.8310    3.5067   18.5245 O   0  0  0  0  0  0  0  0  0  0  0  0
   37.4756    8.7931   16.0644 C   0  0  1  0  0  0  0  0  0  0  0  0
   38.7199    8.5572   16.9488 C   0  0  1  0  0  0  0  0  0  0  0  0
   38.9200    9.7173   17.9540 C   0  0  2  0  0  0  0  0  0  0  0  0
   39.0691   11.0439   17.1999 C   0  0  1  0  0  0  0  0  0  0  0  0
   37.8103   11.3118   16.3359 C   0  0  0  0  0  0  0  0  0  0  0  0
   37.6408   10.1610   15.3384 C   0  0  2  0  0  0  0  0  0  0  0  0
   39.2488   12.1497   18.1670 N   0  0  0  0  0  0  0  0  0  0  0  0
   36.4587   10.4584   14.5340 N   0  0  0  0  0  0  0  0  0  0  0  0
   38.5461    7.3295   17.6893 O   0  0  0  0  0  0  0  0  0  0  0  0
   40.1065    9.4578   18.7348 O   0  0  0  0  0  0  0  0  0  0  0  0
  1  2  1  0  0  0  0
  1 12  1  1  0  0  0
  1 13  1  0  0  0  0
  2  3  1  0  0  0  0
  2 10  1  6  0  0  0
  4  3  1  6  0  0  0
  4  5  1  0  0  0  0
  4 14  1  0  0  0  0
  5  6  1  0  0  0  0
  5 13  1  6  0  0  0
  6  7  1  0  0  0  0
  6 15  1  6  0  0  0
  7  8  1  0  0  0  0
  7 11  1  1  0  0  0
  8 14  1  0  0  0  0
  8 16  1  1  0  0  0
  9 11  1  0  0  0  0
 17 16  1  1  0  0  0
 17 18  1  0  0  0  0
 17 24  1  0  0  0  0
 18 19  1  0  0  0  0
 18 25  1  1  0  0  0
 19 20  1  0  0  0  0
 19 26  1  6  0  0  0
 20 21  1  0  0  0  0
 20 23  1  1  0  0  0
 21 22  1  6  0  0  0
 21 24  1  0  0  0  0
 22 27  1  0  0  0  0
 28 12  1  6  0  0  0
 28 29  1  0  0  0  0
 28 33  1  0  0  0  0
 29 30  1  0  0  0  0
 29 36  1  1  0  0  0
 30 31  1  0  0  0  0
 30 37  1  6  0  0  0
 31 32  1  0  0  0  0
 31 34  1  1  0  0  0
 32 33  1  0  0  0  0
 33 35  1  1  0  0  0
M  END
>  <CHROM.1>
116.44931806,156.64159070,176.37323165,172.04588446,177.63693106,81.26303899
34.01396679,7.60213627,17.77032677,-0.02175753,-0.40241163,-2.46547845

>  <Name>
1yrj_lig

>  <RI>
0

>  <Rbt.Current_Directory>
/home/itssahil/PROJECTS/Mol_Feturizer/New_Systems/rnas/1yrj

>  <Rbt.Executable>
rbdock ($Id: //depot/dev/client3/rdock/2013.1/src/exe/rbdock.cxx#4 $)

>  <Rbt.Library>
libRbt.so (2013.1, Build901 2013/11/27)

>  <Rbt.Parameter_File>
/export/apps/rDock/src/rDock_2013.1_src/data/scripts/dock_solv.prm

>  <Rbt.Receptor>
prm/blind_docking_60.prm

>  <SCORE>
-12.6898

>  <SCORE.INTER>
-11.5763

>  <SCORE.INTER.CONST>
1

>  <SCORE.INTER.POLAR>
-1.40708

>  <SCORE.INTER.ROT>
6

>  <SCORE.INTER.SOLV>
22.0839

>  <SCORE.INTER.VDW>
-17.9885

>  <SCORE.INTER.norm>
-0.312872

>  <SCORE.INTRA>
-2.83342

>  <SCORE.INTRA.DIHEDRAL>
-5.73373

>  <SCORE.INTRA.DIHEDRAL.0>
15.6389

>  <SCORE.INTRA.POLAR>
0

>  <SCORE.INTRA.POLAR.0>
0

>  <SCORE.INTRA.REPUL>
0

>  <SCORE.INTRA.REPUL.0>
0

>  <SCORE.INTRA.SOLV>
-1.84828

>  <SCORE.INTRA.SOLV.lig_0>
-90.9181

>  <SCORE.INTRA.VDW>
0.957582

>  <SCORE.INTRA.VDW.0>
-3.14158

>  <SCORE.INTRA.norm>
-0.0765789

>  <SCORE.RESTR>
1.71992

>  <SCORE.RESTR.CAVITY>
1.71992

>  <SCORE.RESTR.norm>
0.0464843

>  <SCORE.SYSTEM>
0

>  <SCORE.SYSTEM.CONST>
0

>  <SCORE.SYSTEM.DIHEDRAL>
0

>  <SCORE.SYSTEM.SOLV>
0

>  <SCORE.SYSTEM.norm>
0

>  <SCORE.heavy>
37

>  <SCORE.norm>
-0.342966

>  <RMSD>
13.978

$$$$
1yrj_lig
 OpenBabel11021811423D
libRbt.so/2013.1/901 2013/11/27
 37 40  0  0  0  0  0  0  0  0999 V2000
   31.6148    6.8988   21.5459 C   0  0  1  0  0  0  0  0  0  0  0  0
   32.6636    7.9210   22.0262 C   0  0  1  0  0  0  0  0  0  0  0  0
   33.7357    8.1850   20.9569 C   0  0  0  0  0  0  0  0  0  0  0  0
   34.3903    6.8488   20.5189 C   0  0  1  0  0  0  0  0  0  0  0  0
   33.3125    5.8783   19.9999 C   0  0  1  0  0  0  0  0  0  0  0  0
   34.0093    4.5266   19.5470 C   0  0  1  0  0  0  0  0  0  0  0  0
   35.0379    4.8191   18.4426 C   0  0  1  0  0  0  0  0  0  0  0  0
   36.0670    5.8337   18.9976 C   0  0  2  0  0  0  0  0  0  0  0  0
   34.7356    2.4433   17.5646 C   0  0  0  0  0  0  0  0  0  0  0  0
   32.0435    9.1875   22.4487 N   0  0  0  0  0  0  0  0  0  0  0  0
   35.6634    3.5436   17.9744 N   0  0  0  0  0  0  0  0  0  0  0  0
   30.6922    7.4302   20.5765 O   0  0  0  0  0  0  0  0  0  0  0  0
   32.3081    5.6874   21.0658 O   0  0  0  0  0  0  0  0  0  0  0  0
   35.4057    7.0456   19.4592 O   0  0  0  0  0  0  0  0  0  0  0  0
   34.7118    3.9718   20.6394 O   0  0  0  0  0  0  0  0  0  0  0  0
   37.0287    6.2106   18.0114 O   0  0  0  0  0  0  0  0  0  0  0  0
   36.4945    7.1005   17.0032 C   0  0  2  0  0  0  0  0  0  0  0  0
   37.0395    6.8206   15.5932 C   0  0  1  0  0  0  0  0  0  0  0  0
   38.5418    7.1953   15.4891 C   0  0  2  0  0  0  0  0  0  0  0  0
   38.7357    8.6495   15.8533 C   0  0  1  0  0  0  0  0  0  0  0  0
   38.2055    8.8924   17.2862 C   0  0  1  0  0  0  0  0  0  0  0  0
   38.3181   10.3522   17.7200 C   0  0  0  0  0  0  0  0  0  0  0  0
   40.1735    8.9743   15.7495 N   0  0  0  0  0  0  0  0  0  0  0  0
   36.7839    8.5095   17.3576 O   0  0  0  0  0  0  0  0  0  0  0  0
   36.8018    5.4400   15.2826 O   0  0  0  0  0  0  0  0  0  0  0  0
   38.9975    6.9931   14.1443 O   0  0  0  0  0  0  0  0  0  0  0  0
   39.6676   10.6746   17.9271 O   0  0  0  0  0  0  0  0  0  0  0  0
   29.9181    6.5757   19.5841 C   0  0  1  0  0  0  0  0  0  0  0  0
   28.7001    5.9954   20.3362 C   0  0  1  0  0  0  0  0  0  0  0  0
   27.8048    5.1589   19.3902 C   0  0  2  0  0  0  0  0  0  0  0  0
   27.3220    6.0273   18.2224 C   0  0  1  0  0  0  0  0  0  0  0  0
   28.5347    6.5869   17.4357 C   0  0  0  0  0  0  0  0  0  0  0  0
   29.3974    7.4239   18.3861 C   0  0  2  0  0  0  0  0  0  0  0  0
   26.4761    5.2187   17.3163 N   0  0  0  0  0  0  0  0  0  0  0  0
   30.5159    7.9463   17.6059 N   0  0  0  0  0  0  0  0  0  0  0  0
   29.1679    5.1419   21.4034 O   0  0  0  0  0  0  0  0  0  0  0  0
   26.6729    4.6633   20.1371 O   0  0  0  0  0  0  0  0  0  0  0  0
  1  2  1  0  0  0  0
  1 12  1  6  0  0  0
  1 13  1  0  0  0  0
  2  3  1  0  0  0  0
  2 10  1  6  0  0  0
  4  3  1  6  0  0  0
  4  5  1  0  0  0  0
  4 14  1  0  0  0  0
  5  6  1  0  0  0  0
  5 13  1  1  0  0  0
  6  7  1  0  0  0  0
  6 15  1  1  0  0  0
  7  8  1  0  0  0  0
  7 11  1  1  0  0  0
  8 14  1  0  0  0  0
  8 16  1  6  0  0  0
  9 11  1  0  0  0  0
 17 16  1  1  0  0  0
 17 18  1  0  0  0  0
 17 24  1  0  0  0  0
 18 19  1  0  0  0  0
 18 25  1  1  0  0  0
 19 20  1  0  0  0  0
 19 26  1  6  0  0  0
 20 21  1  0  0  0  0
 20 23  1  1  0  0  0
 21 22  1  6  0  0  0
 21 24  1  0  0  0  0
 22 27  1  0  0  0  0
 28 12  1  1  0  0  0
 28 29  1  0  0  0  0
 28 33  1  0  0  0  0
 29 30  1  0  0  0  0
 29 36  1  1  0  0  0
 30 31  1  0  0  0  0
 30 37  1  1  0  0  0
 31 32  1  0  0  0  0
 31 34  1  6  0  0  0
 32 33  1  0  0  0  0
 33 35  1  6  0  0  0
M  END
>  <CHROM.1>
156.71938450,52.20635297,73.68479950,-142.31578107,-70.79401728,80.88593658
33.75860851,6.65688875,18.62083520,-3.03844387,-0.35845871,-2.30390257

>  <Name>
1yrj_lig

>  <RI>
0

>  <Rbt.Current_Directory>
/home/itssahil/PROJECTS/Mol_Feturizer/New_Systems/rnas/1yrj

>  <Rbt.Executable>
rbdock ($Id: //depot/dev/client3/rdock/2013.1/src/exe/rbdock.cxx#4 $)

>  <Rbt.Library>
libRbt.so (2013.1, Build901 2013/11/27)

>  <Rbt.Parameter_File>
/export/apps/rDock/src/rDock_2013.1_src/data/scripts/dock_solv.prm

>  <Rbt.Receptor>
prm/blind_docking_60.prm

>  <SCORE>
-11.0091

>  <SCORE.INTER>
-9.74893

>  <SCORE.INTER.CONST>
1

>  <SCORE.INTER.POLAR>
-0.313712

>  <SCORE.INTER.ROT>
6

>  <SCORE.INTER.SOLV>
23.8247

>  <SCORE.INTER.VDW>
-20.9951

>  <SCORE.INTER.norm>
-0.263485

>  <SCORE.INTRA>
-1.26604

>  <SCORE.INTRA.DIHEDRAL>
-4.94544

>  <SCORE.INTRA.DIHEDRAL.0>
15.6389

>  <SCORE.INTRA.POLAR>
0

>  <SCORE.INTRA.POLAR.0>
0

>  <SCORE.INTRA.REPUL>
0

>  <SCORE.INTRA.REPUL.0>
0

>  <SCORE.INTRA.SOLV>
-0.68411

>  <SCORE.INTRA.SOLV.lig_0>
-90.9181

>  <SCORE.INTRA.VDW>
1.54874

>  <SCORE.INTRA.VDW.0>
-3.14158

>  <SCORE.INTRA.norm>
-0.0342173

>  <SCORE.RESTR>
0.00590913

>  <SCORE.RESTR.CAVITY>
0.00590913

>  <SCORE.RESTR.norm>
0.000159706

>  <SCORE.SYSTEM>
0

>  <SCORE.SYSTEM.CONST>
0

>  <SCORE.SYSTEM.DIHEDRAL>
0

>  <SCORE.SYSTEM.SOLV>
0

>  <SCORE.SYSTEM.norm>
0

>  <SCORE.heavy>
37

>  <SCORE.norm>
-0.297542

>  <RMSD>
14.008

$$$$
1yrj_lig
 OpenBabel11021811423D
libRbt.so/2013.1/901 2013/11/27
 37 40  0  0  0  0  0  0  0  0999 V2000
   32.5843    6.9515   20.9340 C   0  0  1  0  0  0  0  0  0  0  0  0
   33.6847    7.7202   21.6915 C   0  0  1  0  0  0  0  0  0  0  0  0
   34.6087    8.4880   20.7328 C   0  0  0  0  0  0  0  0  0  0  0  0
   35.2034    7.5193   19.6776 C   0  0  1  0  0  0  0  0  0  0  0  0
   34.0691    6.8122   18.9118 C   0  0  1  0  0  0  0  0  0  0  0  0
   34.7039    5.8384   17.8316 C   0  0  1  0  0  0  0  0  0  0  0  0
   35.5801    6.6447   16.8592 C   0  0  1  0  0  0  0  0  0  0  0  0
   36.6706    7.3728   17.6821 C   0  0  2  0  0  0  0  0  0  0  0  0
   36.0401    6.2070   14.3887 C   0  0  0  0  0  0  0  0  0  0  0  0
   33.1223    8.6352   22.6983 N   0  0  0  0  0  0  0  0  0  0  0  0
   36.1420    5.7418   15.8073 N   0  0  0  0  0  0  0  0  0  0  0  0
   31.5429    7.7981   20.4126 O   0  0  0  0  0  0  0  0  0  0  0  0
   33.2118    6.1153   19.8920 O   0  0  0  0  0  0  0  0  0  0  0  0
   36.0725    8.2192   18.7043 O   0  0  0  0  0  0  0  0  0  0  0  0
   35.5431    4.9040   18.4775 O   0  0  0  0  0  0  0  0  0  0  0  0
   37.4957    8.1991   16.8599 O   0  0  0  0  0  0  0  0  0  0  0  0
   38.8749    8.2423   17.2952 C   0  0  2  0  0  0  0  0  0  0  0  0
   39.1782    9.4146   18.2425 C   0  0  1  0  0  0  0  0  0  0  0  0
   39.1079   10.7721   17.4937 C   0  0  2  0  0  0  0  0  0  0  0  0
   40.0722   10.7681   16.3297 C   0  0  1  0  0  0  0  0  0  0  0  0
   39.7231    9.5970   15.3810 C   0  0  1  0  0  0  0  0  0  0  0  0
   40.6813    9.4879   14.1970 C   0  0  0  0  0  0  0  0  0  0  0  0
   39.9791   12.0690   15.6352 N   0  0  0  0  0  0  0  0  0  0  0  0
   39.7796    8.3258   16.1249 O   0  0  0  0  0  0  0  0  0  0  0  0
   38.2607    9.3545   19.3442 O   0  0  0  0  0  0  0  0  0  0  0  0
   39.4688   11.8349   18.3864 O   0  0  0  0  0  0  0  0  0  0  0  0
   40.3231    8.3856   13.4068 O   0  0  0  0  0  0  0  0  0  0  0  0
   30.4352    7.3112   19.4905 C   0  0  1  0  0  0  0  0  0  0  0  0
   29.5351    6.3681   20.3190 C   0  0  1  0  0  0  0  0  0  0  0  0
   28.3310    5.8679   19.4845 C   0  0  2  0  0  0  0  0  0  0  0  0
   27.5061    7.0612   18.9880 C   0  0  1  0  0  0  0  0  0  0  0  0
   28.3884    7.9979   18.1236 C   0  0  0  0  0  0  0  0  0  0  0  0
   29.5635    8.4936   18.9730 C   0  0  2  0  0  0  0  0  0  0  0  0
   26.3634    6.5765   18.1820 N   0  0  0  0  0  0  0  0  0  0  0  0
   30.3583    9.3840   18.1314 N   0  0  0  0  0  0  0  0  0  0  0  0
   30.3112    5.2254   20.7403 O   0  0  0  0  0  0  0  0  0  0  0  0
   27.5131    5.0135   20.3126 O   0  0  0  0  0  0  0  0  0  0  0  0
  1  2  1  0  0  0  0
  1 12  1  6  0  0  0
  1 13  1  0  0  0  0
  2  3  1  0  0  0  0
  2 10  1  1  0  0  0
  4  3  1  1  0  0  0
  4  5  1  0  0  0  0
  4 14  1  0  0  0  0
  5  6  1  0  0  0  0
  5 13  1  1  0  0  0
  6  7  1  0  0  0  0
  6 15  1  1  0  0  0
  7  8  1  0  0  0  0
  7 11  1  6  0  0  0
  8 14  1  0  0  0  0
  8 16  1  6  0  0  0
  9 11  1  0  0  0  0
 17 16  1  6  0  0  0
 17 18  1  0  0  0  0
 17 24  1  0  0  0  0
 18 19  1  0  0  0  0
 18 25  1  1  0  0  0
 19 20  1  0  0  0  0
 19 26  1  1  0  0  0
 20 21  1  0  0  0  0
 20 23  1  6  0  0  0
 21 22  1  6  0  0  0
 21 24  1  0  0  0  0
 22 27  1  0  0  0  0
 28 12  1  1  0  0  0
 28 29  1  0  0  0  0
 28 33  1  0  0  0  0
 29 30  1  0  0  0  0
 29 36  1  6  0  0  0
 30 31  1  0  0  0  0
 30 37  1  1  0  0  0
 31 32  1  0  0  0  0
 31 34  1  6  0  0  0
 32 33  1  0  0  0  0
 33 35  1  6  0  0  0
M  END
>  <CHROM.1>
172.43186747,132.76872441,-144.98574443,-92.98974345,178.38089994,68.07537310
34.63853375,7.84403477,18.26342096,-2.95685000,-0.37243429,-2.00653999

>  <Name>
1yrj_lig

>  <RI>
0

>  <Rbt.Current_Directory>
/home/itssahil/PROJECTS/Mol_Feturizer/New_Systems/rnas/1yrj

>  <Rbt.Executable>
rbdock ($Id: //depot/dev/client3/rdock/2013.1/src/exe/rbdock.cxx#4 $)

>  <Rbt.Library>
libRbt.so (2013.1, Build901 2013/11/27)

>  <Rbt.Parameter_File>
/export/apps/rDock/src/rDock_2013.1_src/data/scripts/dock_solv.prm

>  <Rbt.Receptor>
prm/blind_docking_60.prm

>  <SCORE>
-11.2093

>  <SCORE.INTER>
-7.62505

>  <SCORE.INTER.CONST>
1

>  <SCORE.INTER.POLAR>
0

>  <SCORE.INTER.ROT>
6

>  <SCORE.INTER.SOLV>
15.5092

>  <SCORE.INTER.VDW>
-17.8531

>  <SCORE.INTER.norm>
-0.206082

>  <SCORE.INTRA>
-3.58421

>  <SCORE.INTRA.DIHEDRAL>
-5.20005

>  <SCORE.INTRA.DIHEDRAL.0>
15.6389

>  <SCORE.INTRA.POLAR>
0

>  <SCORE.INTRA.POLAR.0>
0

>  <SCORE.INTRA.REPUL>
0

>  <SCORE.INTRA.REPUL.0>
0

>  <SCORE.INTRA.SOLV>
-2.37708

>  <SCORE.INTRA.SOLV.lig_0>
-90.9181

>  <SCORE.INTRA.VDW>
0.204358

>  <SCORE.INTRA.VDW.0>
-3.14158

>  <SCORE.INTRA.norm>
-0.0968704

>  <SCORE.RESTR>
0

>  <SCORE.RESTR.CAVITY>
0

>  <SCORE.RESTR.norm>
0

>  <SCORE.SYSTEM>
0

>  <SCORE.SYSTEM.CONST>
0

>  <SCORE.SYSTEM.DIHEDRAL>
0

>  <SCORE.SYSTEM.SOLV>
0

>  <SCORE.SYSTEM.norm>
0

>  <SCORE.heavy>
37

>  <SCORE.norm>
-0.302953

>  <RMSD>
14.015

$$$$
1yrj_lig
 OpenBabel11021811423D
libRbt.so/2013.1/901 2013/11/27
 37 40  0  0  0  0  0  0  0  0999 V2000
   31.0534    6.7473   16.2112 C   0  0  1  0  0  0  0  0  0  0  0  0
   32.0228    6.3820   15.0701 C   0  0  1  0  0  0  0  0  0  0  0  0
   33.4884    6.6206   15.4671 C   0  0  0  0  0  0  0  0  0  0  0  0
   33.6795    8.0853   15.9402 C   0  0  1  0  0  0  0  0  0  0  0  0
   32.7278    8.3896   17.1126 C   0  0  1  0  0  0  0  0  0  0  0  0
   32.9527    9.8876   17.5851 C   0  0  1  0  0  0  0  0  0  0  0  0
   34.4139   10.0786   18.0229 C   0  0  1  0  0  0  0  0  0  0  0  0
   35.3277    9.7138   16.8277 C   0  0  2  0  0  0  0  0  0  0  0  0
   35.3258   11.6325   19.8285 C   0  0  0  0  0  0  0  0  0  0  0  0
   31.8382    4.9942   14.6151 N   0  0  0  0  0  0  0  0  0  0  0  0
   34.6220   11.4748   18.5175 N   0  0  0  0  0  0  0  0  0  0  0  0
   31.0447    5.7930   17.2893 O   0  0  0  0  0  0  0  0  0  0  0  0
   31.3450    8.1197   16.6697 O   0  0  0  0  0  0  0  0  0  0  0  0
   35.0700    8.3557   16.3715 O   0  0  0  0  0  0  0  0  0  0  0  0
   32.7212   10.7617   16.5002 O   0  0  0  0  0  0  0  0  0  0  0  0
   36.7117    9.8041   17.1682 O   0  0  0  0  0  0  0  0  0  0  0  0
   37.3382    8.5140   17.3598 C   0  0  2  0  0  0  0  0  0  0  0  0
   38.5334    8.5547   18.3259 C   0  0  1  0  0  0  0  0  0  0  0  0
   39.7289    9.3254   17.7053 C   0  0  2  0  0  0  0  0  0  0  0  0
   40.1282    8.6866   16.3948 C   0  0  1  0  0  0  0  0  0  0  0  0
   38.9146    8.6874   15.4354 C   0  0  1  0  0  0  0  0  0  0  0  0
   39.2160    8.0141   14.0984 C   0  0  0  0  0  0  0  0  0  0  0  0
   41.2631    9.4438   15.8272 N   0  0  0  0  0  0  0  0  0  0  0  0
   37.7913    7.9660   16.0601 O   0  0  0  0  0  0  0  0  0  0  0  0
   38.0956    9.1368   19.5622 O   0  0  0  0  0  0  0  0  0  0  0  0
   40.8491    9.2796   18.5996 O   0  0  0  0  0  0  0  0  0  0  0  0
   38.0163    7.5877   13.5096 O   0  0  0  0  0  0  0  0  0  0  0  0
   30.7803    6.1566   18.7427 C   0  0  1  0  0  0  0  0  0  0  0  0
   29.2489    6.2632   18.9138 C   0  0  1  0  0  0  0  0  0  0  0  0
   28.8699    6.5658   20.3839 C   0  0  2  0  0  0  0  0  0  0  0  0
   29.4145    5.4654   21.3023 C   0  0  1  0  0  0  0  0  0  0  0  0
   30.9560    5.3720   21.1682 C   0  0  0  0  0  0  0  0  0  0  0  0
   31.3076    5.0562   19.7106 C   0  0  2  0  0  0  0  0  0  0  0  0
   29.0583    5.7666   22.7068 N   0  0  0  0  0  0  0  0  0  0  0  0
   32.7625    4.9590   19.6294 N   0  0  0  0  0  0  0  0  0  0  0  0
   28.7548    7.3339   18.0800 O   0  0  0  0  0  0  0  0  0  0  0  0
   27.4314    6.6298   20.4904 O   0  0  0  0  0  0  0  0  0  0  0  0
  1  2  1  0  0  0  0
  1 12  1  1  0  0  0
  1 13  1  0  0  0  0
  2  3  1  0  0  0  0
  2 10  1  1  0  0  0
  4  3  1  1  0  0  0
  4  5  1  0  0  0  0
  4 14  1  0  0  0  0
  5  6  1  0  0  0  0
  5 13  1  6  0  0  0
  6  7  1  0  0  0  0
  6 15  1  6  0  0  0
  7  8  1  0  0  0  0
  7 11  1  6  0  0  0
  8 14  1  0  0  0  0
  8 16  1  1  0  0  0
  9 11  1  0  0  0  0
 17 16  1  6  0  0  0
 17 18  1  0  0  0  0
 17 24  1  0  0  0  0
 18 19  1  0  0  0  0
 18 25  1  1  0  0  0
 19 20  1  0  0  0  0
 19 26  1  1  0  0  0
 20 21  1  0  0  0  0
 20 23  1  6  0  0  0
 21 22  1  6  0  0  0
 21 24  1  0  0  0  0
 22 27  1  0  0  0  0
 28 12  1  6  0  0  0
 28 29  1  0  0  0  0
 28 33  1  0  0  0  0
 29 30  1  0  0  0  0
 29 36  1  6  0  0  0
 30 31  1  0  0  0  0
 30 37  1  6  0  0  0
 31 32  1  0  0  0  0
 31 34  1  1  0  0  0
 32 33  1  0  0  0  0
 33 35  1  1  0  0  0
M  END
>  <CHROM.1>
148.69238861,131.45999085,104.69010906,-152.53250386,157.32484753,81.20674718
34.14844589,7.90659453,17.64178602,2.94552866,0.35877135,1.29452370

>  <Name>
1yrj_lig

>  <RI>
0

>  <Rbt.Current_Directory>
/home/itssahil/PROJECTS/Mol_Feturizer/New_Systems/rnas/1yrj

>  <Rbt.Executable>
rbdock ($Id: //depot/dev/client3/rdock/2013.1/src/exe/rbdock.cxx#4 $)

>  <Rbt.Library>
libRbt.so (2013.1, Build901 2013/11/27)

>  <Rbt.Parameter_File>
/export/apps/rDock/src/rDock_2013.1_src/data/scripts/dock_solv.prm

>  <Rbt.Receptor>
prm/blind_docking_60.prm

>  <SCORE>
4.0527

>  <SCORE.INTER>
1.98229

>  <SCORE.INTER.CONST>
1

>  <SCORE.INTER.POLAR>
0

>  <SCORE.INTER.ROT>
6

>  <SCORE.INTER.SOLV>
25.0142

>  <SCORE.INTER.VDW>
-14.6165

>  <SCORE.INTER.norm>
0.0535753

>  <SCORE.INTRA>
1.96678

>  <SCORE.INTRA.DIHEDRAL>
2.16704

>  <SCORE.INTRA.DIHEDRAL.0>
15.6389

>  <SCORE.INTRA.POLAR>
0

>  <SCORE.INTRA.POLAR.0>
0

>  <SCORE.INTRA.REPUL>
0

>  <SCORE.INTRA.REPUL.0>
0

>  <SCORE.INTRA.SOLV>
-2.06057

>  <SCORE.INTRA.SOLV.lig_0>
-90.9181

>  <SCORE.INTRA.VDW>
1.91354

>  <SCORE.INTRA.VDW.0>
-3.14158

>  <SCORE.INTRA.norm>
0.0531561

>  <SCORE.RESTR>
0.103639

>  <SCORE.RESTR.CAVITY>
0.103639

>  <SCORE.RESTR.norm>
0.00280106

>  <SCORE.SYSTEM>
0

>  <SCORE.SYSTEM.CONST>
0

>  <SCORE.SYSTEM.DIHEDRAL>
0

>  <SCORE.SYSTEM.SOLV>
0

>  <SCORE.SYSTEM.norm>
0

>  <SCORE.heavy>
37

>  <SCORE.norm>
0.109532

>  <RMSD>
14.017

$$$$
1yrj_lig
 OpenBabel11021811423D
libRbt.so/2013.1/901 2013/11/27
 37 40  0  0  0  0  0  0  0  0999 V2000
   36.1475    6.8481   15.4504 C   0  0  1  0  0  0  0  0  0  0  0  0
   35.2036    6.6445   14.2491 C   0  0  1  0  0  0  0  0  0  0  0  0
   33.8051    7.2231   14.5169 C   0  0  0  0  0  0  0  0  0  0  0  0
   33.2199    6.6184   15.8197 C   0  0  1  0  0  0  0  0  0  0  0  0
   34.1708    6.8895   17.0009 C   0  0  1  0  0  0  0  0  0  0  0  0
   33.5432    6.2728   18.3215 C   0  0  1  0  0  0  0  0  0  0  0  0
   32.1694    6.9092   18.5878 C   0  0  1  0  0  0  0  0  0  0  0  0
   31.2704    6.6512   17.3543 C   0  0  2  0  0  0  0  0  0  0  0  0
   32.0326    7.0204   21.1325 C   0  0  0  0  0  0  0  0  0  0  0  0
   35.7605    7.2119   13.0102 N   0  0  0  0  0  0  0  0  0  0  0  0
   31.5930    6.3701   19.8585 N   0  0  0  0  0  0  0  0  0  0  0  0
   36.6040    8.2052   15.6027 O   0  0  0  0  0  0  0  0  0  0  0  0
   35.4957    6.3279   16.6682 O   0  0  0  0  0  0  0  0  0  0  0  0
   31.8861    7.1743   16.1433 O   0  0  0  0  0  0  0  0  0  0  0  0
   33.3368    4.8875   18.1404 O   0  0  0  0  0  0  0  0  0  0  0  0
   29.9883    7.2652   17.4916 O   0  0  0  0  0  0  0  0  0  0  0  0
   28.9004    6.3123   17.5360 C   0  0  2  0  0  0  0  0  0  0  0  0
   27.5119    6.9724   17.5307 C   0  0  1  0  0  0  0  0  0  0  0  0
   27.2438    7.7229   18.8623 C   0  0  2  0  0  0  0  0  0  0  0  0
   27.3718    6.7671   20.0264 C   0  0  1  0  0  0  0  0  0  0  0  0
   28.7873    6.1427   20.0214 C   0  0  1  0  0  0  0  0  0  0  0  0
   28.9890    5.1236   21.1405 C   0  0  0  0  0  0  0  0  0  0  0  0
   27.1161    7.5104   21.2776 N   0  0  0  0  0  0  0  0  0  0  0  0
   29.0185    5.4549   18.7385 O   0  0  0  0  0  0  0  0  0  0  0  0
   27.4289    7.8414   16.3919 O   0  0  0  0  0  0  0  0  0  0  0  0
   25.9146    8.2616   18.8534 O   0  0  0  0  0  0  0  0  0  0  0  0
   28.9644    5.7803   22.3798 O   0  0  0  0  0  0  0  0  0  0  0  0
   37.6814    8.8405   14.7368 C   0  0  1  0  0  0  0  0  0  0  0  0
   37.8033   10.3174   15.1725 C   0  0  1  0  0  0  0  0  0  0  0  0
   38.9279   11.0401   14.3920 C   0  0  2  0  0  0  0  0  0  0  0  0
   40.2653   10.3251   14.6185 C   0  0  1  0  0  0  0  0  0  0  0  0
   40.1686    8.8504   14.1510 C   0  0  0  0  0  0  0  0  0  0  0  0
   39.0619    8.1506   14.9469 C   0  0  2  0  0  0  0  0  0  0  0  0
   41.3337   11.0144   13.8609 N   0  0  0  0  0  0  0  0  0  0  0  0
   39.0144    6.7638   14.4916 N   0  0  0  0  0  0  0  0  0  0  0  0
   36.5530   10.9911   14.9100 O   0  0  0  0  0  0  0  0  0  0  0  0
   39.0137   12.4049   14.8553 O   0  0  0  0  0  0  0  0  0  0  0  0
  1  2  1  0  0  0  0
  1 12  1  1  0  0  0
  1 13  1  0  0  0  0
  2  3  1  0  0  0  0
  2 10  1  6  0  0  0
  4  3  1  6  0  0  0
  4  5  1  0  0  0  0
  4 14  1  0  0  0  0
  5  6  1  0  0  0  0
  5 13  1  6  0  0  0
  6  7  1  0  0  0  0
  6 15  1  6  0  0  0
  7  8  1  0  0  0  0
  7 11  1  1  0  0  0
  8 14  1  0  0  0  0
  8 16  1  1  0  0  0
  9 11  1  0  0  0  0
 17 16  1  1  0  0  0
 17 18  1  0  0  0  0
 17 24  1  0  0  0  0
 18 19  1  0  0  0  0
 18 25  1  6  0  0  0
 19 20  1  0  0  0  0
 19 26  1  6  0  0  0
 20 21  1  0  0  0  0
 20 23  1  1  0  0  0
 21 22  1  1  0  0  0
 21 24  1  0  0  0  0
 22 27  1  0  0  0  0
 28 12  1  1  0  0  0
 28 29  1  0  0  0  0
 28 33  1  0  0  0  0
 29 30  1  0  0  0  0
 29 36  1  6  0  0  0
 30 31  1  0  0  0  0
 30 37  1  1  0  0  0
 31 32  1  0  0  0  0
 31 34  1  6  0  0  0
 32 33  1  0  0  0  0
 33 35  1  6  0  0  0
M  END
>  <CHROM.1>
-76.42347615,83.80519662,-116.06914944,-173.77599270,-67.19604562,176.57495345
33.27764291,7.59967685,17.00811585,-0.48914228,-0.11809458,2.29997333

>  <Name>
1yrj_lig

>  <RI>
224

>  <Rbt.Current_Directory>
/home/itssahil/PROJECTS/Mol_Feturizer/New_Systems/rnas/1yrj

>  <Rbt.Executable>
rbdock ($Id: //depot/dev/client3/rdock/2013.1/src/exe/rbdock.cxx#4 $)

>  <Rbt.Library>
libRbt.so (2013.1, Build901 2013/11/27)

>  <Rbt.Parameter_File>
/export/apps/rDock/src/rDock_2013.1_src/data/scripts/dock_solv.prm

>  <Rbt.Receptor>
prm/blind_docking_80.prm

>  <SCORE>
-11.9973

>  <SCORE.INTER>
-10.2511

>  <SCORE.INTER.CONST>
1

>  <SCORE.INTER.POLAR>
-0.87066

>  <SCORE.INTER.ROT>
6

>  <SCORE.INTER.SOLV>
18.1385

>  <SCORE.INTER.VDW>
-17.578

>  <SCORE.INTER.norm>
-0.277057

>  <SCORE.INTRA>
-1.75179

>  <SCORE.INTRA.DIHEDRAL>
-6.3679

>  <SCORE.INTRA.DIHEDRAL.0>
15.6389

>  <SCORE.INTRA.POLAR>
0

>  <SCORE.INTRA.POLAR.0>
0

>  <SCORE.INTRA.REPUL>
0

>  <SCORE.INTRA.REPUL.0>
0

>  <SCORE.INTRA.SOLV>
3.57114

>  <SCORE.INTRA.SOLV.lig_0>
-90.9181

>  <SCORE.INTRA.VDW>
-0.353414

>  <SCORE.INTRA.VDW.0>
-3.14158

>  <SCORE.INTRA.norm>
-0.0473458

>  <SCORE.RESTR>
0.00564097

>  <SCORE.RESTR.CAVITY>
0.00564097

>  <SCORE.RESTR.norm>
0.000152459

>  <SCORE.SYSTEM>
0

>  <SCORE.SYSTEM.CONST>
0

>  <SCORE.SYSTEM.DIHEDRAL>
0

>  <SCORE.SYSTEM.SOLV>
0

>  <SCORE.SYSTEM.norm>
0

>  <SCORE.heavy>
37

>  <SCORE.norm>
-0.324251

>  <RMSD>
14.018

$$$$
1yrj_lig
 OpenBabel11021811423D
libRbt.so/2013.1/901 2013/11/27
 37 40  0  0  0  0  0  0  0  0999 V2000
   32.7190    5.1780   19.8735 C   0  0  1  0  0  0  0  0  0  0  0  0
   33.7195    5.3745   21.0293 C   0  0  1  0  0  0  0  0  0  0  0  0
   34.5415    6.6623   20.8608 C   0  0  0  0  0  0  0  0  0  0  0  0
   35.2471    6.6660   19.4796 C   0  0  1  0  0  0  0  0  0  0  0  0
   34.2053    6.5183   18.3545 C   0  0  1  0  0  0  0  0  0  0  0  0
   34.9512    6.5381   16.9540 C   0  0  1  0  0  0  0  0  0  0  0  0
   35.7210    7.8594   16.7961 C   0  0  1  0  0  0  0  0  0  0  0  0
   36.7169    7.9819   17.9749 C   0  0  2  0  0  0  0  0  0  0  0  0
   35.5046    8.1356   14.2695 C   0  0  0  0  0  0  0  0  0  0  0  0
   33.0524    5.3644   22.3415 N   0  0  0  0  0  0  0  0  0  0  0  0
   36.3860    7.9077   15.4571 N   0  0  0  0  0  0  0  0  0  0  0  0
   31.5814    6.0583   19.9386 O   0  0  0  0  0  0  0  0  0  0  0  0
   33.4410    5.2767   18.5899 O   0  0  0  0  0  0  0  0  0  0  0  0
   36.0228    7.9066   19.2522 O   0  0  0  0  0  0  0  0  0  0  0  0
   35.8989    5.4919   16.9121 O   0  0  0  0  0  0  0  0  0  0  0  0
   37.4339    9.2165   17.9406 O   0  0  0  0  0  0  0  0  0  0  0  0
   38.7527    9.0953   17.3579 C   0  0  2  0  0  0  0  0  0  0  0  0
   39.7654   10.1019   17.9279 C   0  0  1  0  0  0  0  0  0  0  0  0
   39.4262   11.5496   17.4838 C   0  0  2  0  0  0  0  0  0  0  0  0
   39.3911   11.6299   15.9748 C   0  0  1  0  0  0  0  0  0  0  0  0
   38.3434   10.6282   15.4341 C   0  0  1  0  0  0  0  0  0  0  0  0
   38.2754   10.6079   13.9087 C   0  0  0  0  0  0  0  0  0  0  0  0
   39.0618   13.0162   15.5835 N   0  0  0  0  0  0  0  0  0  0  0  0
   38.6818    9.2674   15.8882 O   0  0  0  0  0  0  0  0  0  0  0  0
   39.7857    9.9631   19.3560 O   0  0  0  0  0  0  0  0  0  0  0  0
   40.4304   12.4511   17.9693 O   0  0  0  0  0  0  0  0  0  0  0  0
   39.5025   10.1654   13.3927 O   0  0  0  0  0  0  0  0  0  0  0  0
   30.3458    5.9146   19.0629 C   0  0  1  0  0  0  0  0  0  0  0  0
   29.1211    6.2365   19.9475 C   0  0  1  0  0  0  0  0  0  0  0  0
   27.8092    6.1835   19.1275 C   0  0  2  0  0  0  0  0  0  0  0  0
   27.8786    7.1791   17.9634 C   0  0  1  0  0  0  0  0  0  0  0  0
   29.0826    6.8453   17.0460 C   0  0  0  0  0  0  0  0  0  0  0  0
   30.3704    6.9194   17.8731 C   0  0  2  0  0  0  0  0  0  0  0  0
   26.6261    7.1152   17.1775 N   0  0  0  0  0  0  0  0  0  0  0  0
   31.4794    6.6173   16.9723 N   0  0  0  0  0  0  0  0  0  0  0  0
   29.0397    5.2638   21.0119 O   0  0  0  0  0  0  0  0  0  0  0  0
   26.7038    6.5154   19.9950 O   0  0  0  0  0  0  0  0  0  0  0  0
  1  2  1  0  0  0  0
  1 12  1  6  0  0  0
  1 13  1  0  0  0  0
  2  3  1  0  0  0  0
  2 10  1  1  0  0  0
  4  3  1  1  0  0  0
  4  5  1  0  0  0  0
  4 14  1  0  0  0  0
  5  6  1  0  0  0  0
  5 13  1  1  0  0  0
  6  7  1  0  0  0  0
  6 15  1  1  0  0  0
  7  8  1  0  0  0  0
  7 11  1  6  0  0  0
  8 14  1  0  0  0  0
  8 16  1  6  0  0  0
  9 11  1  0  0  0  0
 17 16  1  1  0  0  0
 17 18  1  0  0  0  0
 17 24  1  0  0  0  0
 18 19  1  0  0  0  0
 18 25  1  1  0  0  0
 19 20  1  0  0  0  0
 19 26  1  6  0  0  0
 20 21  1  0  0  0  0
 20 23  1  1  0  0  0
 21 22  1  6  0  0  0
 21 24  1  0  0  0  0
 22 27  1  0  0  0  0
 28 12  1  1  0  0  0
 28 29  1  0  0  0  0
 28 33  1  0  0  0  0
 29 30  1  0  0  0  0
 29 36  1  1  0  0  0
 30 31  1  0  0  0  0
 30 37  1  1  0  0  0
 31 32  1  0  0  0  0
 31 34  1  6  0  0  0
 32 33  1  0  0  0  0
 33 35  1  6  0  0  0
M  END
>  <CHROM.1>
-169.39120362,73.50163717,-98.48631745,-150.11157926,63.44605349,140.88466997
34.55375841,7.88424974,17.90216905,-2.71634930,-0.26678241,-1.11226158

>  <Name>
1yrj_lig

>  <RI>
0

>  <Rbt.Current_Directory>
/home/itssahil/PROJECTS/Mol_Feturizer/New_Systems/rnas/1yrj

>  <Rbt.Executable>
rbdock ($Id: //depot/dev/client3/rdock/2013.1/src/exe/rbdock.cxx#4 $)

>  <Rbt.Library>
libRbt.so (2013.1, Build901 2013/11/27)

>  <Rbt.Parameter_File>
/export/apps/rDock/src/rDock_2013.1_src/data/scripts/dock_solv.prm

>  <Rbt.Receptor>
prm/blind_docking_60.prm

>  <SCORE>
-7.23675

>  <SCORE.INTER>
-7.29275

>  <SCORE.INTER.CONST>
1

>  <SCORE.INTER.POLAR>
-0.238137

>  <SCORE.INTER.ROT>
6

>  <SCORE.INTER.SOLV>
14.8004

>  <SCORE.INTER.VDW>
-16.6015

>  <SCORE.INTER.norm>
-0.197101

>  <SCORE.INTRA>
-0.220641

>  <SCORE.INTRA.DIHEDRAL>
-0.87719

>  <SCORE.INTRA.DIHEDRAL.0>
15.6389

>  <SCORE.INTRA.POLAR>
0

>  <SCORE.INTRA.POLAR.0>
0

>  <SCORE.INTRA.REPUL>
0

>  <SCORE.INTRA.REPUL.0>
0

>  <SCORE.INTRA.SOLV>
2.176

>  <SCORE.INTRA.SOLV.lig_0>
-90.9181

>  <SCORE.INTRA.VDW>
-0.870044

>  <SCORE.INTRA.VDW.0>
-3.14158

>  <SCORE.INTRA.norm>
-0.00596327

>  <SCORE.RESTR>
0.276642

>  <SCORE.RESTR.CAVITY>
0.276642

>  <SCORE.RESTR.norm>
0.0074768

>  <SCORE.SYSTEM>
0

>  <SCORE.SYSTEM.CONST>
0

>  <SCORE.SYSTEM.DIHEDRAL>
0

>  <SCORE.SYSTEM.SOLV>
0

>  <SCORE.SYSTEM.norm>
0

>  <SCORE.heavy>
37

>  <SCORE.norm>
-0.195588

>  <RMSD>
14.032

$$$$
1yrj_lig
 OpenBabel11021811423D
libRbt.so/2013.1/901 2013/11/27
 37 40  0  0  0  0  0  0  0  0999 V2000
   32.5581    6.7088   21.0077 C   0  0  1  0  0  0  0  0  0  0  0  0
   33.6684    7.5058   21.7199 C   0  0  1  0  0  0  0  0  0  0  0  0
   34.5423    8.2840   20.7234 C   0  0  0  0  0  0  0  0  0  0  0  0
   35.1192    7.3187   19.6552 C   0  0  1  0  0  0  0  0  0  0  0  0
   33.9734    6.5825   18.9354 C   0  0  1  0  0  0  0  0  0  0  0  0
   34.5895    5.6128   17.8409 C   0  0  1  0  0  0  0  0  0  0  0  0
   35.4144    6.4284   16.8320 C   0  0  1  0  0  0  0  0  0  0  0  0
   36.5180    7.1851   17.6103 C   0  0  2  0  0  0  0  0  0  0  0  0
   36.1461    6.1226   14.4076 C   0  0  0  0  0  0  0  0  0  0  0  0
   33.1232    8.4177   22.7389 N   0  0  0  0  0  0  0  0  0  0  0  0
   35.9572    5.5282   15.7679 N   0  0  0  0  0  0  0  0  0  0  0  0
   31.4819    7.5300   20.5169 O   0  0  0  0  0  0  0  0  0  0  0  0
   33.1654    5.8768   19.9505 O   0  0  0  0  0  0  0  0  0  0  0  0
   35.9391    8.0278   18.6465 O   0  0  0  0  0  0  0  0  0  0  0  0
   35.4697    4.7008   18.4639 O   0  0  0  0  0  0  0  0  0  0  0  0
   37.2967    8.0209   16.7532 O   0  0  0  0  0  0  0  0  0  0  0  0
   38.3256    8.7577   17.4546 C   0  0  2  0  0  0  0  0  0  0  0  0
   37.9899   10.2465   17.6397 C   0  0  1  0  0  0  0  0  0  0  0  0
   38.0209   11.0002   16.2834 C   0  0  2  0  0  0  0  0  0  0  0  0
   39.3774   10.8391   15.6362 C   0  0  1  0  0  0  0  0  0  0  0  0
   39.6728    9.3337   15.4367 C   0  0  1  0  0  0  0  0  0  0  0  0
   41.0501    9.0757   14.8299 C   0  0  0  0  0  0  0  0  0  0  0  0
   39.3743   11.5621   14.3476 N   0  0  0  0  0  0  0  0  0  0  0  0
   39.6171    8.6434   16.7378 O   0  0  0  0  0  0  0  0  0  0  0  0
   36.7126   10.3449   18.2861 O   0  0  0  0  0  0  0  0  0  0  0  0
   37.7782   12.3967   16.5017 O   0  0  0  0  0  0  0  0  0  0  0  0
   42.0422    9.4826   15.7344 O   0  0  0  0  0  0  0  0  0  0  0  0
   30.4322    7.0503   19.5258 C   0  0  1  0  0  0  0  0  0  0  0  0
   29.3644    6.2782   20.3319 C   0  0  1  0  0  0  0  0  0  0  0  0
   28.2090    5.8026   19.4180 C   0  0  2  0  0  0  0  0  0  0  0  0
   27.5595    7.0066   18.7254 C   0  0  1  0  0  0  0  0  0  0  0  0
   28.6127    7.7701   17.8825 C   0  0  0  0  0  0  0  0  0  0  0  0
   29.7374    8.2453   18.8083 C   0  0  2  0  0  0  0  0  0  0  0  0
   26.4635    6.5438   17.8451 N   0  0  0  0  0  0  0  0  0  0  0  0
   30.6972    8.9731   17.9824 N   0  0  0  0  0  0  0  0  0  0  0  0
   29.9782    5.1209   20.9400 O   0  0  0  0  0  0  0  0  0  0  0  0
   27.2313    5.1112   20.2247 O   0  0  0  0  0  0  0  0  0  0  0  0
  1  2  1  0  0  0  0
  1 12  1  6  0  0  0
  1 13  1  0  0  0  0
  2  3  1  0  0  0  0
  2 10  1  1  0  0  0
  4  3  1  1  0  0  0
  4  5  1  0  0  0  0
  4 14  1  0  0  0  0
  5  6  1  0  0  0  0
  5 13  1  1  0  0  0
  6  7  1  0  0  0  0
  6 15  1  1  0  0  0
  7  8  1  0  0  0  0
  7 11  1  6  0  0  0
  8 14  1  0  0  0  0
  8 16  1  6  0  0  0
  9 11  1  0  0  0  0
 17 16  1  6  0  0  0
 17 18  1  0  0  0  0
 17 24  1  0  0  0  0
 18 19  1  0  0  0  0
 18 25  1  6  0  0  0
 19 20  1  0  0  0  0
 19 26  1  1  0  0  0
 20 21  1  0  0  0  0
 20 23  1  6  0  0  0
 21 22  1  1  0  0  0
 21 24  1  0  0  0  0
 22 27  1  0  0  0  0
 28 12  1  1  0  0  0
 28 29  1  0  0  0  0
 28 33  1  0  0  0  0
 29 30  1  0  0  0  0
 29 36  1  6  0  0  0
 30 31  1  0  0  0  0
 30 37  1  1  0  0  0
 31 32  1  0  0  0  0
 31 34  1  6  0  0  0
 32 33  1  0  0  0  0
 33 35  1  6  0  0  0
M  END
>  <CHROM.1>
165.95456780,149.25909546,179.14933672,-105.05271412,65.57414419,81.98365569
34.45401577,7.81834795,18.16212566,-2.71366532,-0.14540881,-1.17907098

>  <Name>
1yrj_lig

>  <RI>
0

>  <Rbt.Current_Directory>
/home/itssahil/PROJECTS/Mol_Feturizer/New_Systems/rnas/1yrj

>  <Rbt.Executable>
rbdock ($Id: //depot/dev/client3/rdock/2013.1/src/exe/rbdock.cxx#4 $)

>  <Rbt.Library>
libRbt.so (2013.1, Build901 2013/11/27)

>  <Rbt.Parameter_File>
/export/apps/rDock/src/rDock_2013.1_src/data/scripts/dock_solv.prm

>  <Rbt.Receptor>
prm/blind_docking_60.prm

>  <SCORE>
-8.39357

>  <SCORE.INTER>
-5.60918

>  <SCORE.INTER.CONST>
1

>  <SCORE.INTER.POLAR>
0

>  <SCORE.INTER.ROT>
6

>  <SCORE.INTER.SOLV>
14.2567

>  <SCORE.INTER.VDW>
-16.0917

>  <SCORE.INTER.norm>
-0.151599

>  <SCORE.INTRA>
-2.90434

>  <SCORE.INTRA.DIHEDRAL>
-5.62046

>  <SCORE.INTRA.DIHEDRAL.0>
15.6389

>  <SCORE.INTRA.POLAR>
0

>  <SCORE.INTRA.POLAR.0>
0

>  <SCORE.INTRA.REPUL>
0

>  <SCORE.INTRA.REPUL.0>
0

>  <SCORE.INTRA.SOLV>
-1.55316

>  <SCORE.INTRA.SOLV.lig_0>
-90.9181

>  <SCORE.INTRA.VDW>
0.682475

>  <SCORE.INTRA.VDW.0>
-3.14158

>  <SCORE.INTRA.norm>
-0.0784956

>  <SCORE.RESTR>
0.119948

>  <SCORE.RESTR.CAVITY>
0.119948

>  <SCORE.RESTR.norm>
0.00324182

>  <SCORE.SYSTEM>
0

>  <SCORE.SYSTEM.CONST>
0

>  <SCORE.SYSTEM.DIHEDRAL>
0

>  <SCORE.SYSTEM.SOLV>
0

>  <SCORE.SYSTEM.norm>
0

>  <SCORE.heavy>
37

>  <SCORE.norm>
-0.226853

>  <RMSD>
14.049

$$$$
1yrj_lig
 OpenBabel11021811423D
libRbt.so/2013.1/901 2013/11/27
 37 40  0  0  0  0  0  0  0  0999 V2000
   36.0601    7.3310   15.1635 C   0  0  1  0  0  0  0  0  0  0  0  0
   35.0001    6.8287   14.1638 C   0  0  1  0  0  0  0  0  0  0  0  0
   33.5895    6.8376   14.7740 C   0  0  0  0  0  0  0  0  0  0  0  0
   33.5746    6.0186   16.0911 C   0  0  1  0  0  0  0  0  0  0  0  0
   34.6124    6.5868   17.0776 C   0  0  1  0  0  0  0  0  0  0  0  0
   34.5675    5.7404   18.4191 C   0  0  1  0  0  0  0  0  0  0  0  0
   33.1584    5.8121   19.0295 C   0  0  1  0  0  0  0  0  0  0  0  0
   32.1510    5.2770   17.9831 C   0  0  2  0  0  0  0  0  0  0  0  0
   33.6469    5.7615   21.5326 C   0  0  0  0  0  0  0  0  0  0  0  0
   35.0173    7.6005   12.9104 N   0  0  0  0  0  0  0  0  0  0  0  0
   33.1209    5.0583   20.3210 N   0  0  0  0  0  0  0  0  0  0  0  0
   36.0269    8.7551   15.3735 O   0  0  0  0  0  0  0  0  0  0  0  0
   35.9353    6.5683   16.4210 O   0  0  0  0  0  0  0  0  0  0  0  0
   32.2437    6.0288   16.7399 O   0  0  0  0  0  0  0  0  0  0  0  0
   34.8306    4.3839   18.1272 O   0  0  0  0  0  0  0  0  0  0  0  0
   30.8032    5.3661   18.4468 O   0  0  0  0  0  0  0  0  0  0  0  0
   30.3481    6.7284   18.6217 C   0  0  2  0  0  0  0  0  0  0  0  0
   29.6902    6.9802   19.9883 C   0  0  1  0  0  0  0  0  0  0  0  0
   28.3286    6.2439   20.0982 C   0  0  2  0  0  0  0  0  0  0  0  0
   27.4130    6.6859   18.9797 C   0  0  1  0  0  0  0  0  0  0  0  0
   28.0895    6.3927   17.6196 C   0  0  1  0  0  0  0  0  0  0  0  0
   27.2512    6.8538   16.4294 C   0  0  0  0  0  0  0  0  0  0  0  0
   26.1292    5.9657   19.1082 N   0  0  0  0  0  0  0  0  0  0  0  0
   29.3869    7.0891   17.5537 O   0  0  0  0  0  0  0  0  0  0  0  0
   30.6095    6.5768   21.0136 O   0  0  0  0  0  0  0  0  0  0  0  0
   27.7087    6.5601   21.3523 O   0  0  0  0  0  0  0  0  0  0  0  0
   26.0756    6.0913   16.3634 O   0  0  0  0  0  0  0  0  0  0  0  0
   36.9873    9.5009   16.2877 C   0  0  1  0  0  0  0  0  0  0  0  0
   38.3883    9.4159   15.6427 C   0  0  1  0  0  0  0  0  0  0  0  0
   39.4328   10.2067   16.4673 C   0  0  2  0  0  0  0  0  0  0  0  0
   39.0073   11.6753   16.5810 C   0  0  1  0  0  0  0  0  0  0  0  0
   37.6179   11.7779   17.2607 C   0  0  0  0  0  0  0  0  0  0  0  0
   36.5976   11.0029   16.4203 C   0  0  2  0  0  0  0  0  0  0  0  0
   40.0042   12.4228   17.3796 N   0  0  0  0  0  0  0  0  0  0  0  0
   35.3026   11.1382   17.0818 N   0  0  0  0  0  0  0  0  0  0  0  0
   38.7975    8.0320   15.5849 O   0  0  0  0  0  0  0  0  0  0  0  0
   40.7139   10.1141   15.8079 O   0  0  0  0  0  0  0  0  0  0  0  0
  1  2  1  0  0  0  0
  1 12  1  1  0  0  0
  1 13  1  0  0  0  0
  2  3  1  0  0  0  0
  2 10  1  6  0  0  0
  4  3  1  6  0  0  0
  4  5  1  0  0  0  0
  4 14  1  0  0  0  0
  5  6  1  0  0  0  0
  5 13  1  6  0  0  0
  6  7  1  0  0  0  0
  6 15  1  6  0  0  0
  7  8  1  0  0  0  0
  7 11  1  1  0  0  0
  8 14  1  0  0  0  0
  8 16  1  1  0  0  0
  9 11  1  0  0  0  0
 17 16  1  1  0  0  0
 17 18  1  0  0  0  0
 17 24  1  0  0  0  0
 18 19  1  0  0  0  0
 18 25  1  1  0  0  0
 19 20  1  0  0  0  0
 19 26  1  1  0  0  0
 20 21  1  0  0  0  0
 20 23  1  6  0  0  0
 21 22  1  6  0  0  0
 21 24  1  0  0  0  0
 22 27  1  0  0  0  0
 28 12  1  6  0  0  0
 28 29  1  0  0  0  0
 28 33  1  0  0  0  0
 29 30  1  0  0  0  0
 29 36  1  1  0  0  0
 30 31  1  0  0  0  0
 30 37  1  6  0  0  0
 31 32  1  0  0  0  0
 31 34  1  1  0  0  0
 32 33  1  0  0  0  0
 33 35  1  1  0  0  0
M  END
>  <CHROM.1>
-178.62926588,80.79571467,65.77480787,-130.36253405,-66.17491640,67.72688269
33.43822160,7.46618183,17.42651820,0.27325665,-0.35057616,-1.53135674

>  <Name>
1yrj_lig

>  <RI>
0

>  <Rbt.Current_Directory>
/home/itssahil/PROJECTS/Mol_Feturizer/New_Systems/rnas/1yrj

>  <Rbt.Executable>
rbdock ($Id: //depot/dev/client3/rdock/2013.1/src/exe/rbdock.cxx#4 $)

>  <Rbt.Library>
libRbt.so (2013.1, Build901 2013/11/27)

>  <Rbt.Parameter_File>
/export/apps/rDock/src/rDock_2013.1_src/data/scripts/dock_solv.prm

>  <Rbt.Receptor>
prm/blind_docking_60.prm

>  <SCORE>
-14.0824

>  <SCORE.INTER>
-10.5707

>  <SCORE.INTER.CONST>
1

>  <SCORE.INTER.POLAR>
-0.725257

>  <SCORE.INTER.ROT>
6

>  <SCORE.INTER.SOLV>
13.1489

>  <SCORE.INTER.VDW>
-16.6126

>  <SCORE.INTER.norm>
-0.285695

>  <SCORE.INTRA>
-3.51246

>  <SCORE.INTRA.DIHEDRAL>
-7.95511

>  <SCORE.INTRA.DIHEDRAL.0>
15.6389

>  <SCORE.INTRA.POLAR>
0

>  <SCORE.INTRA.POLAR.0>
0

>  <SCORE.INTRA.REPUL>
0

>  <SCORE.INTRA.REPUL.0>
0

>  <SCORE.INTRA.SOLV>
-0.537299

>  <SCORE.INTRA.SOLV.lig_0>
-90.9181

>  <SCORE.INTRA.VDW>
0.733745

>  <SCORE.INTRA.VDW.0>
-3.14158

>  <SCORE.INTRA.norm>
-0.0949314

>  <SCORE.RESTR>
0.000738007

>  <SCORE.RESTR.CAVITY>
0.000738007

>  <SCORE.RESTR.norm>
1.99461e-05

>  <SCORE.SYSTEM>
0

>  <SCORE.SYSTEM.CONST>
0

>  <SCORE.SYSTEM.DIHEDRAL>
0

>  <SCORE.SYSTEM.SOLV>
0

>  <SCORE.SYSTEM.norm>
0

>  <SCORE.heavy>
37

>  <SCORE.norm>
-0.380606

>  <RMSD>
14.050

$$$$
1yrj_lig
 OpenBabel11021811423D
libRbt.so/2013.1/901 2013/11/27
 37 40  0  0  0  0  0  0  0  0999 V2000
   36.0658   11.2758   17.3444 C   0  0  1  0  0  0  0  0  0  0  0  0
   35.4244   11.8556   18.6203 C   0  0  1  0  0  0  0  0  0  0  0  0
   35.2140   10.7771   19.6949 C   0  0  0  0  0  0  0  0  0  0  0  0
   34.3839    9.6026   19.1142 C   0  0  1  0  0  0  0  0  0  0  0  0
   35.0873    9.0226   17.8725 C   0  0  1  0  0  0  0  0  0  0  0  0
   34.2254    7.8163   17.3067 C   0  0  1  0  0  0  0  0  0  0  0  0
   34.0773    6.7339   18.3883 C   0  0  1  0  0  0  0  0  0  0  0  0
   33.4120    7.3784   19.6286 C   0  0  2  0  0  0  0  0  0  0  0  0
   33.6246    4.2237   18.4170 C   0  0  0  0  0  0  0  0  0  0  0  0
   36.2073   12.9750   19.1692 N   0  0  0  0  0  0  0  0  0  0  0  0
   33.3087    5.5706   17.8466 N   0  0  0  0  0  0  0  0  0  0  0  0
   37.4659   10.9723   17.4886 O   0  0  0  0  0  0  0  0  0  0  0  0
   35.2758   10.1130   16.8944 O   0  0  0  0  0  0  0  0  0  0  0  0
   34.1861    8.5169   20.1015 O   0  0  0  0  0  0  0  0  0  0  0  0
   32.9276    8.2747   16.9903 O   0  0  0  0  0  0  0  0  0  0  0  0
   33.2922    6.4533   20.7100 O   0  0  0  0  0  0  0  0  0  0  0  0
   32.3599    6.8838   21.7294 C   0  0  2  0  0  0  0  0  0  0  0  0
   31.3799    5.7816   22.1633 C   0  0  1  0  0  0  0  0  0  0  0  0
   30.3755    5.4472   21.0286 C   0  0  2  0  0  0  0  0  0  0  0  0
   29.6243    6.6944   20.6224 C   0  0  1  0  0  0  0  0  0  0  0  0
   30.6345    7.7726   20.1638 C   0  0  1  0  0  0  0  0  0  0  0  0
   29.9623    9.0888   19.7795 C   0  0  0  0  0  0  0  0  0  0  0  0
   28.6811    6.3457   19.5397 N   0  0  0  0  0  0  0  0  0  0  0  0
   31.5851    8.0538   21.2545 O   0  0  0  0  0  0  0  0  0  0  0  0
   32.1407    4.6348   22.5698 O   0  0  0  0  0  0  0  0  0  0  0  0
   29.4314    4.4719   21.4916 O   0  0  0  0  0  0  0  0  0  0  0  0
   30.9447   10.0480   19.4921 O   0  0  0  0  0  0  0  0  0  0  0  0
   38.3188   10.3576   16.3890 C   0  0  1  0  0  0  0  0  0  0  0  0
   38.4273   11.4044   15.2583 C   0  0  1  0  0  0  0  0  0  0  0  0
   39.3370   10.8983   14.1127 C   0  0  2  0  0  0  0  0  0  0  0  0
   40.7354   10.5811   14.6556 C   0  0  1  0  0  0  0  0  0  0  0  0
   40.6454    9.5040   15.7667 C   0  0  0  0  0  0  0  0  0  0  0  0
   39.7547   10.0316   16.8963 C   0  0  2  0  0  0  0  0  0  0  0  0
   41.5963   10.0875   13.5576 N   0  0  0  0  0  0  0  0  0  0  0  0
   39.7098    8.9989   17.9280 N   0  0  0  0  0  0  0  0  0  0  0  0
   37.1100   11.6589   14.7236 O   0  0  0  0  0  0  0  0  0  0  0  0
   39.4223   11.9225   13.0985 O   0  0  0  0  0  0  0  0  0  0  0  0
  1  2  1  0  0  0  0
  1 12  1  1  0  0  0
  1 13  1  0  0  0  0
  2  3  1  0  0  0  0
  2 10  1  1  0  0  0
  4  3  1  1  0  0  0
  4  5  1  0  0  0  0
  4 14  1  0  0  0  0
  5  6  1  0  0  0  0
  5 13  1  6  0  0  0
  6  7  1  0  0  0  0
  6 15  1  1  0  0  0
  7  8  1  0  0  0  0
  7 11  1  6  0  0  0
  8 14  1  0  0  0  0
  8 16  1  1  0  0  0
  9 11  1  0  0  0  0
 17 16  1  6  0  0  0
 17 18  1  0  0  0  0
 17 24  1  0  0  0  0
 18 19  1  0  0  0  0
 18 25  1  6  0  0  0
 19 20  1  0  0  0  0
 19 26  1  1  0  0  0
 20 21  1  0  0  0  0
 20 23  1  6  0  0  0
 21 22  1  1  0  0  0
 21 24  1  0  0  0  0
 22 27  1  0  0  0  0
 28 12  1  1  0  0  0
 28 29  1  0  0  0  0
 28 33  1  0  0  0  0
 29 30  1  0  0  0  0
 29 36  1  6  0  0  0
 30 31  1  0  0  0  0
 30 37  1  6  0  0  0
 31 32  1  0  0  0  0
 31 34  1  6  0  0  0
 32 33  1  0  0  0  0
 33 35  1  1  0  0  0
M  END
>  <CHROM.1>
178.33306132,150.15419357,-163.65014867,132.98277790,174.74820757,66.81183582
34.72641497,8.69485784,18.33215558,0.50428536,0.51599701,-0.14493688

>  <Name>
1yrj_lig

>  <RI>
0

>  <Rbt.Current_Directory>
/home/itssahil/PROJECTS/Mol_Feturizer/New_Systems/rnas/1yrj

>  <Rbt.Executable>
rbdock ($Id: //depot/dev/client3/rdock/2013.1/src/exe/rbdock.cxx#4 $)

>  <Rbt.Library>
libRbt.so (2013.1, Build901 2013/11/27)

>  <Rbt.Parameter_File>
/export/apps/rDock/src/rDock_2013.1_src/data/scripts/dock_solv.prm

>  <Rbt.Receptor>
prm/blind_docking_60.prm

>  <SCORE>
-7.61734

>  <SCORE.INTER>
-5.69444

>  <SCORE.INTER.CONST>
1

>  <SCORE.INTER.POLAR>
-0.375617

>  <SCORE.INTER.ROT>
6

>  <SCORE.INTER.SOLV>
9.91624

>  <SCORE.INTER.VDW>
-13.4496

>  <SCORE.INTER.norm>
-0.153904

>  <SCORE.INTRA>
-3.01507

>  <SCORE.INTRA.DIHEDRAL>
-6.98848

>  <SCORE.INTRA.DIHEDRAL.0>
15.6389

>  <SCORE.INTRA.POLAR>
0

>  <SCORE.INTRA.POLAR.0>
0

>  <SCORE.INTRA.REPUL>
0

>  <SCORE.INTRA.REPUL.0>
0

>  <SCORE.INTRA.SOLV>
-1.67449

>  <SCORE.INTRA.SOLV.lig_0>
-90.9181

>  <SCORE.INTRA.VDW>
1.31642

>  <SCORE.INTRA.VDW.0>
-3.14158

>  <SCORE.INTRA.norm>
-0.0814884

>  <SCORE.RESTR>
1.09216

>  <SCORE.RESTR.CAVITY>
1.09216

>  <SCORE.RESTR.norm>
0.029518

>  <SCORE.SYSTEM>
0

>  <SCORE.SYSTEM.CONST>
0

>  <SCORE.SYSTEM.DIHEDRAL>
0

>  <SCORE.SYSTEM.SOLV>
0

>  <SCORE.SYSTEM.norm>
0

>  <SCORE.heavy>
37

>  <SCORE.norm>
-0.205874

>  <RMSD>
14.050

$$$$
1yrj_lig
 OpenBabel11021811423D
libRbt.so/2013.1/901 2013/11/27
 37 40  0  0  0  0  0  0  0  0999 V2000
   36.3321    7.3957   15.1155 C   0  0  1  0  0  0  0  0  0  0  0  0
   35.5669    6.1678   14.5843 C   0  0  1  0  0  0  0  0  0  0  0  0
   34.1476    6.0825   15.1680 C   0  0  0  0  0  0  0  0  0  0  0  0
   34.2080    6.0989   16.7178 C   0  0  1  0  0  0  0  0  0  0  0  0
   34.9356    7.3666   17.2041 C   0  0  1  0  0  0  0  0  0  0  0  0
   34.9719    7.3648   18.7906 C   0  0  1  0  0  0  0  0  0  0  0  0
   33.5370    7.3307   19.3413 C   0  0  1  0  0  0  0  0  0  0  0  0
   32.8362    6.0674   18.7850 C   0  0  2  0  0  0  0  0  0  0  0  0
   33.7582    6.0822   21.5546 C   0  0  0  0  0  0  0  0  0  0  0  0
   35.5143    6.1469   13.1133 N   0  0  0  0  0  0  0  0  0  0  0  0
   33.5610    7.3799   20.8361 N   0  0  0  0  0  0  0  0  0  0  0  0
   35.8906    8.6421   14.5457 O   0  0  0  0  0  0  0  0  0  0  0  0
   36.2788    7.3948   16.5906 O   0  0  0  0  0  0  0  0  0  0  0  0
   32.8602    6.0576   17.3295 O   0  0  0  0  0  0  0  0  0  0  0  0
   35.6240    6.1969   19.2438 O   0  0  0  0  0  0  0  0  0  0  0  0
   31.4717    5.9893   19.1990 O   0  0  0  0  0  0  0  0  0  0  0  0
   30.5376    6.0065   18.0942 C   0  0  2  0  0  0  0  0  0  0  0  0
   30.0940    7.4230   17.6936 C   0  0  1  0  0  0  0  0  0  0  0  0
   29.1991    8.0603   18.7897 C   0  0  2  0  0  0  0  0  0  0  0  0
   27.9967    7.1813   19.0475 C   0  0  1  0  0  0  0  0  0  0  0  0
   28.4752    5.7740   19.4765 C   0  0  1  0  0  0  0  0  0  0  0  0
   27.3210    4.8022   19.7116 C   0  0  0  0  0  0  0  0  0  0  0  0
   27.1682    7.8108   20.0967 N   0  0  0  0  0  0  0  0  0  0  0  0
   29.3369    5.2042   18.4252 O   0  0  0  0  0  0  0  0  0  0  0  0
   31.2669    8.2057   17.4278 O   0  0  0  0  0  0  0  0  0  0  0  0
   28.7427    9.3475   18.3519 O   0  0  0  0  0  0  0  0  0  0  0  0
   26.6153    4.6171   18.5135 O   0  0  0  0  0  0  0  0  0  0  0  0
   36.0461    9.9912   15.2315 C   0  0  1  0  0  0  0  0  0  0  0  0
   34.9345   10.0897   16.2995 C   0  0  1  0  0  0  0  0  0  0  0  0
   35.0475   11.4068   17.1048 C   0  0  2  0  0  0  0  0  0  0  0  0
   36.4204   11.4902   17.7824 C   0  0  1  0  0  0  0  0  0  0  0  0
   37.5459   11.4296   16.7183 C   0  0  0  0  0  0  0  0  0  0  0  0
   37.4252   10.1124   15.9449 C   0  0  2  0  0  0  0  0  0  0  0  0
   36.5257   12.7565   18.5413 N   0  0  0  0  0  0  0  0  0  0  0  0
   38.5101   10.0853   14.9676 N   0  0  0  0  0  0  0  0  0  0  0  0
   33.6476   10.0579   15.6447 O   0  0  0  0  0  0  0  0  0  0  0  0
   34.0032   11.4345   18.1015 O   0  0  0  0  0  0  0  0  0  0  0  0
  1  2  1  0  0  0  0
  1 12  1  6  0  0  0
  1 13  1  0  0  0  0
  2  3  1  0  0  0  0
  2 10  1  6  0  0  0
  4  3  1  6  0  0  0
  4  5  1  0  0  0  0
  4 14  1  0  0  0  0
  5  6  1  0  0  0  0
  5 13  1  6  0  0  0
  6  7  1  0  0  0  0
  6 15  1  6  0  0  0
  7  8  1  0  0  0  0
  7 11  1  1  0  0  0
  8 14  1  0  0  0  0
  8 16  1  6  0  0  0
  9 11  1  0  0  0  0
 17 16  1  1  0  0  0
 17 18  1  0  0  0  0
 17 24  1  0  0  0  0
 18 19  1  0  0  0  0
 18 25  1  1  0  0  0
 19 20  1  0  0  0  0
 19 26  1  6  0  0  0
 20 21  1  0  0  0  0
 20 23  1  1  0  0  0
 21 22  1  6  0  0  0
 21 24  1  0  0  0  0
 22 27  1  0  0  0  0
 28 12  1  1  0  0  0
 28 29  1  0  0  0  0
 28 33  1  0  0  0  0
 29 30  1  0  0  0  0
 29 36  1  6  0  0  0
 30 31  1  0  0  0  0
 30 37  1  1  0  0  0
 31 32  1  0  0  0  0
 31 34  1  6  0  0  0
 32 33  1  0  0  0  0
 33 35  1  6  0  0  0
M  END
>  <CHROM.1>
154.97031112,-84.03609984,118.72020181,-89.54568029,62.49514903,-78.19846306
33.15603822,7.84682742,17.58306370,-0.22345393,-0.48418444,-2.74693133

>  <Name>
1yrj_lig

>  <RI>
224

>  <Rbt.Current_Directory>
/home/itssahil/PROJECTS/Mol_Feturizer/New_Systems/rnas/1yrj

>  <Rbt.Executable>
rbdock ($Id: //depot/dev/client3/rdock/2013.1/src/exe/rbdock.cxx#4 $)

>  <Rbt.Library>
libRbt.so (2013.1, Build901 2013/11/27)

>  <Rbt.Parameter_File>
/export/apps/rDock/src/rDock_2013.1_src/data/scripts/dock_solv.prm

>  <Rbt.Receptor>
prm/blind_docking_80.prm

>  <SCORE>
-7.20336

>  <SCORE.INTER>
-11.4822

>  <SCORE.INTER.CONST>
1

>  <SCORE.INTER.POLAR>
-1.37975

>  <SCORE.INTER.ROT>
6

>  <SCORE.INTER.SOLV>
14.6507

>  <SCORE.INTER.VDW>
-15.5392

>  <SCORE.INTER.norm>
-0.310331

>  <SCORE.INTRA>
4.07667

>  <SCORE.INTRA.DIHEDRAL>
-0.295512

>  <SCORE.INTRA.DIHEDRAL.0>
15.6389

>  <SCORE.INTRA.POLAR>
0

>  <SCORE.INTRA.POLAR.0>
0

>  <SCORE.INTRA.REPUL>
0

>  <SCORE.INTRA.REPUL.0>
0

>  <SCORE.INTRA.SOLV>
0.512017

>  <SCORE.INTRA.SOLV.lig_0>
-90.9181

>  <SCORE.INTRA.VDW>
3.96842

>  <SCORE.INTRA.VDW.0>
-3.14158

>  <SCORE.INTRA.norm>
0.11018

>  <SCORE.RESTR>
0.202199

>  <SCORE.RESTR.CAVITY>
0.202199

>  <SCORE.RESTR.norm>
0.00546485

>  <SCORE.SYSTEM>
0

>  <SCORE.SYSTEM.CONST>
0

>  <SCORE.SYSTEM.DIHEDRAL>
0

>  <SCORE.SYSTEM.SOLV>
0

>  <SCORE.SYSTEM.norm>
0

>  <SCORE.heavy>
37

>  <SCORE.norm>
-0.194685

>  <RMSD>
14.050

$$$$
1yrj_lig
 OpenBabel11021811423D
libRbt.so/2013.1/901 2013/11/27
 37 40  0  0  0  0  0  0  0  0999 V2000
   36.5285    6.8922   15.3319 C   0  0  1  0  0  0  0  0  0  0  0  0
   35.5170    6.1001   14.4806 C   0  0  1  0  0  0  0  0  0  0  0  0
   34.0680    6.5153   14.7814 C   0  0  0  0  0  0  0  0  0  0  0  0
   33.7791    6.3762   16.2990 C   0  0  1  0  0  0  0  0  0  0  0  0
   34.7808    7.2231   17.1066 C   0  0  1  0  0  0  0  0  0  0  0  0
   34.4554    7.0735   18.6525 C   0  0  1  0  0  0  0  0  0  0  0  0
   33.0180    7.5445   18.9269 C   0  0  1  0  0  0  0  0  0  0  0  0
   32.0579    6.6973   18.0569 C   0  0  2  0  0  0  0  0  0  0  0  0
   31.8755    8.5400   20.9788 C   0  0  0  0  0  0  0  0  0  0  0  0
   35.7937    6.2254   13.0402 N   0  0  0  0  0  0  0  0  0  0  0  0
   32.7201    7.4542   20.3899 N   0  0  0  0  0  0  0  0  0  0  0  0
   36.7008    8.2560   14.9037 O   0  0  0  0  0  0  0  0  0  0  0  0
   36.1472    6.7871   16.7540 O   0  0  0  0  0  0  0  0  0  0  0  0
   32.4043    6.8022   16.6469 O   0  0  0  0  0  0  0  0  0  0  0  0
   34.5283    5.7112   19.0177 O   0  0  0  0  0  0  0  0  0  0  0  0
   30.6993    7.1124   18.2040 O   0  0  0  0  0  0  0  0  0  0  0  0
   29.7609    6.0111   18.1912 C   0  0  2  0  0  0  0  0  0  0  0  0
   28.3111    6.4493   17.9275 C   0  0  1  0  0  0  0  0  0  0  0  0
   27.7416    7.2513   19.1278 C   0  0  2  0  0  0  0  0  0  0  0  0
   27.8232    6.4197   20.3874 C   0  0  1  0  0  0  0  0  0  0  0  0
   29.2960    6.0200   20.6411 C   0  0  1  0  0  0  0  0  0  0  0  0
   29.4654    5.1336   21.8729 C   0  0  0  0  0  0  0  0  0  0  0  0
   27.2791    7.2102   21.5109 N   0  0  0  0  0  0  0  0  0  0  0  0
   29.8133    5.2779   19.4774 O   0  0  0  0  0  0  0  0  0  0  0  0
   28.2818    7.2043   16.7076 O   0  0  0  0  0  0  0  0  0  0  0  0
   26.3672    7.5787   18.8809 O   0  0  0  0  0  0  0  0  0  0  0  0
   29.1676    5.8751   23.0259 O   0  0  0  0  0  0  0  0  0  0  0  0
   37.7288    9.2083   15.4961 C   0  0  1  0  0  0  0  0  0  0  0  0
   39.1210    8.7115   15.0476 C   0  0  1  0  0  0  0  0  0  0  0  0
   40.2400    9.6578   15.5462 C   0  0  2  0  0  0  0  0  0  0  0  0
   40.0034   11.0755   15.0124 C   0  0  1  0  0  0  0  0  0  0  0  0
   38.6243   11.6014   15.4859 C   0  0  0  0  0  0  0  0  0  0  0  0
   37.5316   10.6602   14.9683 C   0  0  2  0  0  0  0  0  0  0  0  0
   41.0704   11.9770   15.5018 N   0  0  0  0  0  0  0  0  0  0  0  0
   36.2506   11.1979   15.4187 N   0  0  0  0  0  0  0  0  0  0  0  0
   39.3511    7.3954   15.5960 O   0  0  0  0  0  0  0  0  0  0  0  0
   41.5127    9.1610   15.0791 O   0  0  0  0  0  0  0  0  0  0  0  0
  1  2  1  0  0  0  0
  1 12  1  6  0  0  0
  1 13  1  0  0  0  0
  2  3  1  0  0  0  0
  2 10  1  6  0  0  0
  4  3  1  6  0  0  0
  4  5  1  0  0  0  0
  4 14  1  0  0  0  0
  5  6  1  0  0  0  0
  5 13  1  1  0  0  0
  6  7  1  0  0  0  0
  6 15  1  6  0  0  0
  7  8  1  0  0  0  0
  7 11  1  1  0  0  0
  8 14  1  0  0  0  0
  8 16  1  6  0  0  0
  9 11  1  0  0  0  0
 17 16  1  1  0  0  0
 17 18  1  0  0  0  0
 17 24  1  0  0  0  0
 18 19  1  0  0  0  0
 18 25  1  6  0  0  0
 19 20  1  0  0  0  0
 19 26  1  6  0  0  0
 20 21  1  0  0  0  0
 20 23  1  1  0  0  0
 21 22  1  1  0  0  0
 21 24  1  0  0  0  0
 22 27  1  0  0  0  0
 28 12  1  6  0  0  0
 28 29  1  0  0  0  0
 28 33  1  0  0  0  0
 29 30  1  0  0  0  0
 29 36  1  1  0  0  0
 30 31  1  0  0  0  0
 30 37  1  6  0  0  0
 31 32  1  0  0  0  0
 31 34  1  1  0  0  0
 32 33  1  0  0  0  0
 33 35  1  1  0  0  0
M  END
>  <CHROM.1>
-174.32819919,142.58095983,-142.51777965,-162.80260029,-67.48286388,69.72891677
33.74352048,7.60879795,17.44466268,0.33647881,-0.38321985,-1.84925831

>  <Name>
1yrj_lig

>  <RI>
0

>  <Rbt.Current_Directory>
/home/itssahil/PROJECTS/Mol_Feturizer/New_Systems/rnas/1yrj

>  <Rbt.Executable>
rbdock ($Id: //depot/dev/client3/rdock/2013.1/src/exe/rbdock.cxx#4 $)

>  <Rbt.Library>
libRbt.so (2013.1, Build901 2013/11/27)

>  <Rbt.Parameter_File>
/export/apps/rDock/src/rDock_2013.1_src/data/scripts/dock_solv.prm

>  <Rbt.Receptor>
prm/blind_docking_100.prm

>  <SCORE>
-18.029

>  <SCORE.INTER>
-13.2927

>  <SCORE.INTER.CONST>
1

>  <SCORE.INTER.POLAR>
-1.47071

>  <SCORE.INTER.ROT>
6

>  <SCORE.INTER.SOLV>
21.2198

>  <SCORE.INTER.VDW>
-18.6327

>  <SCORE.INTER.norm>
-0.359262

>  <SCORE.INTRA>
-4.73631

>  <SCORE.INTRA.DIHEDRAL>
-7.58028

>  <SCORE.INTRA.DIHEDRAL.0>
15.6389

>  <SCORE.INTRA.POLAR>
0

>  <SCORE.INTRA.POLAR.0>
0

>  <SCORE.INTRA.REPUL>
0

>  <SCORE.INTRA.REPUL.0>
0

>  <SCORE.INTRA.SOLV>
-1.22137

>  <SCORE.INTRA.SOLV.lig_0>
-90.9181

>  <SCORE.INTRA.VDW>
-0.335487

>  <SCORE.INTRA.VDW.0>
-3.14158

>  <SCORE.INTRA.norm>
-0.128008

>  <SCORE.RESTR>
0

>  <SCORE.RESTR.CAVITY>
0

>  <SCORE.RESTR.norm>
0

>  <SCORE.SYSTEM>
0

>  <SCORE.SYSTEM.CONST>
0

>  <SCORE.SYSTEM.DIHEDRAL>
0

>  <SCORE.SYSTEM.SOLV>
0

>  <SCORE.SYSTEM.norm>
0

>  <SCORE.heavy>
37

>  <SCORE.norm>
-0.48727

>  <RMSD>
14.060

$$$$
1yrj_lig
 OpenBabel11021811423D
libRbt.so/2013.1/901 2013/11/27
 37 40  0  0  0  0  0  0  0  0999 V2000
   32.2633    5.6889   20.0764 C   0  0  1  0  0  0  0  0  0  0  0  0
   33.6782    5.3824   20.6051 C   0  0  1  0  0  0  0  0  0  0  0  0
   34.6157    6.5922   20.4631 C   0  0  0  0  0  0  0  0  0  0  0  0
   34.6421    7.0744   18.9892 C   0  0  1  0  0  0  0  0  0  0  0  0
   33.2152    7.4168   18.5204 C   0  0  1  0  0  0  0  0  0  0  0  0
   33.2723    7.9190   17.0162 C   0  0  1  0  0  0  0  0  0  0  0  0
   34.1762    9.1586   16.9182 C   0  0  1  0  0  0  0  0  0  0  0  0
   35.5802    8.7754   17.4455 C   0  0  2  0  0  0  0  0  0  0  0  0
   35.0246    8.9083   14.5257 C   0  0  0  0  0  0  0  0  0  0  0  0
   33.6546    4.9180   22.0018 N   0  0  0  0  0  0  0  0  0  0  0  0
   34.1952    9.6686   15.5121 N   0  0  0  0  0  0  0  0  0  0  0  0
   31.4944    6.5418   20.9451 O   0  0  0  0  0  0  0  0  0  0  0  0
   32.3673    6.2216   18.7038 O   0  0  0  0  0  0  0  0  0  0  0  0
   35.5032    8.2651   18.8067 O   0  0  0  0  0  0  0  0  0  0  0  0
   33.8475    6.9143   16.2074 O   0  0  0  0  0  0  0  0  0  0  0  0
   36.4713    9.8914   17.4482 O   0  0  0  0  0  0  0  0  0  0  0  0
   37.8189    9.5455   17.8457 C   0  0  2  0  0  0  0  0  0  0  0  0
   38.8103   10.7136   17.7183 C   0  0  1  0  0  0  0  0  0  0  0  0
   39.0700   11.0677   16.2298 C   0  0  2  0  0  0  0  0  0  0  0  0
   39.5859    9.8521   15.4943 C   0  0  1  0  0  0  0  0  0  0  0  0
   38.5543    8.7055   15.6159 C   0  0  1  0  0  0  0  0  0  0  0  0
   39.0180    7.4174   14.9395 C   0  0  0  0  0  0  0  0  0  0  0  0
   39.8187   10.2186   14.0820 N   0  0  0  0  0  0  0  0  0  0  0  0
   38.3150    8.4061   17.0391 O   0  0  0  0  0  0  0  0  0  0  0  0
   38.2929   11.8284   18.4589 O   0  0  0  0  0  0  0  0  0  0  0  0
   40.0536   12.1080   16.1458 O   0  0  0  0  0  0  0  0  0  0  0  0
   37.9671    6.4881   14.9352 O   0  0  0  0  0  0  0  0  0  0  0  0
   30.0432    6.9226   20.6936 C   0  0  1  0  0  0  0  0  0  0  0  0
   30.0431    8.0281   19.6149 C   0  0  1  0  0  0  0  0  0  0  0  0
   28.5999    8.4408   19.2366 C   0  0  2  0  0  0  0  0  0  0  0  0
   27.8241    7.2217   18.7236 C   0  0  1  0  0  0  0  0  0  0  0  0
   27.7845    6.1175   19.8108 C   0  0  0  0  0  0  0  0  0  0  0  0
   29.2211    5.7131   20.1579 C   0  0  2  0  0  0  0  0  0  0  0  0
   26.4424    7.6209   18.3745 N   0  0  0  0  0  0  0  0  0  0  0  0
   29.1409    4.6621   21.1687 N   0  0  0  0  0  0  0  0  0  0  0  0
   30.7352    9.1874   20.1278 O   0  0  0  0  0  0  0  0  0  0  0  0
   28.6590    9.4551   18.2108 O   0  0  0  0  0  0  0  0  0  0  0  0
  1  2  1  0  0  0  0
  1 12  1  1  0  0  0
  1 13  1  0  0  0  0
  2  3  1  0  0  0  0
  2 10  1  1  0  0  0
  4  3  1  1  0  0  0
  4  5  1  0  0  0  0
  4 14  1  0  0  0  0
  5  6  1  0  0  0  0
  5 13  1  6  0  0  0
  6  7  1  0  0  0  0
  6 15  1  6  0  0  0
  7  8  1  0  0  0  0
  7 11  1  6  0  0  0
  8 14  1  0  0  0  0
  8 16  1  1  0  0  0
  9 11  1  0  0  0  0
 17 16  1  6  0  0  0
 17 18  1  0  0  0  0
 17 24  1  0  0  0  0
 18 19  1  0  0  0  0
 18 25  1  1  0  0  0
 19 20  1  0  0  0  0
 19 26  1  1  0  0  0
 20 21  1  0  0  0  0
 20 23  1  6  0  0  0
 21 22  1  6  0  0  0
 21 24  1  0  0  0  0
 22 27  1  0  0  0  0
 28 12  1  6  0  0  0
 28 29  1  0  0  0  0
 28 33  1  0  0  0  0
 29 30  1  0  0  0  0
 29 36  1  1  0  0  0
 30 31  1  0  0  0  0
 30 37  1  6  0  0  0
 31 32  1  0  0  0  0
 31 34  1  1  0  0  0
 32 33  1  0  0  0  0
 33 35  1  1  0  0  0
M  END
>  <CHROM.1>
-176.12253809,-76.39432704,-175.85475893,174.39088077,-172.18895049,-78.22945599
34.08994556,8.10798431,18.05532776,-2.66731437,0.06371998,-0.77407745

>  <Name>
1yrj_lig

>  <RI>
224

>  <Rbt.Current_Directory>
/home/itssahil/PROJECTS/Mol_Feturizer/New_Systems/rnas/1yrj

>  <Rbt.Executable>
rbdock ($Id: //depot/dev/client3/rdock/2013.1/src/exe/rbdock.cxx#4 $)

>  <Rbt.Library>
libRbt.so (2013.1, Build901 2013/11/27)

>  <Rbt.Parameter_File>
/export/apps/rDock/src/rDock_2013.1_src/data/scripts/dock_solv.prm

>  <Rbt.Receptor>
prm/blind_docking_80.prm

>  <SCORE>
-9.83359

>  <SCORE.INTER>
-3.8358

>  <SCORE.INTER.CONST>
1

>  <SCORE.INTER.POLAR>
-0.198946

>  <SCORE.INTER.ROT>
6

>  <SCORE.INTER.SOLV>
11.8717

>  <SCORE.INTER.VDW>
-13.4513

>  <SCORE.INTER.norm>
-0.10367

>  <SCORE.INTRA>
-5.99778

>  <SCORE.INTRA.DIHEDRAL>
-13.2697

>  <SCORE.INTRA.DIHEDRAL.0>
15.6389

>  <SCORE.INTRA.POLAR>
0

>  <SCORE.INTRA.POLAR.0>
0

>  <SCORE.INTRA.REPUL>
0.00788139

>  <SCORE.INTRA.REPUL.0>
0

>  <SCORE.INTRA.SOLV>
-1.68717

>  <SCORE.INTRA.SOLV.lig_0>
-90.9181

>  <SCORE.INTRA.VDW>
1.44124

>  <SCORE.INTRA.VDW.0>
-3.14158

>  <SCORE.INTRA.norm>
-0.162102

>  <SCORE.RESTR>
0

>  <SCORE.RESTR.CAVITY>
0

>  <SCORE.RESTR.norm>
0

>  <SCORE.SYSTEM>
0

>  <SCORE.SYSTEM.CONST>
0

>  <SCORE.SYSTEM.DIHEDRAL>
0

>  <SCORE.SYSTEM.SOLV>
0

>  <SCORE.SYSTEM.norm>
0

>  <SCORE.heavy>
37

>  <SCORE.norm>
-0.265773

>  <RMSD>
14.085

$$$$
1yrj_lig
 OpenBabel11021811423D
libRbt.so/2013.1/901 2013/11/27
 37 40  0  0  0  0  0  0  0  0999 V2000
   36.4451    5.9180   14.8631 C   0  0  1  0  0  0  0  0  0  0  0  0
   35.2721    6.3933   13.9835 C   0  0  1  0  0  0  0  0  0  0  0  0
   34.3023    7.2956   14.7630 C   0  0  0  0  0  0  0  0  0  0  0  0
   33.8079    6.5670   16.0399 C   0  0  1  0  0  0  0  0  0  0  0  0
   35.0097    6.1559   16.9116 C   0  0  1  0  0  0  0  0  0  0  0  0
   34.4762    5.4254   18.2154 C   0  0  1  0  0  0  0  0  0  0  0  0
   33.5510    6.3719   18.9973 C   0  0  1  0  0  0  0  0  0  0  0  0
   32.3902    6.7929   18.0636 C   0  0  2  0  0  0  0  0  0  0  0  0
   33.5394    6.3081   21.5472 C   0  0  0  0  0  0  0  0  0  0  0  0
   35.7395    7.0791   12.7676 N   0  0  0  0  0  0  0  0  0  0  0  0
   33.0838    5.7088   20.2540 N   0  0  0  0  0  0  0  0  0  0  0  0
   37.4199    6.9437   15.1293 O   0  0  0  0  0  0  0  0  0  0  0  0
   35.9068    5.3119   16.0966 O   0  0  0  0  0  0  0  0  0  0  0  0
   32.8987    7.4114   16.8479 O   0  0  0  0  0  0  0  0  0  0  0  0
   33.7084    4.3004   17.8421 O   0  0  0  0  0  0  0  0  0  0  0  0
   31.5119    7.7265   18.6931 O   0  0  0  0  0  0  0  0  0  0  0  0
   30.3618    8.0647   17.8828 C   0  0  2  0  0  0  0  0  0  0  0  0
   29.5098    9.1980   18.4774 C   0  0  1  0  0  0  0  0  0  0  0  0
   28.7816    8.7335   19.7666 C   0  0  2  0  0  0  0  0  0  0  0  0
   27.9227    7.5266   19.4659 C   0  0  1  0  0  0  0  0  0  0  0  0
   28.8121    6.3954   18.8978 C   0  0  1  0  0  0  0  0  0  0  0  0
   28.0153    5.1489   18.5192 C   0  0  0  0  0  0  0  0  0  0  0  0
   27.2473    7.1059   20.7110 N   0  0  0  0  0  0  0  0  0  0  0  0
   29.5040    6.8728   17.6871 O   0  0  0  0  0  0  0  0  0  0  0  0
   30.3620   10.3282   18.7128 O   0  0  0  0  0  0  0  0  0  0  0  0
   27.9393    9.7882   20.2517 O   0  0  0  0  0  0  0  0  0  0  0  0
   27.4785    4.5685   19.6780 O   0  0  0  0  0  0  0  0  0  0  0  0
   37.1369    8.1899   15.9547 C   0  0  1  0  0  0  0  0  0  0  0  0
   38.0612    8.1363   17.1912 C   0  0  1  0  0  0  0  0  0  0  0  0
   37.8973    9.4018   18.0675 C   0  0  2  0  0  0  0  0  0  0  0  0
   38.2143   10.6547   17.2425 C   0  0  1  0  0  0  0  0  0  0  0  0
   37.2688   10.7410   16.0172 C   0  0  0  0  0  0  0  0  0  0  0  0
   37.4589    9.4878   15.1563 C   0  0  2  0  0  0  0  0  0  0  0  0
   38.0450   11.8611   18.0829 N   0  0  0  0  0  0  0  0  0  0  0  0
   36.5671    9.6149   14.0069 N   0  0  0  0  0  0  0  0  0  0  0  0
   37.7207    6.9784   17.9845 O   0  0  0  0  0  0  0  0  0  0  0  0
   38.7991    9.3102   19.1914 O   0  0  0  0  0  0  0  0  0  0  0  0
  1  2  1  0  0  0  0
  1 12  1  1  0  0  0
  1 13  1  0  0  0  0
  2  3  1  0  0  0  0
  2 10  1  6  0  0  0
  4  3  1  6  0  0  0
  4  5  1  0  0  0  0
  4 14  1  0  0  0  0
  5  6  1  0  0  0  0
  5 13  1  6  0  0  0
  6  7  1  0  0  0  0
  6 15  1  6  0  0  0
  7  8  1  0  0  0  0
  7 11  1  1  0  0  0
  8 14  1  0  0  0  0
  8 16  1  1  0  0  0
  9 11  1  0  0  0  0
 17 16  1  1  0  0  0
 17 18  1  0  0  0  0
 17 24  1  0  0  0  0
 18 19  1  0  0  0  0
 18 25  1  1  0  0  0
 19 20  1  0  0  0  0
 19 26  1  6  0  0  0
 20 21  1  0  0  0  0
 20 23  1  1  0  0  0
 21 22  1  6  0  0  0
 21 24  1  0  0  0  0
 22 27  1  0  0  0  0
 28 12  1  6  0  0  0
 28 29  1  0  0  0  0
 28 33  1  0  0  0  0
 29 30  1  0  0  0  0
 29 36  1  1  0  0  0
 30 31  1  0  0  0  0
 30 37  1  1  0  0  0
 31 32  1  0  0  0  0
 31 34  1  1  0  0  0
 32 33  1  0  0  0  0
 33 35  1  6  0  0  0
M  END
>  <CHROM.1>
66.08029461,114.53291603,-175.70486851,-172.72477159,-66.26625976,117.32018903
33.54073900,7.54470039,17.59923649,0.05658593,-0.37971145,-2.59654000

>  <Name>
1yrj_lig

>  <RI>
0

>  <Rbt.Current_Directory>
/home/itssahil/PROJECTS/Mol_Feturizer/New_Systems/rnas/1yrj

>  <Rbt.Executable>
rbdock ($Id: //depot/dev/client3/rdock/2013.1/src/exe/rbdock.cxx#4 $)

>  <Rbt.Library>
libRbt.so (2013.1, Build901 2013/11/27)

>  <Rbt.Parameter_File>
/export/apps/rDock/src/rDock_2013.1_src/data/scripts/dock_solv.prm

>  <Rbt.Receptor>
prm/blind_docking_100.prm

>  <SCORE>
-13.1976

>  <SCORE.INTER>
-10.6427

>  <SCORE.INTER.CONST>
1

>  <SCORE.INTER.POLAR>
-0.865428

>  <SCORE.INTER.ROT>
6

>  <SCORE.INTER.SOLV>
17.6395

>  <SCORE.INTER.VDW>
-17.6902

>  <SCORE.INTER.norm>
-0.28764

>  <SCORE.INTRA>
-2.55494

>  <SCORE.INTRA.DIHEDRAL>
-6.53758

>  <SCORE.INTRA.DIHEDRAL.0>
15.6389

>  <SCORE.INTRA.POLAR>
0

>  <SCORE.INTRA.POLAR.0>
0

>  <SCORE.INTRA.REPUL>
0

>  <SCORE.INTRA.REPUL.0>
0

>  <SCORE.INTRA.SOLV>
3.0492

>  <SCORE.INTRA.SOLV.lig_0>
-90.9181

>  <SCORE.INTRA.VDW>
-0.810752

>  <SCORE.INTRA.VDW.0>
-3.14158

>  <SCORE.INTRA.norm>
-0.0690525

>  <SCORE.RESTR>
0

>  <SCORE.RESTR.CAVITY>
0

>  <SCORE.RESTR.norm>
0

>  <SCORE.SYSTEM>
0

>  <SCORE.SYSTEM.CONST>
0

>  <SCORE.SYSTEM.DIHEDRAL>
0

>  <SCORE.SYSTEM.SOLV>
0

>  <SCORE.SYSTEM.norm>
0

>  <SCORE.heavy>
37

>  <SCORE.norm>
-0.356693

>  <RMSD>
14.146

$$$$
1yrj_lig
 OpenBabel11021811423D
libRbt.so/2013.1/901 2013/11/27
 37 40  0  0  0  0  0  0  0  0999 V2000
   31.0258    8.3236   20.4909 C   0  0  1  0  0  0  0  0  0  0  0  0
   31.5076    9.5909   19.7580 C   0  0  1  0  0  0  0  0  0  0  0  0
   31.4868    9.4111   18.2317 C   0  0  0  0  0  0  0  0  0  0  0  0
   32.3160    8.1628   17.8320 C   0  0  1  0  0  0  0  0  0  0  0  0
   31.7680    6.9138   18.5480 C   0  0  1  0  0  0  0  0  0  0  0  0
   32.6245    5.6510   18.1122 C   0  0  1  0  0  0  0  0  0  0  0  0
   32.5409    5.4698   16.5879 C   0  0  1  0  0  0  0  0  0  0  0  0
   33.0557    6.7672   15.9184 C   0  0  2  0  0  0  0  0  0  0  0  0
   32.5407    2.9678   16.0916 C   0  0  0  0  0  0  0  0  0  0  0  0
   30.7260   10.7781   20.1413 N   0  0  0  0  0  0  0  0  0  0  0  0
   33.3044    4.2519   16.1744 N   0  0  0  0  0  0  0  0  0  0  0  0
   29.6032    8.1163   20.4118 O   0  0  0  0  0  0  0  0  0  0  0  0
   31.7970    7.1632   20.0034 O   0  0  0  0  0  0  0  0  0  0  0  0
   32.2952    7.9231   16.3709 O   0  0  0  0  0  0  0  0  0  0  0  0
   33.9817    5.8701   18.4357 O   0  0  0  0  0  0  0  0  0  0  0  0
   32.9543    6.7088   14.4951 O   0  0  0  0  0  0  0  0  0  0  0  0
   33.9527    7.5077   13.8180 C   0  0  2  0  0  0  0  0  0  0  0  0
   35.3325    6.8326   13.7545 C   0  0  1  0  0  0  0  0  0  0  0  0
   35.9834    6.7556   15.1611 C   0  0  2  0  0  0  0  0  0  0  0  0
   36.0985    8.1424   15.7514 C   0  0  1  0  0  0  0  0  0  0  0  0
   34.6923    8.7828   15.8294 C   0  0  1  0  0  0  0  0  0  0  0  0
   34.7207   10.2100   16.3715 C   0  0  0  0  0  0  0  0  0  0  0  0
   36.7161    8.0360   17.0895 N   0  0  0  0  0  0  0  0  0  0  0  0
   34.0937    8.8240   14.4831 O   0  0  0  0  0  0  0  0  0  0  0  0
   35.1748    5.5372   13.1578 O   0  0  0  0  0  0  0  0  0  0  0  0
   37.2972    6.1904   15.0547 O   0  0  0  0  0  0  0  0  0  0  0  0
   33.4289   10.7546   16.3199 O   0  0  0  0  0  0  0  0  0  0  0  0
   28.8810    7.6568   19.1541 C   0  0  1  0  0  0  0  0  0  0  0  0
   28.4469    6.1929   19.3877 C   0  0  1  0  0  0  0  0  0  0  0  0
   27.6396    5.6498   18.1838 C   0  0  2  0  0  0  0  0  0  0  0  0
   26.4008    6.5220   17.9477 C   0  0  1  0  0  0  0  0  0  0  0  0
   26.8238    7.9882   17.6752 C   0  0  0  0  0  0  0  0  0  0  0  0
   27.6064    8.5103   18.8846 C   0  0  2  0  0  0  0  0  0  0  0  0
   25.6397    6.0040   16.7889 N   0  0  0  0  0  0  0  0  0  0  0  0
   27.9704    9.8952   18.5974 N   0  0  0  0  0  0  0  0  0  0  0  0
   29.6240    5.3741   19.5611 O   0  0  0  0  0  0  0  0  0  0  0  0
   27.2397    4.2914   18.4656 O   0  0  0  0  0  0  0  0  0  0  0  0
  1  2  1  0  0  0  0
  1 12  1  6  0  0  0
  1 13  1  0  0  0  0
  2  3  1  0  0  0  0
  2 10  1  6  0  0  0
  4  3  1  6  0  0  0
  4  5  1  0  0  0  0
  4 14  1  0  0  0  0
  5  6  1  0  0  0  0
  5 13  1  1  0  0  0
  6  7  1  0  0  0  0
  6 15  1  6  0  0  0
  7  8  1  0  0  0  0
  7 11  1  6  0  0  0
  8 14  1  0  0  0  0
  8 16  1  6  0  0  0
  9 11  1  0  0  0  0
 17 16  1  1  0  0  0
 17 18  1  0  0  0  0
 17 24  1  0  0  0  0
 18 19  1  0  0  0  0
 18 25  1  1  0  0  0
 19 20  1  0  0  0  0
 19 26  1  6  0  0  0
 20 21  1  0  0  0  0
 20 23  1  1  0  0  0
 21 22  1  6  0  0  0
 21 24  1  0  0  0  0
 22 27  1  0  0  0  0
 28 12  1  1  0  0  0
 28 29  1  0  0  0  0
 28 33  1  0  0  0  0
 29 30  1  0  0  0  0
 29 36  1  6  0  0  0
 30 31  1  0  0  0  0
 30 37  1  1  0  0  0
 31 32  1  0  0  0  0
 31 34  1  6  0  0  0
 32 33  1  0  0  0  0
 33 35  1  6  0  0  0
M  END
>  <CHROM.1>
73.16650142,91.95145528,-151.24210763,79.00031405,175.69567354,107.72125657
31.85040526,7.26955050,17.25396680,-2.93391108,-0.42758839,-2.66173014

>  <Name>
1yrj_lig

>  <RI>
0

>  <Rbt.Current_Directory>
/home/itssahil/PROJECTS/Mol_Feturizer/New_Systems/rnas/1yrj

>  <Rbt.Executable>
rbdock ($Id: //depot/dev/client3/rdock/2013.1/src/exe/rbdock.cxx#4 $)

>  <Rbt.Library>
libRbt.so (2013.1, Build901 2013/11/27)

>  <Rbt.Parameter_File>
/export/apps/rDock/src/rDock_2013.1_src/data/scripts/dock_solv.prm

>  <Rbt.Receptor>
prm/blind_docking_40.prm

>  <SCORE>
-2.59997

>  <SCORE.INTER>
-11.2081

>  <SCORE.INTER.CONST>
1

>  <SCORE.INTER.POLAR>
-1.60063

>  <SCORE.INTER.ROT>
6

>  <SCORE.INTER.SOLV>
12.475

>  <SCORE.INTER.VDW>
-13.8949

>  <SCORE.INTER.norm>
-0.30292

>  <SCORE.INTRA>
3.72288

>  <SCORE.INTRA.DIHEDRAL>
-2.54265

>  <SCORE.INTRA.DIHEDRAL.0>
15.6389

>  <SCORE.INTRA.POLAR>
0

>  <SCORE.INTRA.POLAR.0>
0

>  <SCORE.INTRA.REPUL>
0

>  <SCORE.INTRA.REPUL.0>
0

>  <SCORE.INTRA.SOLV>
4.52038

>  <SCORE.INTRA.SOLV.lig_0>
-90.9181

>  <SCORE.INTRA.VDW>
2.73402

>  <SCORE.INTRA.VDW.0>
-3.14158

>  <SCORE.INTRA.norm>
0.100618

>  <SCORE.RESTR>
4.8852

>  <SCORE.RESTR.CAVITY>
4.8852

>  <SCORE.RESTR.norm>
0.132033

>  <SCORE.SYSTEM>
0

>  <SCORE.SYSTEM.CONST>
0

>  <SCORE.SYSTEM.DIHEDRAL>
0

>  <SCORE.SYSTEM.SOLV>
0

>  <SCORE.SYSTEM.norm>
0

>  <SCORE.heavy>
37

>  <SCORE.norm>
-0.0702696

>  <RMSD>
14.173

$$$$
1yrj_lig
 OpenBabel11021811423D
libRbt.so/2013.1/901 2013/11/27
 37 40  0  0  0  0  0  0  0  0999 V2000
   34.4901    5.1442   16.5124 C   0  0  1  0  0  0  0  0  0  0  0  0
   33.4321    4.5548   17.4657 C   0  0  1  0  0  0  0  0  0  0  0  0
   32.1475    5.3985   17.4854 C   0  0  0  0  0  0  0  0  0  0  0  0
   32.4839    6.8714   17.8362 C   0  0  1  0  0  0  0  0  0  0  0  0
   33.5048    7.4338   16.8289 C   0  0  1  0  0  0  0  0  0  0  0  0
   33.8210    8.9433   17.2022 C   0  0  1  0  0  0  0  0  0  0  0  0
   32.5248    9.7688   17.1629 C   0  0  1  0  0  0  0  0  0  0  0  0
   31.5182    9.1348   18.1534 C   0  0  2  0  0  0  0  0  0  0  0  0
   34.0747   11.7746   16.8780 C   0  0  0  0  0  0  0  0  0  0  0  0
   33.1166    3.1547   17.1385 N   0  0  0  0  0  0  0  0  0  0  0  0
   32.8221   11.2035   17.4643 N   0  0  0  0  0  0  0  0  0  0  0  0
   34.1892    4.9409   15.1191 O   0  0  0  0  0  0  0  0  0  0  0  0
   34.7001    6.5665   16.8466 O   0  0  0  0  0  0  0  0  0  0  0  0
   31.2814    7.7354   17.8299 O   0  0  0  0  0  0  0  0  0  0  0  0
   34.3193    9.0058   18.5222 O   0  0  0  0  0  0  0  0  0  0  0  0
   30.2577    9.8058   18.1347 O   0  0  0  0  0  0  0  0  0  0  0  0
   29.5635    9.7530   19.4031 C   0  0  2  0  0  0  0  0  0  0  0  0
   30.5084    9.7697   20.6158 C   0  0  1  0  0  0  0  0  0  0  0  0
   31.3152    8.4477   20.7151 C   0  0  2  0  0  0  0  0  0  0  0  0
   30.3685    7.2722   20.7970 C   0  0  1  0  0  0  0  0  0  0  0  0
   29.4524    7.2661   19.5503 C   0  0  1  0  0  0  0  0  0  0  0  0
   28.4273    6.1346   19.5740 C   0  0  0  0  0  0  0  0  0  0  0  0
   31.1645    6.0305   20.8857 N   0  0  0  0  0  0  0  0  0  0  0  0
   28.7155    8.5402   19.4734 O   0  0  0  0  0  0  0  0  0  0  0  0
   31.3610   10.9189   20.5087 O   0  0  0  0  0  0  0  0  0  0  0  0
   32.1287    8.4664   21.8961 O   0  0  0  0  0  0  0  0  0  0  0  0
   27.5717    6.3030   20.6728 O   0  0  0  0  0  0  0  0  0  0  0  0
   34.6763    5.8534   14.0036 C   0  0  1  0  0  0  0  0  0  0  0  0
   34.0078    7.2295   14.2166 C   0  0  1  0  0  0  0  0  0  0  0  0
   34.4934    8.2563   13.1649 C   0  0  2  0  0  0  0  0  0  0  0  0
   36.0172    8.4070   13.2449 C   0  0  1  0  0  0  0  0  0  0  0  0
   36.7031    7.0394   12.9961 C   0  0  0  0  0  0  0  0  0  0  0  0
   36.2211    6.0440   14.0567 C   0  0  2  0  0  0  0  0  0  0  0  0
   36.4758    9.3814   12.2296 N   0  0  0  0  0  0  0  0  0  0  0  0
   36.9012    4.7773   13.7999 N   0  0  0  0  0  0  0  0  0  0  0  0
   32.5765    7.0827   14.0917 O   0  0  0  0  0  0  0  0  0  0  0  0
   33.8580    9.5263   13.4257 O   0  0  0  0  0  0  0  0  0  0  0  0
  1  2  1  0  0  0  0
  1 12  1  6  0  0  0
  1 13  1  0  0  0  0
  2  3  1  0  0  0  0
  2 10  1  6  0  0  0
  4  3  1  6  0  0  0
  4  5  1  0  0  0  0
  4 14  1  0  0  0  0
  5  6  1  0  0  0  0
  5 13  1  1  0  0  0
  6  7  1  0  0  0  0
  6 15  1  1  0  0  0
  7  8  1  0  0  0  0
  7 11  1  1  0  0  0
  8 14  1  0  0  0  0
  8 16  1  6  0  0  0
  9 11  1  0  0  0  0
 17 16  1  6  0  0  0
 17 18  1  0  0  0  0
 17 24  1  0  0  0  0
 18 19  1  0  0  0  0
 18 25  1  6  0  0  0
 19 20  1  0  0  0  0
 19 26  1  1  0  0  0
 20 21  1  0  0  0  0
 20 23  1  6  0  0  0
 21 22  1  1  0  0  0
 21 24  1  0  0  0  0
 22 27  1  0  0  0  0
 28 12  1  1  0  0  0
 28 29  1  0  0  0  0
 28 33  1  0  0  0  0
 29 30  1  0  0  0  0
 29 36  1  6  0  0  0
 30 31  1  0  0  0  0
 30 37  1  1  0  0  0
 31 32  1  0  0  0  0
 31 34  1  6  0  0  0
 32 33  1  0  0  0  0
 33 35  1  6  0  0  0
M  END
>  <CHROM.1>
153.26702814,39.50601583,-150.31579099,33.41765456,62.63350714,-65.15598134
32.69920532,7.69941553,17.21658884,0.15632419,-0.86218969,-3.11914362

>  <Name>
1yrj_lig

>  <RI>
0

>  <Rbt.Current_Directory>
/home/itssahil/PROJECTS/Mol_Feturizer/New_Systems/rnas/1yrj

>  <Rbt.Executable>
rbdock ($Id: //depot/dev/client3/rdock/2013.1/src/exe/rbdock.cxx#4 $)

>  <Rbt.Library>
libRbt.so (2013.1, Build901 2013/11/27)

>  <Rbt.Parameter_File>
/export/apps/rDock/src/rDock_2013.1_src/data/scripts/dock_solv.prm

>  <Rbt.Receptor>
prm/blind_docking_40.prm

>  <SCORE>
29.3933

>  <SCORE.INTER>
18.3607

>  <SCORE.INTER.CONST>
1

>  <SCORE.INTER.POLAR>
-1.22459

>  <SCORE.INTER.ROT>
6

>  <SCORE.INTER.SOLV>
22.1187

>  <SCORE.INTER.VDW>
1.34958

>  <SCORE.INTER.norm>
0.496236

>  <SCORE.INTRA>
6.31889

>  <SCORE.INTRA.DIHEDRAL>
-5.65567

>  <SCORE.INTRA.DIHEDRAL.0>
15.6389

>  <SCORE.INTRA.POLAR>
0

>  <SCORE.INTRA.POLAR.0>
0

>  <SCORE.INTRA.REPUL>
0

>  <SCORE.INTRA.REPUL.0>
0

>  <SCORE.INTRA.SOLV>
3.64026

>  <SCORE.INTRA.SOLV.lig_0>
-90.9181

>  <SCORE.INTRA.VDW>
7.3266

>  <SCORE.INTRA.VDW.0>
-3.14158

>  <SCORE.INTRA.norm>
0.170781

>  <SCORE.RESTR>
4.71367

>  <SCORE.RESTR.CAVITY>
4.71367

>  <SCORE.RESTR.norm>
0.127397

>  <SCORE.SYSTEM>
0

>  <SCORE.SYSTEM.CONST>
0

>  <SCORE.SYSTEM.DIHEDRAL>
0

>  <SCORE.SYSTEM.SOLV>
0

>  <SCORE.SYSTEM.norm>
0

>  <SCORE.heavy>
37

>  <SCORE.norm>
0.794413

>  <RMSD>
14.179

$$$$
1yrj_lig
 OpenBabel11021811423D
libRbt.so/2013.1/901 2013/11/27
 37 40  0  0  0  0  0  0  0  0999 V2000
   32.1349    6.3935   16.6615 C   0  0  1  0  0  0  0  0  0  0  0  0
   33.3963    5.7843   16.0188 C   0  0  1  0  0  0  0  0  0  0  0  0
   34.6838    6.3549   16.6345 C   0  0  0  0  0  0  0  0  0  0  0  0
   34.6779    7.9030   16.5396 C   0  0  1  0  0  0  0  0  0  0  0  0
   33.4273    8.4697   17.2380 C   0  0  1  0  0  0  0  0  0  0  0  0
   33.4526   10.0532   17.1379 C   0  0  1  0  0  0  0  0  0  0  0  0
   34.7265   10.5940   17.8072 C   0  0  1  0  0  0  0  0  0  0  0  0
   35.9494    9.9579   17.1027 C   0  0  2  0  0  0  0  0  0  0  0  0
   35.1082   12.8044   19.0217 C   0  0  0  0  0  0  0  0  0  0  0  0
   33.4004    4.3145   16.1018 N   0  0  0  0  0  0  0  0  0  0  0  0
   34.7336   12.0891   17.7619 N   0  0  0  0  0  0  0  0  0  0  0  0
   31.8659    5.8992   17.9869 O   0  0  0  0  0  0  0  0  0  0  0  0
   32.2332    7.8655   16.6133 O   0  0  0  0  0  0  0  0  0  0  0  0
   35.8826    8.5047   17.1556 O   0  0  0  0  0  0  0  0  0  0  0  0
   33.4961   10.4370   15.7795 O   0  0  0  0  0  0  0  0  0  0  0  0
   37.1802   10.3599   17.7053 O   0  0  0  0  0  0  0  0  0  0  0  0
   38.3437    9.7820   17.0683 C   0  0  2  0  0  0  0  0  0  0  0  0
   39.6531   10.5076   17.4183 C   0  0  1  0  0  0  0  0  0  0  0  0
   39.6957   11.9232   16.7837 C   0  0  2  0  0  0  0  0  0  0  0  0
   39.5312   11.8201   15.2846 C   0  0  1  0  0  0  0  0  0  0  0  0
   38.1928   11.1131   14.9649 C   0  0  1  0  0  0  0  0  0  0  0  0
   37.9667   10.9224   13.4668 C   0  0  0  0  0  0  0  0  0  0  0  0
   39.5711   13.1811   14.7107 N   0  0  0  0  0  0  0  0  0  0  0  0
   38.1752    9.7814   15.5964 O   0  0  0  0  0  0  0  0  0  0  0  0
   39.7786   10.5496   18.8471 O   0  0  0  0  0  0  0  0  0  0  0  0
   40.9586   12.5411   17.0665 O   0  0  0  0  0  0  0  0  0  0  0  0
   37.8749   12.1767   12.8454 O   0  0  0  0  0  0  0  0  0  0  0  0
   30.8562    6.5247   18.9374 C   0  0  1  0  0  0  0  0  0  0  0  0
   31.3370    7.9632   19.2299 C   0  0  1  0  0  0  0  0  0  0  0  0
   30.3356    8.7134   20.1413 C   0  0  2  0  0  0  0  0  0  0  0  0
   28.9546    8.7580   19.4767 C   0  0  1  0  0  0  0  0  0  0  0  0
   28.4430    7.3191   19.2106 C   0  0  0  0  0  0  0  0  0  0  0  0
   29.4396    6.6011   18.2946 C   0  0  2  0  0  0  0  0  0  0  0  0
   27.9998    9.4666   20.3580 N   0  0  0  0  0  0  0  0  0  0  0  0
   28.9149    5.2597   18.0540 N   0  0  0  0  0  0  0  0  0  0  0  0
   32.6160    7.9060   19.8983 O   0  0  0  0  0  0  0  0  0  0  0  0
   30.8207   10.0555   20.3609 O   0  0  0  0  0  0  0  0  0  0  0  0
  1  2  1  0  0  0  0
  1 12  1  1  0  0  0
  1 13  1  0  0  0  0
  2  3  1  0  0  0  0
  2 10  1  1  0  0  0
  4  3  1  1  0  0  0
  4  5  1  0  0  0  0
  4 14  1  0  0  0  0
  5  6  1  0  0  0  0
  5 13  1  6  0  0  0
  6  7  1  0  0  0  0
  6 15  1  6  0  0  0
  7  8  1  0  0  0  0
  7 11  1  6  0  0  0
  8 14  1  0  0  0  0
  8 16  1  1  0  0  0
  9 11  1  0  0  0  0
 17 16  1  1  0  0  0
 17 18  1  0  0  0  0
 17 24  1  0  0  0  0
 18 19  1  0  0  0  0
 18 25  1  1  0  0  0
 19 20  1  0  0  0  0
 19 26  1  6  0  0  0
 20 21  1  0  0  0  0
 20 23  1  6  0  0  0
 21 22  1  6  0  0  0
 21 24  1  0  0  0  0
 22 27  1  0  0  0  0
 28 12  1  6  0  0  0
 28 29  1  0  0  0  0
 28 33  1  0  0  0  0
 29 30  1  0  0  0  0
 29 36  1  1  0  0  0
 30 31  1  0  0  0  0
 30 37  1  6  0  0  0
 31 32  1  0  0  0  0
 31 34  1  1  0  0  0
 32 33  1  0  0  0  0
 33 35  1  1  0  0  0
M  END
>  <CHROM.1>
167.62673342,134.49347913,-179.97042305,162.94972036,-63.37878041,-62.35557071
34.53037718,9.23883200,17.32933364,-2.93337390,0.48373074,0.56192037

>  <Name>
1yrj_lig

>  <RI>
0

>  <Rbt.Current_Directory>
/home/itssahil/PROJECTS/Mol_Feturizer/New_Systems/rnas/1yrj

>  <Rbt.Executable>
rbdock ($Id: //depot/dev/client3/rdock/2013.1/src/exe/rbdock.cxx#4 $)

>  <Rbt.Library>
libRbt.so (2013.1, Build901 2013/11/27)

>  <Rbt.Parameter_File>
/export/apps/rDock/src/rDock_2013.1_src/data/scripts/dock_solv.prm

>  <Rbt.Receptor>
prm/blind_docking_60.prm

>  <SCORE>
-11.1516

>  <SCORE.INTER>
-6.3179

>  <SCORE.INTER.CONST>
1

>  <SCORE.INTER.POLAR>
-0.751275

>  <SCORE.INTER.ROT>
6

>  <SCORE.INTER.SOLV>
15.399

>  <SCORE.INTER.VDW>
-14.4407

>  <SCORE.INTER.norm>
-0.170754

>  <SCORE.INTRA>
-5.54319

>  <SCORE.INTRA.DIHEDRAL>
-12.3712

>  <SCORE.INTRA.DIHEDRAL.0>
15.6389

>  <SCORE.INTRA.POLAR>
0

>  <SCORE.INTRA.POLAR.0>
0

>  <SCORE.INTRA.REPUL>
0

>  <SCORE.INTRA.REPUL.0>
0

>  <SCORE.INTRA.SOLV>
-0.575506

>  <SCORE.INTRA.SOLV.lig_0>
-90.9181

>  <SCORE.INTRA.VDW>
0.930181

>  <SCORE.INTRA.VDW.0>
-3.14158

>  <SCORE.INTRA.norm>
-0.149816

>  <SCORE.RESTR>
0.709522

>  <SCORE.RESTR.CAVITY>
0.709522

>  <SCORE.RESTR.norm>
0.0191763

>  <SCORE.SYSTEM>
0

>  <SCORE.SYSTEM.CONST>
0

>  <SCORE.SYSTEM.DIHEDRAL>
0

>  <SCORE.SYSTEM.SOLV>
0

>  <SCORE.SYSTEM.norm>
0

>  <SCORE.heavy>
37

>  <SCORE.norm>
-0.301394

>  <RMSD>
14.190

$$$$
1yrj_lig
 OpenBabel11021811423D
libRbt.so/2013.1/901 2013/11/27
 37 40  0  0  0  0  0  0  0  0999 V2000
   31.0452    8.7125   19.9021 C   0  0  1  0  0  0  0  0  0  0  0  0
   31.5336   10.1167   19.4955 C   0  0  1  0  0  0  0  0  0  0  0  0
   32.4515   10.0678   18.2637 C   0  0  0  0  0  0  0  0  0  0  0  0
   33.6338    9.0971   18.5195 C   0  0  1  0  0  0  0  0  0  0  0  0
   33.0994    7.6961   18.8724 C   0  0  1  0  0  0  0  0  0  0  0  0
   34.3273    6.7210   19.1161 C   0  0  1  0  0  0  0  0  0  0  0  0
   35.1957    6.6555   17.8492 C   0  0  1  0  0  0  0  0  0  0  0  0
   35.6654    8.0912   17.5110 C   0  0  2  0  0  0  0  0  0  0  0  0
   36.1359    4.3033   17.5496 C   0  0  0  0  0  0  0  0  0  0  0  0
   30.4129   11.0414   19.2588 N   0  0  0  0  0  0  0  0  0  0  0  0
   36.3277    5.6992   18.0533 N   0  0  0  0  0  0  0  0  0  0  0  0
   30.0406    8.1735   19.0226 O   0  0  0  0  0  0  0  0  0  0  0  0
   32.2120    7.8202   20.0465 O   0  0  0  0  0  0  0  0  0  0  0  0
   34.5284    8.9849   17.3449 O   0  0  0  0  0  0  0  0  0  0  0  0
   35.1358    7.2347   20.1538 O   0  0  0  0  0  0  0  0  0  0  0  0
   36.4310    8.1314   16.3061 O   0  0  0  0  0  0  0  0  0  0  0  0
   36.8484    9.4672   15.9387 C   0  0  2  0  0  0  0  0  0  0  0  0
   37.6759    9.5123   14.6438 C   0  0  1  0  0  0  0  0  0  0  0  0
   39.0694    8.8601   14.8469 C   0  0  2  0  0  0  0  0  0  0  0  0
   39.8041    9.5556   15.9700 C   0  0  1  0  0  0  0  0  0  0  0  0
   38.9608    9.4675   17.2639 C   0  0  1  0  0  0  0  0  0  0  0  0
   39.6084   10.1895   18.4434 C   0  0  0  0  0  0  0  0  0  0  0  0
   41.1224    8.9107   16.1421 N   0  0  0  0  0  0  0  0  0  0  0  0
   37.6386   10.0768   17.0336 O   0  0  0  0  0  0  0  0  0  0  0  0
   36.9232    8.8712   13.6038 O   0  0  0  0  0  0  0  0  0  0  0  0
   39.8411    8.9862   13.6447 O   0  0  0  0  0  0  0  0  0  0  0  0
   39.8119   11.5371   18.1109 O   0  0  0  0  0  0  0  0  0  0  0  0
   29.0709    7.0697   19.4172 C   0  0  1  0  0  0  0  0  0  0  0  0
   28.1966    6.7683   18.1799 C   0  0  1  0  0  0  0  0  0  0  0  0
   27.2147    5.6045   18.4587 C   0  0  2  0  0  0  0  0  0  0  0  0
   27.9943    4.3455   18.8565 C   0  0  1  0  0  0  0  0  0  0  0  0
   28.8486    4.6230   20.1198 C   0  0  0  0  0  0  0  0  0  0  0  0
   29.8233    5.7659   19.8167 C   0  0  2  0  0  0  0  0  0  0  0  0
   27.0493    3.2403   19.1323 N   0  0  0  0  0  0  0  0  0  0  0  0
   30.6196    5.9843   21.0213 N   0  0  0  0  0  0  0  0  0  0  0  0
   27.4321    7.9468   17.8445 O   0  0  0  0  0  0  0  0  0  0  0  0
   26.4429    5.3501   17.2654 O   0  0  0  0  0  0  0  0  0  0  0  0
  1  2  1  0  0  0  0
  1 12  1  6  0  0  0
  1 13  1  0  0  0  0
  2  3  1  0  0  0  0
  2 10  1  6  0  0  0
  4  3  1  6  0  0  0
  4  5  1  0  0  0  0
  4 14  1  0  0  0  0
  5  6  1  0  0  0  0
  5 13  1  1  0  0  0
  6  7  1  0  0  0  0
  6 15  1  1  0  0  0
  7  8  1  0  0  0  0
  7 11  1  1  0  0  0
  8 14  1  0  0  0  0
  8 16  1  6  0  0  0
  9 11  1  0  0  0  0
 17 16  1  1  0  0  0
 17 18  1  0  0  0  0
 17 24  1  0  0  0  0
 18 19  1  0  0  0  0
 18 25  1  6  0  0  0
 19 20  1  0  0  0  0
 19 26  1  6  0  0  0
 20 21  1  0  0  0  0
 20 23  1  1  0  0  0
 21 22  1  1  0  0  0
 21 24  1  0  0  0  0
 22 27  1  0  0  0  0
 28 12  1  6  0  0  0
 28 29  1  0  0  0  0
 28 33  1  0  0  0  0
 29 30  1  0  0  0  0
 29 36  1  1  0  0  0
 30 31  1  0  0  0  0
 30 37  1  6  0  0  0
 31 32  1  0  0  0  0
 31 34  1  1  0  0  0
 32 33  1  0  0  0  0
 33 35  1  1  0  0  0
M  END
>  <CHROM.1>
-158.57150359,96.13403767,178.09804859,179.84666920,57.96480011,-178.57204269
33.76761322,7.87480379,17.89316914,2.93334908,-0.33102058,-2.88749708

>  <Name>
1yrj_lig

>  <RI>
0

>  <Rbt.Current_Directory>
/home/itssahil/PROJECTS/Mol_Feturizer/New_Systems/rnas/1yrj

>  <Rbt.Executable>
rbdock ($Id: //depot/dev/client3/rdock/2013.1/src/exe/rbdock.cxx#4 $)

>  <Rbt.Library>
libRbt.so (2013.1, Build901 2013/11/27)

>  <Rbt.Parameter_File>
/export/apps/rDock/src/rDock_2013.1_src/data/scripts/dock_solv.prm

>  <Rbt.Receptor>
prm/blind_docking_100.prm

>  <SCORE>
-11.8152

>  <SCORE.INTER>
-6.41876

>  <SCORE.INTER.CONST>
1

>  <SCORE.INTER.POLAR>
0

>  <SCORE.INTER.ROT>
6

>  <SCORE.INTER.SOLV>
10.1684

>  <SCORE.INTER.VDW>
-15.2686

>  <SCORE.INTER.norm>
-0.17348

>  <SCORE.INTRA>
-5.4592

>  <SCORE.INTRA.DIHEDRAL>
-12.6942

>  <SCORE.INTRA.DIHEDRAL.0>
15.6389

>  <SCORE.INTRA.POLAR>
0

>  <SCORE.INTRA.POLAR.0>
0

>  <SCORE.INTRA.REPUL>
0

>  <SCORE.INTRA.REPUL.0>
0

>  <SCORE.INTRA.SOLV>
0.210023

>  <SCORE.INTRA.SOLV.lig_0>
-90.9181

>  <SCORE.INTRA.VDW>
0.782899

>  <SCORE.INTRA.VDW.0>
-3.14158

>  <SCORE.INTRA.norm>
-0.147546

>  <SCORE.RESTR>
0.0627466

>  <SCORE.RESTR.CAVITY>
0.0627466

>  <SCORE.RESTR.norm>
0.00169586

>  <SCORE.SYSTEM>
0

>  <SCORE.SYSTEM.CONST>
0

>  <SCORE.SYSTEM.DIHEDRAL>
0

>  <SCORE.SYSTEM.SOLV>
0

>  <SCORE.SYSTEM.norm>
0

>  <SCORE.heavy>
37

>  <SCORE.norm>
-0.31933

>  <RMSD>
14.202

$$$$
1yrj_lig
 OpenBabel11021811423D
libRbt.so/2013.1/901 2013/11/27
 37 40  0  0  0  0  0  0  0  0999 V2000
   31.4990    9.6516   19.4207 C   0  0  1  0  0  0  0  0  0  0  0  0
   32.1713   11.0330   19.2973 C   0  0  1  0  0  0  0  0  0  0  0  0
   33.3903   10.9937   18.3620 C   0  0  0  0  0  0  0  0  0  0  0  0
   34.3893    9.9059   18.8356 C   0  0  1  0  0  0  0  0  0  0  0  0
   33.6880    8.5356   18.8953 C   0  0  1  0  0  0  0  0  0  0  0  0
   34.7338    7.4403   19.3693 C   0  0  1  0  0  0  0  0  0  0  0  0
   35.9141    7.3914   18.3854 C   0  0  1  0  0  0  0  0  0  0  0  0
   36.5514    8.8009   18.3254 C   0  0  2  0  0  0  0  0  0  0  0  0
   36.6307    4.9458   18.2763 C   0  0  0  0  0  0  0  0  0  0  0  0
   31.2231   12.0682   18.8544 N   0  0  0  0  0  0  0  0  0  0  0  0
   36.8801    6.3262   18.7971 N   0  0  0  0  0  0  0  0  0  0  0  0
   30.7458    9.2698   18.2544 O   0  0  0  0  0  0  0  0  0  0  0  0
   32.5192    8.6512   19.7908 O   0  0  0  0  0  0  0  0  0  0  0  0
   35.5659    9.8015   17.9427 O   0  0  0  0  0  0  0  0  0  0  0  0
   35.2535    7.8027   20.6315 O   0  0  0  0  0  0  0  0  0  0  0  0
   37.6227    8.8615   17.3830 O   0  0  0  0  0  0  0  0  0  0  0  0
   38.6265    9.8471   17.7217 C   0  0  2  0  0  0  0  0  0  0  0  0
   38.3452   11.2341   17.1211 C   0  0  1  0  0  0  0  0  0  0  0  0
   38.5155   11.2212   15.5787 C   0  0  2  0  0  0  0  0  0  0  0  0
   39.9095   10.7605   15.2188 C   0  0  1  0  0  0  0  0  0  0  0  0
   40.1510    9.3520   15.8114 C   0  0  1  0  0  0  0  0  0  0  0  0
   41.5581    8.8268   15.5360 C   0  0  0  0  0  0  0  0  0  0  0  0
   40.0392   10.7543   13.7469 N   0  0  0  0  0  0  0  0  0  0  0  0
   39.9632    9.3928   17.2727 O   0  0  0  0  0  0  0  0  0  0  0  0
   37.0274   11.6398   17.5181 O   0  0  0  0  0  0  0  0  0  0  0  0
   38.3201   12.5442   15.0605 O   0  0  0  0  0  0  0  0  0  0  0  0
   41.6664    8.4692   14.1839 O   0  0  0  0  0  0  0  0  0  0  0  0
   29.7826    8.0929   18.2139 C   0  0  1  0  0  0  0  0  0  0  0  0
   30.6042    6.8216   18.5220 C   0  0  1  0  0  0  0  0  0  0  0  0
   29.6977    5.5678   18.5710 C   0  0  2  0  0  0  0  0  0  0  0  0
   28.6109    5.7487   19.6373 C   0  0  1  0  0  0  0  0  0  0  0  0
   27.7545    7.0012   19.3203 C   0  0  0  0  0  0  0  0  0  0  0  0
   28.6679    8.2311   19.2928 C   0  0  2  0  0  0  0  0  0  0  0  0
   27.7414    4.5515   19.6711 N   0  0  0  0  0  0  0  0  0  0  0  0
   27.8239    9.3888   19.0097 N   0  0  0  0  0  0  0  0  0  0  0  0
   31.5926    6.6363   17.4853 O   0  0  0  0  0  0  0  0  0  0  0  0
   30.5108    4.4170   18.8858 O   0  0  0  0  0  0  0  0  0  0  0  0
  1  2  1  0  0  0  0
  1 12  1  6  0  0  0
  1 13  1  0  0  0  0
  2  3  1  0  0  0  0
  2 10  1  6  0  0  0
  4  3  1  6  0  0  0
  4  5  1  0  0  0  0
  4 14  1  0  0  0  0
  5  6  1  0  0  0  0
  5 13  1  1  0  0  0
  6  7  1  0  0  0  0
  6 15  1  1  0  0  0
  7  8  1  0  0  0  0
  7 11  1  1  0  0  0
  8 14  1  0  0  0  0
  8 16  1  6  0  0  0
  9 11  1  0  0  0  0
 17 16  1  6  0  0  0
 17 18  1  0  0  0  0
 17 24  1  0  0  0  0
 18 19  1  0  0  0  0
 18 25  1  6  0  0  0
 19 20  1  0  0  0  0
 19 26  1  1  0  0  0
 20 21  1  0  0  0  0
 20 23  1  6  0  0  0
 21 22  1  1  0  0  0
 21 24  1  0  0  0  0
 22 27  1  0  0  0  0
 28 12  1  1  0  0  0
 28 29  1  0  0  0  0
 28 33  1  0  0  0  0
 29 30  1  0  0  0  0
 29 36  1  6  0  0  0
 30 31  1  0  0  0  0
 30 37  1  1  0  0  0
 31 32  1  0  0  0  0
 31 34  1  6  0  0  0
 32 33  1  0  0  0  0
 33 35  1  6  0  0  0
M  END
>  <CHROM.1>
-168.01023954,87.87031070,-151.54189735,-90.16666379,-73.00172372,-60.88344002
34.53406740,8.69826569,17.93462062,2.85222956,-0.27113571,3.01022622

>  <Name>
1yrj_lig

>  <RI>
224

>  <Rbt.Current_Directory>
/home/itssahil/PROJECTS/Mol_Feturizer/New_Systems/rnas/1yrj

>  <Rbt.Executable>
rbdock ($Id: //depot/dev/client3/rdock/2013.1/src/exe/rbdock.cxx#4 $)

>  <Rbt.Library>
libRbt.so (2013.1, Build901 2013/11/27)

>  <Rbt.Parameter_File>
/export/apps/rDock/src/rDock_2013.1_src/data/scripts/dock_solv.prm

>  <Rbt.Receptor>
prm/blind_docking_80.prm

>  <SCORE>
-11.1867

>  <SCORE.INTER>
-8.34641

>  <SCORE.INTER.CONST>
1

>  <SCORE.INTER.POLAR>
0

>  <SCORE.INTER.ROT>
6

>  <SCORE.INTER.SOLV>
6.81602

>  <SCORE.INTER.VDW>
-15.4363

>  <SCORE.INTER.norm>
-0.225579

>  <SCORE.INTRA>
-2.84027

>  <SCORE.INTRA.DIHEDRAL>
-6.8218

>  <SCORE.INTRA.DIHEDRAL.0>
15.6389

>  <SCORE.INTRA.POLAR>
0

>  <SCORE.INTRA.POLAR.0>
0

>  <SCORE.INTRA.REPUL>
0

>  <SCORE.INTRA.REPUL.0>
0

>  <SCORE.INTRA.SOLV>
-0.439197

>  <SCORE.INTRA.SOLV.lig_0>
-90.9181

>  <SCORE.INTRA.VDW>
0.790224

>  <SCORE.INTRA.VDW.0>
-3.14158

>  <SCORE.INTRA.norm>
-0.0767642

>  <SCORE.RESTR>
0

>  <SCORE.RESTR.CAVITY>
0

>  <SCORE.RESTR.norm>
0

>  <SCORE.SYSTEM>
0

>  <SCORE.SYSTEM.CONST>
0

>  <SCORE.SYSTEM.DIHEDRAL>
0

>  <SCORE.SYSTEM.SOLV>
0

>  <SCORE.SYSTEM.norm>
0

>  <SCORE.heavy>
37

>  <SCORE.norm>
-0.302343

>  <RMSD>
14.202

$$$$
1yrj_lig
 OpenBabel11021811423D
libRbt.so/2013.1/901 2013/11/27
 37 40  0  0  0  0  0  0  0  0999 V2000
   36.5254    9.1243   19.0820 C   0  0  1  0  0  0  0  0  0  0  0  0
   35.7276    9.1332   20.4007 C   0  0  1  0  0  0  0  0  0  0  0  0
   34.7592    7.9430   20.4906 C   0  0  0  0  0  0  0  0  0  0  0  0
   33.8263    7.9216   19.2517 C   0  0  1  0  0  0  0  0  0  0  0  0
   34.6647    7.8618   17.9608 C   0  0  1  0  0  0  0  0  0  0  0  0
   33.6874    7.8278   16.7112 C   0  0  1  0  0  0  0  0  0  0  0  0
   32.7683    6.5991   16.8059 C   0  0  1  0  0  0  0  0  0  0  0  0
   31.9869    6.6823   18.1397 C   0  0  2  0  0  0  0  0  0  0  0  0
   32.2711    5.5781   14.5219 C   0  0  0  0  0  0  0  0  0  0  0  0
   36.6114    9.1603   21.5777 N   0  0  0  0  0  0  0  0  0  0  0  0
   31.8780    6.5318   15.6059 N   0  0  0  0  0  0  0  0  0  0  0  0
   37.5588    8.1226   19.0390 O   0  0  0  0  0  0  0  0  0  0  0  0
   35.5837    9.0180   17.9504 O   0  0  0  0  0  0  0  0  0  0  0  0
   32.8978    6.7683   19.2718 O   0  0  0  0  0  0  0  0  0  0  0  0
   32.8612    8.9731   16.7302 O   0  0  0  0  0  0  0  0  0  0  0  0
   31.1503    5.5422   18.3390 O   0  0  0  0  0  0  0  0  0  0  0  0
   30.1925    5.7165   19.4095 C   0  0  2  0  0  0  0  0  0  0  0  0
   28.8549    5.0038   19.1521 C   0  0  1  0  0  0  0  0  0  0  0  0
   28.0705    5.6848   17.9992 C   0  0  2  0  0  0  0  0  0  0  0  0
   27.8401    7.1428   18.3246 C   0  0  1  0  0  0  0  0  0  0  0  0
   29.2039    7.8379   18.5487 C   0  0  1  0  0  0  0  0  0  0  0  0
   29.0630    9.3094   18.9315 C   0  0  0  0  0  0  0  0  0  0  0  0
   27.0968    7.7637   17.2086 N   0  0  0  0  0  0  0  0  0  0  0  0
   29.9319    7.1574   19.6347 O   0  0  0  0  0  0  0  0  0  0  0  0
   29.1244    3.6205   18.8820 O   0  0  0  0  0  0  0  0  0  0  0  0
   26.7982    5.0431   17.8363 O   0  0  0  0  0  0  0  0  0  0  0  0
   30.3367    9.8682   19.1139 O   0  0  0  0  0  0  0  0  0  0  0  0
   38.5524    7.9766   17.8963 C   0  0  1  0  0  0  0  0  0  0  0  0
   37.7468    7.5737   16.6414 C   0  0  1  0  0  0  0  0  0  0  0  0
   38.6637    7.4644   15.3991 C   0  0  2  0  0  0  0  0  0  0  0  0
   39.3690    8.8028   15.1494 C   0  0  1  0  0  0  0  0  0  0  0  0
   40.2116    9.2018   16.3878 C   0  0  0  0  0  0  0  0  0  0  0  0
   39.2829    9.3200   17.6009 C   0  0  2  0  0  0  0  0  0  0  0  0
   40.2522    8.6880   13.9673 N   0  0  0  0  0  0  0  0  0  0  0  0
   40.1086    9.7136   18.7393 N   0  0  0  0  0  0  0  0  0  0  0  0
   37.1265    6.2898   16.8716 O   0  0  0  0  0  0  0  0  0  0  0  0
   37.8576    7.1108   14.2546 O   0  0  0  0  0  0  0  0  0  0  0  0
  1  2  1  0  0  0  0
  1 12  1  1  0  0  0
  1 13  1  0  0  0  0
  2  3  1  0  0  0  0
  2 10  1  1  0  0  0
  4  3  1  1  0  0  0
  4  5  1  0  0  0  0
  4 14  1  0  0  0  0
  5  6  1  0  0  0  0
  5 13  1  6  0  0  0
  6  7  1  0  0  0  0
  6 15  1  1  0  0  0
  7  8  1  0  0  0  0
  7 11  1  6  0  0  0
  8 14  1  0  0  0  0
  8 16  1  1  0  0  0
  9 11  1  0  0  0  0
 17 16  1  6  0  0  0
 17 18  1  0  0  0  0
 17 24  1  0  0  0  0
 18 19  1  0  0  0  0
 18 25  1  6  0  0  0
 19 20  1  0  0  0  0
 19 26  1  1  0  0  0
 20 21  1  0  0  0  0
 20 23  1  6  0  0  0
 21 22  1  1  0  0  0
 21 24  1  0  0  0  0
 22 27  1  0  0  0  0
 28 12  1  1  0  0  0
 28 29  1  0  0  0  0
 28 33  1  0  0  0  0
 29 30  1  0  0  0  0
 29 36  1  1  0  0  0
 30 31  1  0  0  0  0
 30 37  1  6  0  0  0
 31 32  1  0  0  0  0
 31 34  1  6  0  0  0
 32 33  1  0  0  0  0
 33 35  1  1  0  0  0
M  END
>  <CHROM.1>
-175.18837052,100.48914899,-167.04486908,146.08102107,-179.86843496,-65.17577660
33.74826085,7.51923184,17.83098585,-0.04086683,0.25033982,1.13663480

>  <Name>
1yrj_lig

>  <RI>
224

>  <Rbt.Current_Directory>
/home/itssahil/PROJECTS/Mol_Feturizer/New_Systems/rnas/1yrj

>  <Rbt.Executable>
rbdock ($Id: //depot/dev/client3/rdock/2013.1/src/exe/rbdock.cxx#4 $)

>  <Rbt.Library>
libRbt.so (2013.1, Build901 2013/11/27)

>  <Rbt.Parameter_File>
/export/apps/rDock/src/rDock_2013.1_src/data/scripts/dock_solv.prm

>  <Rbt.Receptor>
prm/blind_docking_80.prm

>  <SCORE>
-13.6279

>  <SCORE.INTER>
-8.67576

>  <SCORE.INTER.CONST>
1

>  <SCORE.INTER.POLAR>
0

>  <SCORE.INTER.ROT>
6

>  <SCORE.INTER.SOLV>
22.8679

>  <SCORE.INTER.VDW>
-21.0065

>  <SCORE.INTER.norm>
-0.23448

>  <SCORE.INTRA>
-5.07134

>  <SCORE.INTRA.DIHEDRAL>
-9.26259

>  <SCORE.INTRA.DIHEDRAL.0>
15.6389

>  <SCORE.INTRA.POLAR>
0

>  <SCORE.INTRA.POLAR.0>
0

>  <SCORE.INTRA.REPUL>
0

>  <SCORE.INTRA.REPUL.0>
0

>  <SCORE.INTRA.SOLV>
-1.33021

>  <SCORE.INTRA.SOLV.lig_0>
-90.9181

>  <SCORE.INTRA.VDW>
0.22506

>  <SCORE.INTRA.VDW.0>
-3.14158

>  <SCORE.INTRA.norm>
-0.137063

>  <SCORE.RESTR>
0.119197

>  <SCORE.RESTR.CAVITY>
0.119197

>  <SCORE.RESTR.norm>
0.00322155

>  <SCORE.SYSTEM>
0

>  <SCORE.SYSTEM.CONST>
0

>  <SCORE.SYSTEM.DIHEDRAL>
0

>  <SCORE.SYSTEM.SOLV>
0

>  <SCORE.SYSTEM.norm>
0

>  <SCORE.heavy>
37

>  <SCORE.norm>
-0.368322

>  <RMSD>
14.214

$$$$
1yrj_lig
 OpenBabel11021811423D
libRbt.so/2013.1/901 2013/11/27
 37 40  0  0  0  0  0  0  0  0999 V2000
   31.2082    7.8669   20.5986 C   0  0  1  0  0  0  0  0  0  0  0  0
   31.8078    9.1682   20.0307 C   0  0  1  0  0  0  0  0  0  0  0  0
   31.8017    9.1770   18.4937 C   0  0  0  0  0  0  0  0  0  0  0  0
   32.5317    7.9205   17.9517 C   0  0  1  0  0  0  0  0  0  0  0  0
   31.8680    6.6450   18.5046 C   0  0  1  0  0  0  0  0  0  0  0  0
   32.6246    5.3762   17.9252 C   0  0  1  0  0  0  0  0  0  0  0  0
   32.5557    5.3889   16.3895 C   0  0  1  0  0  0  0  0  0  0  0  0
   33.1895    6.7094   15.8885 C   0  0  2  0  0  0  0  0  0  0  0  0
   32.6043    2.8481   16.1685 C   0  0  0  0  0  0  0  0  0  0  0  0
   31.1205   10.3623   20.5493 N   0  0  0  0  0  0  0  0  0  0  0  0
   33.2231    4.1696   15.8369 N   0  0  0  0  0  0  0  0  0  0  0  0
   29.7751    7.7924   20.4818 O   0  0  0  0  0  0  0  0  0  0  0  0
   31.8895    6.7129   19.9798 O   0  0  0  0  0  0  0  0  0  0  0  0
   32.5193    7.8623   16.4722 O   0  0  0  0  0  0  0  0  0  0  0  0
   33.9888    5.4384   18.2853 O   0  0  0  0  0  0  0  0  0  0  0  0
   33.1112    6.8326   14.4679 O   0  0  0  0  0  0  0  0  0  0  0  0
   34.2019    7.5948   13.8996 C   0  0  2  0  0  0  0  0  0  0  0  0
   35.5498    6.8570   13.9462 C   0  0  1  0  0  0  0  0  0  0  0  0
   36.0665    6.7265   15.4037 C   0  0  2  0  0  0  0  0  0  0  0  0
   36.1903    8.0965   16.0303 C   0  0  1  0  0  0  0  0  0  0  0  0
   34.8133    8.8007   15.9950 C   0  0  1  0  0  0  0  0  0  0  0  0
   34.8569   10.2160   16.5667 C   0  0  0  0  0  0  0  0  0  0  0  0
   36.6788    7.9394   17.4159 N   0  0  0  0  0  0  0  0  0  0  0  0
   34.3414    8.8920   14.6016 O   0  0  0  0  0  0  0  0  0  0  0  0
   35.3884    5.5802   13.3114 O   0  0  0  0  0  0  0  0  0  0  0  0
   37.3577    6.1021   15.4040 O   0  0  0  0  0  0  0  0  0  0  0  0
   35.1059   10.1547   17.9458 O   0  0  0  0  0  0  0  0  0  0  0  0
   29.0510    6.9659   19.4297 C   0  0  1  0  0  0  0  0  0  0  0  0
   28.7674    5.5818   20.0541 C   0  0  1  0  0  0  0  0  0  0  0  0
   27.9686    4.6818   19.0803 C   0  0  2  0  0  0  0  0  0  0  0  0
   26.6443    5.3591   18.7081 C   0  0  1  0  0  0  0  0  0  0  0  0
   26.9152    6.7343   18.0463 C   0  0  0  0  0  0  0  0  0  0  0  0
   27.6916    7.6136   19.0322 C   0  0  2  0  0  0  0  0  0  0  0  0
   25.8910    4.4986   17.7687 N   0  0  0  0  0  0  0  0  0  0  0  0
   27.9108    8.9020   18.3805 N   0  0  0  0  0  0  0  0  0  0  0  0
   30.0227    4.9347   20.3561 O   0  0  0  0  0  0  0  0  0  0  0  0
   27.7109    3.4145   19.7224 O   0  0  0  0  0  0  0  0  0  0  0  0
  1  2  1  0  0  0  0
  1 12  1  6  0  0  0
  1 13  1  0  0  0  0
  2  3  1  0  0  0  0
  2 10  1  1  0  0  0
  4  3  1  6  0  0  0
  4  5  1  0  0  0  0
  4 14  1  0  0  0  0
  5  6  1  0  0  0  0
  5 13  1  1  0  0  0
  6  7  1  0  0  0  0
  6 15  1  6  0  0  0
  7  8  1  0  0  0  0
  7 11  1  6  0  0  0
  8 14  1  0  0  0  0
  8 16  1  6  0  0  0
  9 11  1  0  0  0  0
 17 16  1  1  0  0  0
 17 18  1  0  0  0  0
 17 24  1  0  0  0  0
 18 19  1  0  0  0  0
 18 25  1  1  0  0  0
 19 20  1  0  0  0  0
 19 26  1  6  0  0  0
 20 21  1  0  0  0  0
 20 23  1  1  0  0  0
 21 22  1  6  0  0  0
 21 24  1  0  0  0  0
 22 27  1  0  0  0  0
 28 12  1  1  0  0  0
 28 29  1  0  0  0  0
 28 33  1  0  0  0  0
 29 30  1  0  0  0  0
 29 36  1  6  0  0  0
 30 31  1  0  0  0  0
 30 37  1  1  0  0  0
 31 32  1  0  0  0  0
 31 34  1  6  0  0  0
 32 33  1  0  0  0  0
 33 35  1  6  0  0  0
M  END
>  <CHROM.1>
102.55446498,64.13538514,-149.94146098,70.89382114,-67.73608161,92.31206026
32.06368095,6.90034722,17.53258256,-3.02432335,-0.50882203,-2.57838288

>  <Name>
1yrj_lig

>  <RI>
0

>  <Rbt.Current_Directory>
/home/itssahil/PROJECTS/Mol_Feturizer/New_Systems/rnas/1yrj

>  <Rbt.Executable>
rbdock ($Id: //depot/dev/client3/rdock/2013.1/src/exe/rbdock.cxx#4 $)

>  <Rbt.Library>
libRbt.so (2013.1, Build901 2013/11/27)

>  <Rbt.Parameter_File>
/export/apps/rDock/src/rDock_2013.1_src/data/scripts/dock_solv.prm

>  <Rbt.Receptor>
prm/blind_docking_60.prm

>  <SCORE>
-10.0879

>  <SCORE.INTER>
-14.6936

>  <SCORE.INTER.CONST>
1

>  <SCORE.INTER.POLAR>
-1.57455

>  <SCORE.INTER.ROT>
6

>  <SCORE.INTER.SOLV>
13.0323

>  <SCORE.INTER.VDW>
-16.4914

>  <SCORE.INTER.norm>
-0.397125

>  <SCORE.INTRA>
4.59557

>  <SCORE.INTRA.DIHEDRAL>
-1.42429

>  <SCORE.INTRA.DIHEDRAL.0>
15.6389

>  <SCORE.INTRA.POLAR>
0

>  <SCORE.INTRA.POLAR.0>
0

>  <SCORE.INTRA.REPUL>
0

>  <SCORE.INTRA.REPUL.0>
0

>  <SCORE.INTRA.SOLV>
3.29229

>  <SCORE.INTRA.SOLV.lig_0>
-90.9181

>  <SCORE.INTRA.VDW>
3.66157

>  <SCORE.INTRA.VDW.0>
-3.14158

>  <SCORE.INTRA.norm>
0.124205

>  <SCORE.RESTR>
0.0102033

>  <SCORE.RESTR.CAVITY>
0.0102033

>  <SCORE.RESTR.norm>
0.000275765

>  <SCORE.SYSTEM>
0

>  <SCORE.SYSTEM.CONST>
0

>  <SCORE.SYSTEM.DIHEDRAL>
0

>  <SCORE.SYSTEM.SOLV>
0

>  <SCORE.SYSTEM.norm>
0

>  <SCORE.heavy>
37

>  <SCORE.norm>
-0.272645

>  <RMSD>
14.230

$$$$
1yrj_lig
 OpenBabel11021811423D
libRbt.so/2013.1/901 2013/11/27
 37 40  0  0  0  0  0  0  0  0999 V2000
   36.4917    5.7937   15.4545 C   0  0  1  0  0  0  0  0  0  0  0  0
   35.2298    5.8496   14.5713 C   0  0  1  0  0  0  0  0  0  0  0  0
   34.2030    6.8610   15.1053 C   0  0  0  0  0  0  0  0  0  0  0  0
   33.8592    6.5398   16.5832 C   0  0  1  0  0  0  0  0  0  0  0  0
   35.1419    6.5445   17.4363 C   0  0  1  0  0  0  0  0  0  0  0  0
   34.7610    6.2266   18.9436 C   0  0  1  0  0  0  0  0  0  0  0  0
   33.7734    7.2845   19.4622 C   0  0  1  0  0  0  0  0  0  0  0  0
   32.5272    7.2730   18.5439 C   0  0  2  0  0  0  0  0  0  0  0  0
   33.0380    8.1969   21.7279 C   0  0  0  0  0  0  0  0  0  0  0  0
   35.5547    6.1476   13.1667 N   0  0  0  0  0  0  0  0  0  0  0  0
   33.4482    7.0210   20.8982 N   0  0  0  0  0  0  0  0  0  0  0  0
   37.3546    6.9361   15.3017 O   0  0  0  0  0  0  0  0  0  0  0  0
   36.0882    5.5699   16.8566 O   0  0  0  0  0  0  0  0  0  0  0  0
   32.9006    7.5115   17.1573 O   0  0  0  0  0  0  0  0  0  0  0  0
   34.1093    4.9753   19.0091 O   0  0  0  0  0  0  0  0  0  0  0  0
   31.5801    8.2740   18.9186 O   0  0  0  0  0  0  0  0  0  0  0  0
   30.4035    8.2910   18.0765 C   0  0  2  0  0  0  0  0  0  0  0  0
   29.3244    9.2747   18.5575 C   0  0  1  0  0  0  0  0  0  0  0  0
   28.6780    8.7923   19.8834 C   0  0  2  0  0  0  0  0  0  0  0  0
   28.0916    7.4117   19.6972 C   0  0  1  0  0  0  0  0  0  0  0  0
   29.2064    6.4401   19.2425 C   0  0  1  0  0  0  0  0  0  0  0  0
   28.6905    5.0265   18.9828 C   0  0  0  0  0  0  0  0  0  0  0  0
   27.4890    6.9787   20.9750 N   0  0  0  0  0  0  0  0  0  0  0  0
   29.8127    6.9350   17.9935 O   0  0  0  0  0  0  0  0  0  0  0  0
   29.9214   10.5733   18.6860 O   0  0  0  0  0  0  0  0  0  0  0  0
   27.6270    9.6913   20.2629 O   0  0  0  0  0  0  0  0  0  0  0  0
   28.1938    4.4843   20.1775 O   0  0  0  0  0  0  0  0  0  0  0  0
   37.0491    8.3130   15.8720 C   0  0  1  0  0  0  0  0  0  0  0  0
   38.0986    8.5938   16.9701 C   0  0  1  0  0  0  0  0  0  0  0  0
   37.9146   10.0084   17.5711 C   0  0  2  0  0  0  0  0  0  0  0  0
   38.0303   11.0658   16.4668 C   0  0  1  0  0  0  0  0  0  0  0  0
   36.9579   10.8178   15.3753 C   0  0  0  0  0  0  0  0  0  0  0  0
   37.1685    9.4202   14.7833 C   0  0  2  0  0  0  0  0  0  0  0  0
   37.8424   12.4146   17.0463 N   0  0  0  0  0  0  0  0  0  0  0  0
   36.1536    9.2323   13.7501 N   0  0  0  0  0  0  0  0  0  0  0  0
   37.9478    7.6204   18.0263 O   0  0  0  0  0  0  0  0  0  0  0  0
   38.9334   10.2260   18.5708 O   0  0  0  0  0  0  0  0  0  0  0  0
  1  2  1  0  0  0  0
  1 12  1  1  0  0  0
  1 13  1  0  0  0  0
  2  3  1  0  0  0  0
  2 10  1  6  0  0  0
  4  3  1  6  0  0  0
  4  5  1  0  0  0  0
  4 14  1  0  0  0  0
  5  6  1  0  0  0  0
  5 13  1  6  0  0  0
  6  7  1  0  0  0  0
  6 15  1  6  0  0  0
  7  8  1  0  0  0  0
  7 11  1  1  0  0  0
  8 14  1  0  0  0  0
  8 16  1  1  0  0  0
  9 11  1  0  0  0  0
 17 16  1  1  0  0  0
 17 18  1  0  0  0  0
 17 24  1  0  0  0  0
 18 19  1  0  0  0  0
 18 25  1  1  0  0  0
 19 20  1  0  0  0  0
 19 26  1  6  0  0  0
 20 21  1  0  0  0  0
 20 23  1  1  0  0  0
 21 22  1  6  0  0  0
 21 24  1  0  0  0  0
 22 27  1  0  0  0  0
 28 12  1  6  0  0  0
 28 29  1  0  0  0  0
 28 33  1  0  0  0  0
 29 30  1  0  0  0  0
 29 36  1  1  0  0  0
 30 31  1  0  0  0  0
 30 37  1  1  0  0  0
 31 32  1  0  0  0  0
 31 34  1  1  0  0  0
 32 33  1  0  0  0  0
 33 35  1  6  0  0  0
M  END
>  <CHROM.1>
74.26071651,153.37632820,179.87291161,174.49532678,-63.21155437,113.13983401
33.58135452,7.78878624,17.76892999,0.02008272,-0.43188072,-2.73278446

>  <Name>
1yrj_lig

>  <RI>
0

>  <Rbt.Current_Directory>
/home/itssahil/PROJECTS/Mol_Feturizer/New_Systems/rnas/1yrj

>  <Rbt.Executable>
rbdock ($Id: //depot/dev/client3/rdock/2013.1/src/exe/rbdock.cxx#4 $)

>  <Rbt.Library>
libRbt.so (2013.1, Build901 2013/11/27)

>  <Rbt.Parameter_File>
/export/apps/rDock/src/rDock_2013.1_src/data/scripts/dock_solv.prm

>  <Rbt.Receptor>
prm/blind_docking_100.prm

>  <SCORE>
-14.7921

>  <SCORE.INTER>
-12.164

>  <SCORE.INTER.CONST>
1

>  <SCORE.INTER.POLAR>
-1.34346

>  <SCORE.INTER.ROT>
6

>  <SCORE.INTER.SOLV>
17.1257

>  <SCORE.INTER.VDW>
-16.9398

>  <SCORE.INTER.norm>
-0.328758

>  <SCORE.INTRA>
-2.62806

>  <SCORE.INTRA.DIHEDRAL>
-6.95165

>  <SCORE.INTRA.DIHEDRAL.0>
15.6389

>  <SCORE.INTRA.POLAR>
0

>  <SCORE.INTRA.POLAR.0>
0

>  <SCORE.INTRA.REPUL>
0

>  <SCORE.INTRA.REPUL.0>
0

>  <SCORE.INTRA.SOLV>
2.60352

>  <SCORE.INTRA.SOLV.lig_0>
-90.9181

>  <SCORE.INTRA.VDW>
-0.453993

>  <SCORE.INTRA.VDW.0>
-3.14158

>  <SCORE.INTRA.norm>
-0.0710286

>  <SCORE.RESTR>
0

>  <SCORE.RESTR.CAVITY>
0

>  <SCORE.RESTR.norm>
0

>  <SCORE.SYSTEM>
0

>  <SCORE.SYSTEM.CONST>
0

>  <SCORE.SYSTEM.DIHEDRAL>
0

>  <SCORE.SYSTEM.SOLV>
0

>  <SCORE.SYSTEM.norm>
0

>  <SCORE.heavy>
37

>  <SCORE.norm>
-0.399787

>  <RMSD>
14.242

$$$$
1yrj_lig
 OpenBabel11021811423D
libRbt.so/2013.1/901 2013/11/27
 37 40  0  0  0  0  0  0  0  0999 V2000
   36.8236    6.1949   15.1645 C   0  0  1  0  0  0  0  0  0  0  0  0
   35.6224    6.5787   14.2784 C   0  0  1  0  0  0  0  0  0  0  0  0
   34.7233    7.6247   14.9564 C   0  0  0  0  0  0  0  0  0  0  0  0
   34.2728    7.1153   16.3504 C   0  0  1  0  0  0  0  0  0  0  0  0
   35.5043    6.7926   17.2176 C   0  0  1  0  0  0  0  0  0  0  0  0
   35.0162    6.2869   18.6403 C   0  0  1  0  0  0  0  0  0  0  0  0
   34.1631    7.3752   19.3119 C   0  0  1  0  0  0  0  0  0  0  0  0
   32.9695    7.6968   18.3801 C   0  0  2  0  0  0  0  0  0  0  0  0
   33.3127    7.9895   21.6371 C   0  0  0  0  0  0  0  0  0  0  0  0
   36.0479    7.0560   12.9524 N   0  0  0  0  0  0  0  0  0  0  0  0
   33.7407    6.9264   20.6749 N   0  0  0  0  0  0  0  0  0  0  0  0
   37.8429    7.2099   15.2269 O   0  0  0  0  0  0  0  0  0  0  0  0
   36.3309    5.8017   16.4992 O   0  0  0  0  0  0  0  0  0  0  0  0
   33.4338    8.1061   17.0625 O   0  0  0  0  0  0  0  0  0  0  0  0
   34.1948    5.1496   18.4777 O   0  0  0  0  0  0  0  0  0  0  0  0
   32.1549    8.7477   18.9010 O   0  0  0  0  0  0  0  0  0  0  0  0
   31.1272    9.1838   17.9805 C   0  0  2  0  0  0  0  0  0  0  0  0
   30.1876   10.2455   18.5750 C   0  0  1  0  0  0  0  0  0  0  0  0
   29.2896    9.6393   19.6860 C   0  0  2  0  0  0  0  0  0  0  0  0
   28.4949    8.4800   19.1298 C   0  0  1  0  0  0  0  0  0  0  0  0
   29.4679    7.4171   18.5668 C   0  0  1  0  0  0  0  0  0  0  0  0
   28.7461    6.2272   17.9383 C   0  0  0  0  0  0  0  0  0  0  0  0
   27.6550    7.9221   20.2099 N   0  0  0  0  0  0  0  0  0  0  0  0
   30.3186    8.0273   17.5294 O   0  0  0  0  0  0  0  0  0  0  0  0
   30.9856   11.3362   19.0572 O   0  0  0  0  0  0  0  0  0  0  0  0
   28.3759   10.6356   20.1652 O   0  0  0  0  0  0  0  0  0  0  0  0
   27.9947    6.6655   16.8378 O   0  0  0  0  0  0  0  0  0  0  0  0
   37.7113    8.4969   16.0274 C   0  0  1  0  0  0  0  0  0  0  0  0
   38.6456    8.3693   17.2509 C   0  0  1  0  0  0  0  0  0  0  0  0
   38.6354    9.6635   18.1000 C   0  0  2  0  0  0  0  0  0  0  0  0
   39.0723   10.8565   17.2416 C   0  0  1  0  0  0  0  0  0  0  0  0
   38.1206   11.0191   16.0290 C   0  0  0  0  0  0  0  0  0  0  0  0
   38.1586    9.7346   15.1945 C   0  0  2  0  0  0  0  0  0  0  0  0
   39.0495   12.0919   18.0564 N   0  0  0  0  0  0  0  0  0  0  0  0
   37.2660    9.9335   14.0558 N   0  0  0  0  0  0  0  0  0  0  0  0
   38.1952    7.2726   18.0757 O   0  0  0  0  0  0  0  0  0  0  0  0
   39.5412    9.4983   19.2122 O   0  0  0  0  0  0  0  0  0  0  0  0
  1  2  1  0  0  0  0
  1 12  1  1  0  0  0
  1 13  1  0  0  0  0
  2  3  1  0  0  0  0
  2 10  1  6  0  0  0
  4  3  1  6  0  0  0
  4  5  1  0  0  0  0
  4 14  1  0  0  0  0
  5  6  1  0  0  0  0
  5 13  1  6  0  0  0
  6  7  1  0  0  0  0
  6 15  1  6  0  0  0
  7  8  1  0  0  0  0
  7 11  1  1  0  0  0
  8 14  1  0  0  0  0
  8 16  1  1  0  0  0
  9 11  1  0  0  0  0
 17 16  1  1  0  0  0
 17 18  1  0  0  0  0
 17 24  1  0  0  0  0
 18 19  1  0  0  0  0
 18 25  1  1  0  0  0
 19 20  1  0  0  0  0
 19 26  1  6  0  0  0
 20 21  1  0  0  0  0
 20 23  1  1  0  0  0
 21 22  1  6  0  0  0
 21 24  1  0  0  0  0
 22 27  1  0  0  0  0
 28 12  1  6  0  0  0
 28 29  1  0  0  0  0
 28 33  1  0  0  0  0
 29 30  1  0  0  0  0
 29 36  1  1  0  0  0
 30 31  1  0  0  0  0
 30 37  1  1  0  0  0
 31 32  1  0  0  0  0
 31 34  1  1  0  0  0
 32 33  1  0  0  0  0
 33 35  1  6  0  0  0
M  END
>  <CHROM.1>
74.80298423,160.08876643,172.89847140,175.96010138,62.96439104,107.60441083
34.10622011,8.24413041,17.61015362,0.17538908,-0.23523873,-2.35613946

>  <Name>
1yrj_lig

>  <RI>
224

>  <Rbt.Current_Directory>
/home/itssahil/PROJECTS/Mol_Feturizer/New_Systems/rnas/1yrj

>  <Rbt.Executable>
rbdock ($Id: //depot/dev/client3/rdock/2013.1/src/exe/rbdock.cxx#4 $)

>  <Rbt.Library>
libRbt.so (2013.1, Build901 2013/11/27)

>  <Rbt.Parameter_File>
/export/apps/rDock/src/rDock_2013.1_src/data/scripts/dock_solv.prm

>  <Rbt.Receptor>
prm/blind_docking_80.prm

>  <SCORE>
-16.154

>  <SCORE.INTER>
-13.2454

>  <SCORE.INTER.CONST>
1

>  <SCORE.INTER.POLAR>
-0.87178

>  <SCORE.INTER.ROT>
6

>  <SCORE.INTER.SOLV>
16.9428

>  <SCORE.INTER.VDW>
-19.1719

>  <SCORE.INTER.norm>
-0.357983

>  <SCORE.INTRA>
-2.90867

>  <SCORE.INTRA.DIHEDRAL>
-7.40669

>  <SCORE.INTRA.DIHEDRAL.0>
15.6389

>  <SCORE.INTRA.POLAR>
0

>  <SCORE.INTRA.POLAR.0>
0

>  <SCORE.INTRA.REPUL>
0

>  <SCORE.INTRA.REPUL.0>
0

>  <SCORE.INTRA.SOLV>
1.87203

>  <SCORE.INTRA.SOLV.lig_0>
-90.9181

>  <SCORE.INTRA.VDW>
-0.14134

>  <SCORE.INTRA.VDW.0>
-3.14158

>  <SCORE.INTRA.norm>
-0.0786127

>  <SCORE.RESTR>
0

>  <SCORE.RESTR.CAVITY>
0

>  <SCORE.RESTR.norm>
0

>  <SCORE.SYSTEM>
0

>  <SCORE.SYSTEM.CONST>
0

>  <SCORE.SYSTEM.DIHEDRAL>
0

>  <SCORE.SYSTEM.SOLV>
0

>  <SCORE.SYSTEM.norm>
0

>  <SCORE.heavy>
37

>  <SCORE.norm>
-0.436596

>  <RMSD>
14.251

$$$$
1yrj_lig
 OpenBabel11021811423D
libRbt.so/2013.1/901 2013/11/27
 37 40  0  0  0  0  0  0  0  0999 V2000
   34.5047    5.2776   16.5962 C   0  0  1  0  0  0  0  0  0  0  0  0
   33.4651    4.6994   17.5761 C   0  0  1  0  0  0  0  0  0  0  0  0
   32.1584    5.5086   17.5662 C   0  0  0  0  0  0  0  0  0  0  0  0
   32.4561    7.0030   17.8560 C   0  0  1  0  0  0  0  0  0  0  0  0
   33.4593    7.5511   16.8234 C   0  0  1  0  0  0  0  0  0  0  0  0
   33.7360    9.0824   17.1344 C   0  0  1  0  0  0  0  0  0  0  0  0
   32.4181    9.8709   17.0662 C   0  0  1  0  0  0  0  0  0  0  0  0
   31.4311    9.2509   18.0849 C   0  0  2  0  0  0  0  0  0  0  0  0
   34.0070   11.8572   16.8753 C   0  0  0  0  0  0  0  0  0  0  0  0
   33.1863    3.2792   17.3069 N   0  0  0  0  0  0  0  0  0  0  0  0
   32.6776   11.3239   17.3084 N   0  0  0  0  0  0  0  0  0  0  0  0
   34.2060    5.0102   15.2133 O   0  0  0  0  0  0  0  0  0  0  0  0
   34.6774    6.7173   16.8721 O   0  0  0  0  0  0  0  0  0  0  0  0
   31.2310    7.8337   17.8190 O   0  0  0  0  0  0  0  0  0  0  0  0
   34.2355    9.2115   18.4491 O   0  0  0  0  0  0  0  0  0  0  0  0
   30.1531    9.8869   18.0435 O   0  0  0  0  0  0  0  0  0  0  0  0
   29.4556    9.8508   19.3107 C   0  0  2  0  0  0  0  0  0  0  0  0
   30.3899    9.6467   20.5145 C   0  0  1  0  0  0  0  0  0  0  0  0
   30.9935    8.2171   20.5186 C   0  0  2  0  0  0  0  0  0  0  0  0
   29.8842    7.1903   20.5285 C   0  0  1  0  0  0  0  0  0  0  0  0
   28.9802    7.4029   19.2912 C   0  0  1  0  0  0  0  0  0  0  0  0
   27.8000    6.4350   19.2466 C   0  0  0  0  0  0  0  0  0  0  0  0
   30.4890    5.8421   20.5275 N   0  0  0  0  0  0  0  0  0  0  0  0
   28.4385    8.7736   19.3057 O   0  0  0  0  0  0  0  0  0  0  0  0
   31.4022   10.6630   20.4784 O   0  0  0  0  0  0  0  0  0  0  0  0
   31.7981    8.0364   21.6920 O   0  0  0  0  0  0  0  0  0  0  0  0
   26.9597    6.6728   20.3444 O   0  0  0  0  0  0  0  0  0  0  0  0
   34.6782    5.8816   14.0591 C   0  0  1  0  0  0  0  0  0  0  0  0
   33.9813    7.2519   14.2087 C   0  0  1  0  0  0  0  0  0  0  0  0
   34.4494    8.2403   13.1131 C   0  0  2  0  0  0  0  0  0  0  0  0
   35.9696    8.4254   13.1897 C   0  0  1  0  0  0  0  0  0  0  0  0
   36.6838    7.0622   13.0041 C   0  0  0  0  0  0  0  0  0  0  0  0
   36.2187    6.1058   14.1072 C   0  0  2  0  0  0  0  0  0  0  0  0
   36.4116    9.3625   12.1329 N   0  0  0  0  0  0  0  0  0  0  0  0
   36.9251    4.8430   13.9090 N   0  0  0  0  0  0  0  0  0  0  0  0
   32.5536    7.0705   14.0871 O   0  0  0  0  0  0  0  0  0  0  0  0
   33.7875    9.5075   13.3151 O   0  0  0  0  0  0  0  0  0  0  0  0
  1  2  1  0  0  0  0
  1 12  1  6  0  0  0
  1 13  1  0  0  0  0
  2  3  1  0  0  0  0
  2 10  1  6  0  0  0
  4  3  1  6  0  0  0
  4  5  1  0  0  0  0
  4 14  1  0  0  0  0
  5  6  1  0  0  0  0
  5 13  1  1  0  0  0
  6  7  1  0  0  0  0
  6 15  1  1  0  0  0
  7  8  1  0  0  0  0
  7 11  1  1  0  0  0
  8 14  1  0  0  0  0
  8 16  1  6  0  0  0
  9 11  1  0  0  0  0
 17 16  1  6  0  0  0
 17 18  1  0  0  0  0
 17 24  1  0  0  0  0
 18 19  1  0  0  0  0
 18 25  1  6  0  0  0
 19 20  1  0  0  0  0
 19 26  1  1  0  0  0
 20 21  1  0  0  0  0
 20 23  1  6  0  0  0
 21 22  1  1  0  0  0
 21 24  1  0  0  0  0
 22 27  1  0  0  0  0
 28 12  1  1  0  0  0
 28 29  1  0  0  0  0
 28 33  1  0  0  0  0
 29 30  1  0  0  0  0
 29 36  1  6  0  0  0
 30 31  1  0  0  0  0
 30 37  1  1  0  0  0
 31 32  1  0  0  0  0
 31 34  1  6  0  0  0
 32 33  1  0  0  0  0
 33 35  1  6  0  0  0
M  END
>  <CHROM.1>
153.92760918,30.55085321,-151.11439130,22.01515307,63.96025894,-65.52286115
32.56503139,7.75094289,17.15013734,0.10730714,-0.81353469,3.11620295

>  <Name>
1yrj_lig

>  <RI>
0

>  <Rbt.Current_Directory>
/home/itssahil/PROJECTS/Mol_Feturizer/New_Systems/rnas/1yrj

>  <Rbt.Executable>
rbdock ($Id: //depot/dev/client3/rdock/2013.1/src/exe/rbdock.cxx#4 $)

>  <Rbt.Library>
libRbt.so (2013.1, Build901 2013/11/27)

>  <Rbt.Parameter_File>
/export/apps/rDock/src/rDock_2013.1_src/data/scripts/dock_solv.prm

>  <Rbt.Receptor>
prm/blind_docking_40.prm

>  <SCORE>
31.1548

>  <SCORE.INTER>
18.9968

>  <SCORE.INTER.CONST>
1

>  <SCORE.INTER.POLAR>
-1.22937

>  <SCORE.INTER.ROT>
6

>  <SCORE.INTER.SOLV>
21.3079

>  <SCORE.INTER.VDW>
2.05983

>  <SCORE.INTER.norm>
0.513428

>  <SCORE.INTRA>
8.27832

>  <SCORE.INTRA.DIHEDRAL>
-3.51332

>  <SCORE.INTRA.DIHEDRAL.0>
15.6389

>  <SCORE.INTRA.POLAR>
0

>  <SCORE.INTRA.POLAR.0>
0

>  <SCORE.INTRA.REPUL>
0

>  <SCORE.INTRA.REPUL.0>
0

>  <SCORE.INTRA.SOLV>
3.65284

>  <SCORE.INTRA.SOLV.lig_0>
-90.9181

>  <SCORE.INTRA.VDW>
8.20856

>  <SCORE.INTRA.VDW.0>
-3.14158

>  <SCORE.INTRA.norm>
0.223738

>  <SCORE.RESTR>
3.87969

>  <SCORE.RESTR.CAVITY>
3.87969

>  <SCORE.RESTR.norm>
0.104856

>  <SCORE.SYSTEM>
0

>  <SCORE.SYSTEM.CONST>
0

>  <SCORE.SYSTEM.DIHEDRAL>
0

>  <SCORE.SYSTEM.SOLV>
0

>  <SCORE.SYSTEM.norm>
0

>  <SCORE.heavy>
37

>  <SCORE.norm>
0.842023

>  <RMSD>
14.253

$$$$
1yrj_lig
 OpenBabel11021811423D
libRbt.so/2013.1/901 2013/11/27
 37 40  0  0  0  0  0  0  0  0999 V2000
   31.5516   10.5274   18.6163 C   0  0  1  0  0  0  0  0  0  0  0  0
   32.4081   11.1613   17.5027 C   0  0  1  0  0  0  0  0  0  0  0  0
   33.1903   10.1018   16.7103 C   0  0  0  0  0  0  0  0  0  0  0  0
   34.0448    9.2393   17.6755 C   0  0  1  0  0  0  0  0  0  0  0  0
   33.1421    8.5861   18.7391 C   0  0  1  0  0  0  0  0  0  0  0  0
   34.0381    7.7006   19.7040 C   0  0  1  0  0  0  0  0  0  0  0  0
   34.7660    6.6201   18.8878 C   0  0  1  0  0  0  0  0  0  0  0  0
   35.6183    7.3252   17.8049 C   0  0  2  0  0  0  0  0  0  0  0  0
   35.7289    4.3144   19.4008 C   0  0  0  0  0  0  0  0  0  0  0  0
   31.5997   11.9858   16.5895 N   0  0  0  0  0  0  0  0  0  0  0  0
   35.5737    5.7490   19.7968 N   0  0  0  0  0  0  0  0  0  0  0  0
   30.3788    9.8498   18.1278 O   0  0  0  0  0  0  0  0  0  0  0  0
   32.4077    9.6558   19.4446 O   0  0  0  0  0  0  0  0  0  0  0  0
   34.7896    8.1761   16.9631 O   0  0  0  0  0  0  0  0  0  0  0  0
   35.0266    8.5123   20.3028 O   0  0  0  0  0  0  0  0  0  0  0  0
   36.2834    6.3883   16.9567 O   0  0  0  0  0  0  0  0  0  0  0  0
   37.5032    6.9081   16.3773 C   0  0  2  0  0  0  0  0  0  0  0  0
   38.1098    8.0723   17.1774 C   0  0  1  0  0  0  0  0  0  0  0  0
   37.2230    9.3419   17.0781 C   0  0  2  0  0  0  0  0  0  0  0  0
   37.0432    9.7318   15.6289 C   0  0  1  0  0  0  0  0  0  0  0  0
   36.4047    8.5523   14.8579 C   0  0  1  0  0  0  0  0  0  0  0  0
   36.2306    8.8428   13.3689 C   0  0  0  0  0  0  0  0  0  0  0  0
   36.1926   10.9384   15.5668 N   0  0  0  0  0  0  0  0  0  0  0  0
   37.2591    7.3583   14.9871 O   0  0  0  0  0  0  0  0  0  0  0  0
   38.2913    7.6420   18.5343 O   0  0  0  0  0  0  0  0  0  0  0  0
   37.8544   10.4270   17.7716 O   0  0  0  0  0  0  0  0  0  0  0  0
   35.5312    7.7868   12.7660 O   0  0  0  0  0  0  0  0  0  0  0  0
   29.3744    9.1394   19.0227 C   0  0  1  0  0  0  0  0  0  0  0  0
   28.3554   10.1999   19.4947 C   0  0  1  0  0  0  0  0  0  0  0  0
   27.2447    9.5611   20.3633 C   0  0  2  0  0  0  0  0  0  0  0  0
   26.5195    8.4700   19.5666 C   0  0  1  0  0  0  0  0  0  0  0  0
   27.5248    7.3789   19.1176 C   0  0  0  0  0  0  0  0  0  0  0  0
   28.6049    8.0295   18.2470 C   0  0  2  0  0  0  0  0  0  0  0  0
   25.4667    7.8561   20.4063 N   0  0  0  0  0  0  0  0  0  0  0  0
   29.5194    6.9696   17.8307 N   0  0  0  0  0  0  0  0  0  0  0  0
   29.0426   11.1957   20.2834 O   0  0  0  0  0  0  0  0  0  0  0  0
   26.3100   10.5895   20.7547 O   0  0  0  0  0  0  0  0  0  0  0  0
  1  2  1  0  0  0  0
  1 12  1  6  0  0  0
  1 13  1  0  0  0  0
  2  3  1  0  0  0  0
  2 10  1  6  0  0  0
  4  3  1  6  0  0  0
  4  5  1  0  0  0  0
  4 14  1  0  0  0  0
  5  6  1  0  0  0  0
  5 13  1  1  0  0  0
  6  7  1  0  0  0  0
  6 15  1  6  0  0  0
  7  8  1  0  0  0  0
  7 11  1  1  0  0  0
  8 14  1  0  0  0  0
  8 16  1  6  0  0  0
  9 11  1  0  0  0  0
 17 16  1  1  0  0  0
 17 18  1  0  0  0  0
 17 24  1  0  0  0  0
 18 19  1  0  0  0  0
 18 25  1  1  0  0  0
 19 20  1  0  0  0  0
 19 26  1  1  0  0  0
 20 21  1  0  0  0  0
 20 23  1  1  0  0  0
 21 22  1  6  0  0  0
 21 24  1  0  0  0  0
 22 27  1  0  0  0  0
 28 12  1  6  0  0  0
 28 29  1  0  0  0  0
 28 33  1  0  0  0  0
 29 30  1  0  0  0  0
 29 36  1  1  0  0  0
 30 31  1  0  0  0  0
 30 37  1  6  0  0  0
 31 32  1  0  0  0  0
 31 34  1  1  0  0  0
 32 33  1  0  0  0  0
 33 35  1  1  0  0  0
M  END
>  <CHROM.1>
179.77065437,147.74812764,-153.15830994,22.65413047,-174.27994198,86.10647280
33.17976262,8.66906492,17.90144522,3.01782752,-0.33706844,2.41474331

>  <Name>
1yrj_lig

>  <RI>
0

>  <Rbt.Current_Directory>
/home/itssahil/PROJECTS/Mol_Feturizer/New_Systems/rnas/1yrj

>  <Rbt.Executable>
rbdock ($Id: //depot/dev/client3/rdock/2013.1/src/exe/rbdock.cxx#4 $)

>  <Rbt.Library>
libRbt.so (2013.1, Build901 2013/11/27)

>  <Rbt.Parameter_File>
/export/apps/rDock/src/rDock_2013.1_src/data/scripts/dock_solv.prm

>  <Rbt.Receptor>
prm/blind_docking_100.prm

>  <SCORE>
-5.93486

>  <SCORE.INTER>
-8.98571

>  <SCORE.INTER.CONST>
1

>  <SCORE.INTER.POLAR>
-0.87178

>  <SCORE.INTER.ROT>
6

>  <SCORE.INTER.SOLV>
13.3864

>  <SCORE.INTER.VDW>
-15.1467

>  <SCORE.INTER.norm>
-0.242857

>  <SCORE.INTRA>
3.05085

>  <SCORE.INTRA.DIHEDRAL>
-3.94856

>  <SCORE.INTRA.DIHEDRAL.0>
15.6389

>  <SCORE.INTRA.POLAR>
0

>  <SCORE.INTRA.POLAR.0>
0

>  <SCORE.INTRA.REPUL>
0

>  <SCORE.INTRA.REPUL.0>
0

>  <SCORE.INTRA.SOLV>
1.77006

>  <SCORE.INTRA.SOLV.lig_0>
-90.9181

>  <SCORE.INTRA.VDW>
4.1401

>  <SCORE.INTRA.VDW.0>
-3.14158

>  <SCORE.INTRA.norm>
0.0824553

>  <SCORE.RESTR>
0

>  <SCORE.RESTR.CAVITY>
0

>  <SCORE.RESTR.norm>
0

>  <SCORE.SYSTEM>
0

>  <SCORE.SYSTEM.CONST>
0

>  <SCORE.SYSTEM.DIHEDRAL>
0

>  <SCORE.SYSTEM.SOLV>
0

>  <SCORE.SYSTEM.norm>
0

>  <SCORE.heavy>
37

>  <SCORE.norm>
-0.160402

>  <RMSD>
14.257

$$$$
1yrj_lig
 OpenBabel11021811423D
libRbt.so/2013.1/901 2013/11/27
 37 40  0  0  0  0  0  0  0  0999 V2000
   31.1774    6.1220   17.9420 C   0  0  1  0  0  0  0  0  0  0  0  0
   32.2909    6.0785   19.0067 C   0  0  1  0  0  0  0  0  0  0  0  0
   33.4264    7.0636   18.6865 C   0  0  0  0  0  0  0  0  0  0  0  0
   33.9786    6.7941   17.2624 C   0  0  1  0  0  0  0  0  0  0  0  0
   32.8423    6.8977   16.2275 C   0  0  1  0  0  0  0  0  0  0  0  0
   33.4357    6.6310   14.7802 C   0  0  1  0  0  0  0  0  0  0  0  0
   34.5319    7.6638   14.4717 C   0  0  1  0  0  0  0  0  0  0  0  0
   35.6221    7.5520   15.5651 C   0  0  2  0  0  0  0  0  0  0  0  0
   35.9197    8.5348   12.5168 C   0  0  0  0  0  0  0  0  0  0  0  0
   31.7676    6.3274   20.3600 N   0  0  0  0  0  0  0  0  0  0  0  0
   35.0617    7.4507   13.0892 N   0  0  0  0  0  0  0  0  0  0  0  0
   30.3471    7.2956   18.0225 O   0  0  0  0  0  0  0  0  0  0  0  0
   31.7808    5.9434   16.6069 O   0  0  0  0  0  0  0  0  0  0  0  0
   35.0513    7.7446   16.8904 O   0  0  0  0  0  0  0  0  0  0  0  0
   34.0397    5.3548   14.7485 O   0  0  0  0  0  0  0  0  0  0  0  0
   36.6541    8.5234   15.3897 O   0  0  0  0  0  0  0  0  0  0  0  0
   36.1550    9.8792   15.3100 C   0  0  2  0  0  0  0  0  0  0  0  0
   37.2288   10.9005   14.9006 C   0  0  1  0  0  0  0  0  0  0  0  0
   38.2826   11.0858   16.0246 C   0  0  2  0  0  0  0  0  0  0  0  0
   37.6009   11.5172   17.3029 C   0  0  1  0  0  0  0  0  0  0  0  0
   36.5487   10.4563   17.7039 C   0  0  1  0  0  0  0  0  0  0  0  0
   35.7746   10.8365   18.9640 C   0  0  0  0  0  0  0  0  0  0  0  0
   38.6273   11.6806   18.3532 N   0  0  0  0  0  0  0  0  0  0  0  0
   35.5750   10.2893   16.6101 O   0  0  0  0  0  0  0  0  0  0  0  0
   37.8208   10.4644   13.6683 O   0  0  0  0  0  0  0  0  0  0  0  0
   39.2242   12.0975   15.6413 O   0  0  0  0  0  0  0  0  0  0  0  0
   34.9159    9.7856   19.3191 O   0  0  0  0  0  0  0  0  0  0  0  0
   29.4450    7.6178   19.2044 C   0  0  1  0  0  0  0  0  0  0  0  0
   28.8774    9.0353   18.9706 C   0  0  1  0  0  0  0  0  0  0  0  0
   27.8876    9.4336   20.0921 C   0  0  2  0  0  0  0  0  0  0  0  0
   26.7363    8.4231   20.1578 C   0  0  1  0  0  0  0  0  0  0  0  0
   27.2889    7.0005   20.4289 C   0  0  0  0  0  0  0  0  0  0  0  0
   28.2525    6.6205   19.2998 C   0  0  2  0  0  0  0  0  0  0  0  0
   25.8000    8.8036   21.2390 N   0  0  0  0  0  0  0  0  0  0  0  0
   28.7361    5.2715   19.5813 N   0  0  0  0  0  0  0  0  0  0  0  0
   29.9670    9.9832   18.9585 O   0  0  0  0  0  0  0  0  0  0  0  0
   27.3710   10.7522   19.8109 O   0  0  0  0  0  0  0  0  0  0  0  0
  1  2  1  0  0  0  0
  1 12  1  6  0  0  0
  1 13  1  0  0  0  0
  2  3  1  0  0  0  0
  2 10  1  1  0  0  0
  4  3  1  1  0  0  0
  4  5  1  0  0  0  0
  4 14  1  0  0  0  0
  5  6  1  0  0  0  0
  5 13  1  1  0  0  0
  6  7  1  0  0  0  0
  6 15  1  1  0  0  0
  7  8  1  0  0  0  0
  7 11  1  6  0  0  0
  8 14  1  0  0  0  0
  8 16  1  6  0  0  0
  9 11  1  0  0  0  0
 17 16  1  1  0  0  0
 17 18  1  0  0  0  0
 17 24  1  0  0  0  0
 18 19  1  0  0  0  0
 18 25  1  6  0  0  0
 19 20  1  0  0  0  0
 19 26  1  6  0  0  0
 20 21  1  0  0  0  0
 20 23  1  1  0  0  0
 21 22  1  1  0  0  0
 21 24  1  0  0  0  0
 22 27  1  0  0  0  0
 28 12  1  6  0  0  0
 28 29  1  0  0  0  0
 28 33  1  0  0  0  0
 29 30  1  0  0  0  0
 29 36  1  1  0  0  0
 30 31  1  0  0  0  0
 30 37  1  6  0  0  0
 31 32  1  0  0  0  0
 31 34  1  1  0  0  0
 32 33  1  0  0  0  0
 33 35  1  1  0  0  0
M  END
>  <CHROM.1>
-64.60614742,167.34814663,54.35814334,-170.85991658,-175.57880633,172.92273437
33.17755116,8.50570607,17.35334146,3.05025827,0.48415538,0.66956129

>  <Name>
1yrj_lig

>  <RI>
224

>  <Rbt.Current_Directory>
/home/itssahil/PROJECTS/Mol_Feturizer/New_Systems/rnas/1yrj

>  <Rbt.Executable>
rbdock ($Id: //depot/dev/client3/rdock/2013.1/src/exe/rbdock.cxx#4 $)

>  <Rbt.Library>
libRbt.so (2013.1, Build901 2013/11/27)

>  <Rbt.Parameter_File>
/export/apps/rDock/src/rDock_2013.1_src/data/scripts/dock_solv.prm

>  <Rbt.Receptor>
prm/blind_docking_80.prm

>  <SCORE>
-15.9833

>  <SCORE.INTER>
-11.9607

>  <SCORE.INTER.CONST>
1

>  <SCORE.INTER.POLAR>
-1.3083

>  <SCORE.INTER.ROT>
6

>  <SCORE.INTER.SOLV>
12.3607

>  <SCORE.INTER.VDW>
-15.333

>  <SCORE.INTER.norm>
-0.323262

>  <SCORE.INTRA>
-4.44164

>  <SCORE.INTRA.DIHEDRAL>
-14.4208

>  <SCORE.INTRA.DIHEDRAL.0>
15.6389

>  <SCORE.INTRA.POLAR>
0

>  <SCORE.INTRA.POLAR.0>
0

>  <SCORE.INTRA.REPUL>
0

>  <SCORE.INTRA.REPUL.0>
0

>  <SCORE.INTRA.SOLV>
2.80141

>  <SCORE.INTRA.SOLV.lig_0>
-90.9181

>  <SCORE.INTRA.VDW>
1.36806

>  <SCORE.INTRA.VDW.0>
-3.14158

>  <SCORE.INTRA.norm>
-0.120044

>  <SCORE.RESTR>
0.419048

>  <SCORE.RESTR.CAVITY>
0.419048

>  <SCORE.RESTR.norm>
0.0113256

>  <SCORE.SYSTEM>
0

>  <SCORE.SYSTEM.CONST>
0

>  <SCORE.SYSTEM.DIHEDRAL>
0

>  <SCORE.SYSTEM.SOLV>
0

>  <SCORE.SYSTEM.norm>
0

>  <SCORE.heavy>
37

>  <SCORE.norm>
-0.43198

>  <RMSD>
14.271

$$$$
1yrj_lig
 OpenBabel11021811423D
libRbt.so/2013.1/901 2013/11/27
 37 40  0  0  0  0  0  0  0  0999 V2000
   30.6833    8.2809   20.2934 C   0  0  1  0  0  0  0  0  0  0  0  0
   31.2132    9.5375   19.5755 C   0  0  1  0  0  0  0  0  0  0  0  0
   31.2991    9.3333   18.0546 C   0  0  0  0  0  0  0  0  0  0  0  0
   32.1557    8.0807   17.7337 C   0  0  1  0  0  0  0  0  0  0  0  0
   31.5608    6.8420   18.4299 C   0  0  1  0  0  0  0  0  0  0  0  0
   32.4471    5.5745   18.0752 C   0  0  1  0  0  0  0  0  0  0  0  0
   32.4702    5.3688   16.5518 C   0  0  1  0  0  0  0  0  0  0  0  0
   33.0287    6.6566   15.8991 C   0  0  2  0  0  0  0  0  0  0  0  0
   32.4960    2.8786   15.9996 C   0  0  0  0  0  0  0  0  0  0  0  0
   30.4054   10.7288   19.8843 N   0  0  0  0  0  0  0  0  0  0  0  0
   33.2622    4.1462   16.2122 N   0  0  0  0  0  0  0  0  0  0  0  0
   29.2698    8.0690   20.1188 O   0  0  0  0  0  0  0  0  0  0  0  0
   31.4880    7.1148   19.8796 O   0  0  0  0  0  0  0  0  0  0  0  0
   32.2370    7.8177   16.2788 O   0  0  0  0  0  0  0  0  0  0  0  0
   33.7782    5.8020   18.4888 O   0  0  0  0  0  0  0  0  0  0  0  0
   33.0267    6.5751   14.4733 O   0  0  0  0  0  0  0  0  0  0  0  0
   33.9867    7.4598   13.8492 C   0  0  2  0  0  0  0  0  0  0  0  0
   35.3968    6.8553   13.7492 C   0  0  1  0  0  0  0  0  0  0  0  0
   36.0500    6.7234   15.1507 C   0  0  2  0  0  0  0  0  0  0  0  0
   36.0996    8.0755   15.8246 C   0  0  1  0  0  0  0  0  0  0  0  0
   34.6648    8.6432   15.9368 C   0  0  1  0  0  0  0  0  0  0  0  0
   34.6258   10.0346   16.5649 C   0  0  0  0  0  0  0  0  0  0  0  0
   36.7210    7.9169   17.1558 N   0  0  0  0  0  0  0  0  0  0  0  0
   34.0654    8.7382   14.5937 O   0  0  0  0  0  0  0  0  0  0  0  0
   35.3005    5.5926   13.0744 O   0  0  0  0  0  0  0  0  0  0  0  0
   37.3890    6.2280   15.0144 O   0  0  0  0  0  0  0  0  0  0  0  0
   34.8304    9.9279   17.9486 O   0  0  0  0  0  0  0  0  0  0  0  0
   28.6764    7.0633   19.1436 C   0  0  1  0  0  0  0  0  0  0  0  0
   28.3025    5.8054   19.9584 C   0  0  1  0  0  0  0  0  0  0  0  0
   27.6244    4.7401   19.0631 C   0  0  2  0  0  0  0  0  0  0  0  0
   26.3645    5.3261   18.4148 C   0  0  1  0  0  0  0  0  0  0  0  0
   26.7304    6.5686   17.5633 C   0  0  0  0  0  0  0  0  0  0  0  0
   27.3846    7.6153   18.4712 C   0  0  2  0  0  0  0  0  0  0  0  0
   25.7275    4.3062   17.5519 N   0  0  0  0  0  0  0  0  0  0  0  0
   27.6972    8.7735   17.6383 N   0  0  0  0  0  0  0  0  0  0  0  0
   29.5032    5.2362   20.5243 O   0  0  0  0  0  0  0  0  0  0  0  0
   27.2751    3.6006   19.8781 O   0  0  0  0  0  0  0  0  0  0  0  0
  1  2  1  0  0  0  0
  1 12  1  6  0  0  0
  1 13  1  0  0  0  0
  2  3  1  0  0  0  0
  2 10  1  6  0  0  0
  4  3  1  6  0  0  0
  4  5  1  0  0  0  0
  4 14  1  0  0  0  0
  5  6  1  0  0  0  0
  5 13  1  1  0  0  0
  6  7  1  0  0  0  0
  6 15  1  6  0  0  0
  7  8  1  0  0  0  0
  7 11  1  1  0  0  0
  8 14  1  0  0  0  0
  8 16  1  6  0  0  0
  9 11  1  0  0  0  0
 17 16  1  1  0  0  0
 17 18  1  0  0  0  0
 17 24  1  0  0  0  0
 18 19  1  0  0  0  0
 18 25  1  1  0  0  0
 19 20  1  0  0  0  0
 19 26  1  6  0  0  0
 20 21  1  0  0  0  0
 20 23  1  1  0  0  0
 21 22  1  6  0  0  0
 21 24  1  0  0  0  0
 22 27  1  0  0  0  0
 28 12  1  1  0  0  0
 28 29  1  0  0  0  0
 28 33  1  0  0  0  0
 29 30  1  0  0  0  0
 29 36  1  6  0  0  0
 30 31  1  0  0  0  0
 30 37  1  1  0  0  0
 31 32  1  0  0  0  0
 31 34  1  6  0  0  0
 32 33  1  0  0  0  0
 33 35  1  6  0  0  0
M  END
>  <CHROM.1>
101.43718922,96.25071856,-156.63731764,85.22069363,-75.29539374,99.37051465
31.80133603,6.95833193,17.37147735,-3.03265172,-0.48182732,-2.62990869

>  <Name>
1yrj_lig

>  <RI>
0

>  <Rbt.Current_Directory>
/home/itssahil/PROJECTS/Mol_Feturizer/New_Systems/rnas/1yrj

>  <Rbt.Executable>
rbdock ($Id: //depot/dev/client3/rdock/2013.1/src/exe/rbdock.cxx#4 $)

>  <Rbt.Library>
libRbt.so (2013.1, Build901 2013/11/27)

>  <Rbt.Parameter_File>
/export/apps/rDock/src/rDock_2013.1_src/data/scripts/dock_solv.prm

>  <Rbt.Receptor>
prm/blind_docking_40.prm

>  <SCORE>
-0.572522

>  <SCORE.INTER>
-12.4482

>  <SCORE.INTER.CONST>
1

>  <SCORE.INTER.POLAR>
-1.75642

>  <SCORE.INTER.ROT>
6

>  <SCORE.INTER.SOLV>
13.4665

>  <SCORE.INTER.VDW>
-14.5329

>  <SCORE.INTER.norm>
-0.336437

>  <SCORE.INTRA>
6.31315

>  <SCORE.INTRA.DIHEDRAL>
1.92779

>  <SCORE.INTRA.DIHEDRAL.0>
15.6389

>  <SCORE.INTRA.POLAR>
0

>  <SCORE.INTRA.POLAR.0>
0

>  <SCORE.INTRA.REPUL>
0

>  <SCORE.INTRA.REPUL.0>
0

>  <SCORE.INTRA.SOLV>
2.9336

>  <SCORE.INTRA.SOLV.lig_0>
-90.9181

>  <SCORE.INTRA.VDW>
3.88245

>  <SCORE.INTRA.VDW.0>
-3.14158

>  <SCORE.INTRA.norm>
0.170626

>  <SCORE.RESTR>
5.5625

>  <SCORE.RESTR.CAVITY>
5.5625

>  <SCORE.RESTR.norm>
0.150338

>  <SCORE.SYSTEM>
0

>  <SCORE.SYSTEM.CONST>
0

>  <SCORE.SYSTEM.DIHEDRAL>
0

>  <SCORE.SYSTEM.SOLV>
0

>  <SCORE.SYSTEM.norm>
0

>  <SCORE.heavy>
37

>  <SCORE.norm>
-0.0154736

>  <RMSD>
14.273

$$$$
1yrj_lig
 OpenBabel11021811423D
libRbt.so/2013.1/901 2013/11/27
 37 40  0  0  0  0  0  0  0  0999 V2000
   36.5127    7.1164   15.1631 C   0  0  1  0  0  0  0  0  0  0  0  0
   35.5199    6.1634   14.4690 C   0  0  1  0  0  0  0  0  0  0  0  0
   34.0762    6.4000   14.9405 C   0  0  0  0  0  0  0  0  0  0  0  0
   33.9967    6.2910   16.4856 C   0  0  1  0  0  0  0  0  0  0  0  0
   34.9671    7.2951   17.1360 C   0  0  1  0  0  0  0  0  0  0  0  0
   34.8566    7.1721   18.7142 C   0  0  1  0  0  0  0  0  0  0  0  0
   33.4135    7.4643   19.1565 C   0  0  1  0  0  0  0  0  0  0  0  0
   32.4764    6.4626   18.4389 C   0  0  2  0  0  0  0  0  0  0  0  0
   32.3176    8.3084   21.2996 C   0  0  0  0  0  0  0  0  0  0  0  0
   35.5987    6.2606   13.0023 N   0  0  0  0  0  0  0  0  0  0  0  0
   33.3119    7.4000   20.6474 N   0  0  0  0  0  0  0  0  0  0  0  0
   36.4468    8.4711   14.6796 O   0  0  0  0  0  0  0  0  0  0  0  0
   36.3260    7.0249   16.6244 O   0  0  0  0  0  0  0  0  0  0  0  0
   32.6303    6.5499   16.9940 O   0  0  0  0  0  0  0  0  0  0  0  0
   35.1557    5.8480   19.1039 O   0  0  0  0  0  0  0  0  0  0  0  0
   31.1028    6.7041   18.7463 O   0  0  0  0  0  0  0  0  0  0  0  0
   30.4548    7.5932   17.8065 C   0  0  2  0  0  0  0  0  0  0  0  0
   30.1194    8.9701   18.4026 C   0  0  1  0  0  0  0  0  0  0  0  0
   28.9925    8.8611   19.4641 C   0  0  2  0  0  0  0  0  0  0  0  0
   27.7623    8.2372   18.8461 C   0  0  1  0  0  0  0  0  0  0  0  0
   28.1249    6.8427   18.2825 C   0  0  1  0  0  0  0  0  0  0  0  0
   26.9468    6.1576   17.5938 C   0  0  0  0  0  0  0  0  0  0  0  0
   26.7109    8.1427   19.8801 N   0  0  0  0  0  0  0  0  0  0  0  0
   29.2091    6.9772   17.2932 O   0  0  0  0  0  0  0  0  0  0  0  0
   31.3228    9.5333   18.9447 O   0  0  0  0  0  0  0  0  0  0  0  0
   28.6533   10.1695   19.9437 O   0  0  0  0  0  0  0  0  0  0  0  0
   26.5739    6.8969   16.4615 O   0  0  0  0  0  0  0  0  0  0  0  0
   37.2506    9.6217   15.2664 C   0  0  1  0  0  0  0  0  0  0  0  0
   36.5630   10.0297   16.5881 C   0  0  1  0  0  0  0  0  0  0  0  0
   37.3477   11.1569   17.3023 C   0  0  2  0  0  0  0  0  0  0  0  0
   38.7815   10.6959   17.5896 C   0  0  1  0  0  0  0  0  0  0  0  0
   39.4963   10.3180   16.2670 C   0  0  0  0  0  0  0  0  0  0  0  0
   38.7129    9.1911   15.5857 C   0  0  2  0  0  0  0  0  0  0  0  0
   39.5290   11.7818   18.2621 N   0  0  0  0  0  0  0  0  0  0  0  0
   39.4255    8.8524   14.3568 N   0  0  0  0  0  0  0  0  0  0  0  0
   35.2308   10.5066   16.2988 O   0  0  0  0  0  0  0  0  0  0  0  0
   36.6765   11.4803   18.5391 O   0  0  0  0  0  0  0  0  0  0  0  0
  1  2  1  0  0  0  0
  1 12  1  6  0  0  0
  1 13  1  0  0  0  0
  2  3  1  0  0  0  0
  2 10  1  6  0  0  0
  4  3  1  6  0  0  0
  4  5  1  0  0  0  0
  4 14  1  0  0  0  0
  5  6  1  0  0  0  0
  5 13  1  6  0  0  0
  6  7  1  0  0  0  0
  6 15  1  6  0  0  0
  7  8  1  0  0  0  0
  7 11  1  1  0  0  0
  8 14  1  0  0  0  0
  8 16  1  6  0  0  0
  9 11  1  0  0  0  0
 17 16  1  1  0  0  0
 17 18  1  0  0  0  0
 17 24  1  0  0  0  0
 18 19  1  0  0  0  0
 18 25  1  1  0  0  0
 19 20  1  0  0  0  0
 19 26  1  6  0  0  0
 20 21  1  0  0  0  0
 20 23  1  1  0  0  0
 21 22  1  6  0  0  0
 21 24  1  0  0  0  0
 22 27  1  0  0  0  0
 28 12  1  1  0  0  0
 28 29  1  0  0  0  0
 28 33  1  0  0  0  0
 29 30  1  0  0  0  0
 29 36  1  6  0  0  0
 30 31  1  0  0  0  0
 30 37  1  1  0  0  0
 31 32  1  0  0  0  0
 31 34  1  6  0  0  0
 32 33  1  0  0  0  0
 33 35  1  6  0  0  0
M  END
>  <CHROM.1>
175.53782517,147.88363768,91.83491028,-109.98506641,64.63478614,-76.67512554
33.53347764,8.18836415,17.43878960,0.07445698,-0.30468985,-2.29034849

>  <Name>
1yrj_lig

>  <RI>
224

>  <Rbt.Current_Directory>
/home/itssahil/PROJECTS/Mol_Feturizer/New_Systems/rnas/1yrj

>  <Rbt.Executable>
rbdock ($Id: //depot/dev/client3/rdock/2013.1/src/exe/rbdock.cxx#4 $)

>  <Rbt.Library>
libRbt.so (2013.1, Build901 2013/11/27)

>  <Rbt.Parameter_File>
/export/apps/rDock/src/rDock_2013.1_src/data/scripts/dock_solv.prm

>  <Rbt.Receptor>
prm/blind_docking_80.prm

>  <SCORE>
-13.7291

>  <SCORE.INTER>
-13.3054

>  <SCORE.INTER.CONST>
1

>  <SCORE.INTER.POLAR>
-1.44447

>  <SCORE.INTER.ROT>
6

>  <SCORE.INTER.SOLV>
16.1511

>  <SCORE.INTER.VDW>
-17.0391

>  <SCORE.INTER.norm>
-0.359605

>  <SCORE.INTRA>
-0.423715

>  <SCORE.INTRA.DIHEDRAL>
-2.78742

>  <SCORE.INTRA.DIHEDRAL.0>
15.6389

>  <SCORE.INTRA.POLAR>
0

>  <SCORE.INTRA.POLAR.0>
0

>  <SCORE.INTRA.REPUL>
0

>  <SCORE.INTRA.REPUL.0>
0

>  <SCORE.INTRA.SOLV>
-0.0913383

>  <SCORE.INTRA.SOLV.lig_0>
-90.9181

>  <SCORE.INTRA.VDW>
1.01567

>  <SCORE.INTRA.VDW.0>
-3.14158

>  <SCORE.INTRA.norm>
-0.0114518

>  <SCORE.RESTR>
0

>  <SCORE.RESTR.CAVITY>
0

>  <SCORE.RESTR.norm>
0

>  <SCORE.SYSTEM>
0

>  <SCORE.SYSTEM.CONST>
0

>  <SCORE.SYSTEM.DIHEDRAL>
0

>  <SCORE.SYSTEM.SOLV>
0

>  <SCORE.SYSTEM.norm>
0

>  <SCORE.heavy>
37

>  <SCORE.norm>
-0.371057

>  <RMSD>
14.283

$$$$
1yrj_lig
 OpenBabel11021811423D
libRbt.so/2013.1/901 2013/11/27
 37 40  0  0  0  0  0  0  0  0999 V2000
   36.5177   13.0240   17.0788 C   0  0  1  0  0  0  0  0  0  0  0  0
   35.7279   13.5582   18.2896 C   0  0  1  0  0  0  0  0  0  0  0  0
   35.2582   12.4219   19.2120 C   0  0  0  0  0  0  0  0  0  0  0  0
   34.4397   11.3831   18.4017 C   0  0  1  0  0  0  0  0  0  0  0  0
   35.2850   10.8400   17.2340 C   0  0  1  0  0  0  0  0  0  0  0  0
   34.4301    9.7716   16.4305 C   0  0  1  0  0  0  0  0  0  0  0  0
   34.0203    8.6249   17.3690 C   0  0  1  0  0  0  0  0  0  0  0  0
   33.2180    9.2285   18.5472 C   0  0  2  0  0  0  0  0  0  0  0  0
   33.2393    6.2042   17.1765 C   0  0  0  0  0  0  0  0  0  0  0  0
   36.5006   14.5494   19.0561 N   0  0  0  0  0  0  0  0  0  0  0  0
   33.2568    7.5882   16.6076 N   0  0  0  0  0  0  0  0  0  0  0  0
   37.8463   12.5767   17.4077 O   0  0  0  0  0  0  0  0  0  0  0  0
   35.7184   11.9824   16.4043 O   0  0  0  0  0  0  0  0  0  0  0  0
   33.9961   10.2456   19.2394 O   0  0  0  0  0  0  0  0  0  0  0  0
   33.2428   10.3764   15.9626 O   0  0  0  0  0  0  0  0  0  0  0  0
   32.8490    8.2353   19.5048 O   0  0  0  0  0  0  0  0  0  0  0  0
   31.8498    8.6926   20.4461 C   0  0  2  0  0  0  0  0  0  0  0  0
   31.6327    7.7258   21.6216 C   0  0  1  0  0  0  0  0  0  0  0  0
   30.9516    6.4139   21.1490 C   0  0  2  0  0  0  0  0  0  0  0  0
   29.6369    6.7311   20.4739 C   0  0  1  0  0  0  0  0  0  0  0  0
   29.8920    7.6806   19.2794 C   0  0  1  0  0  0  0  0  0  0  0  0
   28.6066    8.0934   18.5658 C   0  0  0  0  0  0  0  0  0  0  0  0
   29.0159    5.4653   20.0318 N   0  0  0  0  0  0  0  0  0  0  0  0
   30.5560    8.9068   19.7569 O   0  0  0  0  0  0  0  0  0  0  0  0
   32.9009    7.4836   22.2478 O   0  0  0  0  0  0  0  0  0  0  0  0
   30.6963    5.5685   22.2790 O   0  0  0  0  0  0  0  0  0  0  0  0
   28.0297    6.9694   17.9562 O   0  0  0  0  0  0  0  0  0  0  0  0
   38.6422   11.5899   16.5668 C   0  0  1  0  0  0  0  0  0  0  0  0
   38.3112   10.1749   17.0907 C   0  0  1  0  0  0  0  0  0  0  0  0
   39.0242    9.0868   16.2519 C   0  0  2  0  0  0  0  0  0  0  0  0
   38.6060    9.2015   14.7812 C   0  0  1  0  0  0  0  0  0  0  0  0
   38.9661   10.6053   14.2313 C   0  0  0  0  0  0  0  0  0  0  0  0
   38.2377   11.6649   15.0647 C   0  0  2  0  0  0  0  0  0  0  0  0
   39.2996    8.1657   13.9834 N   0  0  0  0  0  0  0  0  0  0  0  0
   38.5874   12.9681   14.5060 N   0  0  0  0  0  0  0  0  0  0  0  0
   38.7529   10.0644   18.4613 O   0  0  0  0  0  0  0  0  0  0  0  0
   38.6610    7.7882   16.7680 O   0  0  0  0  0  0  0  0  0  0  0  0
  1  2  1  0  0  0  0
  1 12  1  1  0  0  0
  1 13  1  0  0  0  0
  2  3  1  0  0  0  0
  2 10  1  1  0  0  0
  4  3  1  1  0  0  0
  4  5  1  0  0  0  0
  4 14  1  0  0  0  0
  5  6  1  0  0  0  0
  5 13  1  6  0  0  0
  6  7  1  0  0  0  0
  6 15  1  1  0  0  0
  7  8  1  0  0  0  0
  7 11  1  6  0  0  0
  8 14  1  0  0  0  0
  8 16  1  1  0  0  0
  9 11  1  0  0  0  0
 17 16  1  6  0  0  0
 17 18  1  0  0  0  0
 17 24  1  0  0  0  0
 18 19  1  0  0  0  0
 18 25  1  6  0  0  0
 19 20  1  0  0  0  0
 19 26  1  1  0  0  0
 20 21  1  0  0  0  0
 20 23  1  6  0  0  0
 21 22  1  1  0  0  0
 21 24  1  0  0  0  0
 22 27  1  0  0  0  0
 28 12  1  1  0  0  0
 28 29  1  0  0  0  0
 28 33  1  0  0  0  0
 29 30  1  0  0  0  0
 29 36  1  1  0  0  0
 30 31  1  0  0  0  0
 30 37  1  1  0  0  0
 31 32  1  0  0  0  0
 31 34  1  6  0  0  0
 32 33  1  0  0  0  0
 33 35  1  6  0  0  0
M  END
>  <CHROM.1>
157.71671130,156.81262130,-166.54217197,-169.73424982,-66.03456643,-89.99106640
34.46377210,9.47398762,18.01341657,0.25129577,0.58608616,0.36884346

>  <Name>
1yrj_lig

>  <RI>
0

>  <Rbt.Current_Directory>
/home/itssahil/PROJECTS/Mol_Feturizer/New_Systems/rnas/1yrj

>  <Rbt.Executable>
rbdock ($Id: //depot/dev/client3/rdock/2013.1/src/exe/rbdock.cxx#4 $)

>  <Rbt.Library>
libRbt.so (2013.1, Build901 2013/11/27)

>  <Rbt.Parameter_File>
/export/apps/rDock/src/rDock_2013.1_src/data/scripts/dock_solv.prm

>  <Rbt.Receptor>
prm/blind_docking_100.prm

>  <SCORE>
-11.1086

>  <SCORE.INTER>
-6.5272

>  <SCORE.INTER.CONST>
1

>  <SCORE.INTER.POLAR>
0

>  <SCORE.INTER.ROT>
6

>  <SCORE.INTER.SOLV>
7.52228

>  <SCORE.INTER.VDW>
-14.4589

>  <SCORE.INTER.norm>
-0.176411

>  <SCORE.INTRA>
-4.58191

>  <SCORE.INTRA.DIHEDRAL>
-7.9137

>  <SCORE.INTRA.DIHEDRAL.0>
15.6389

>  <SCORE.INTRA.POLAR>
0

>  <SCORE.INTRA.POLAR.0>
0

>  <SCORE.INTRA.REPUL>
0

>  <SCORE.INTRA.REPUL.0>
0

>  <SCORE.INTRA.SOLV>
-0.466172

>  <SCORE.INTRA.SOLV.lig_0>
-90.9181

>  <SCORE.INTRA.VDW>
-0.391978

>  <SCORE.INTRA.VDW.0>
-3.14158

>  <SCORE.INTRA.norm>
-0.123835

>  <SCORE.RESTR>
0.000471778

>  <SCORE.RESTR.CAVITY>
0.000471778

>  <SCORE.RESTR.norm>
1.27507e-05

>  <SCORE.SYSTEM>
0

>  <SCORE.SYSTEM.CONST>
0

>  <SCORE.SYSTEM.DIHEDRAL>
0

>  <SCORE.SYSTEM.SOLV>
0

>  <SCORE.SYSTEM.norm>
0

>  <SCORE.heavy>
37

>  <SCORE.norm>
-0.300234

>  <RMSD>
14.292

$$$$
1yrj_lig
 OpenBabel11021811423D
libRbt.so/2013.1/901 2013/11/27
 37 40  0  0  0  0  0  0  0  0999 V2000
   35.7815    5.7128   14.9805 C   0  0  1  0  0  0  0  0  0  0  0  0
   34.8462    6.3658   13.9441 C   0  0  1  0  0  0  0  0  0  0  0  0
   33.8553    7.3393   14.6020 C   0  0  0  0  0  0  0  0  0  0  0  0
   33.0614    6.6151   15.7204 C   0  0  1  0  0  0  0  0  0  0  0  0
   34.0334    6.0227   16.7584 C   0  0  1  0  0  0  0  0  0  0  0  0
   33.1963    5.2999   17.8964 C   0  0  1  0  0  0  0  0  0  0  0  0
   32.2534    6.3119   18.5674 C   0  0  1  0  0  0  0  0  0  0  0  0
   31.3338    6.9121   17.4763 C   0  0  2  0  0  0  0  0  0  0  0  0
   31.9784    5.9007   21.0698 C   0  0  0  0  0  0  0  0  0  0  0  0
   35.5979    7.0479   12.8779 N   0  0  0  0  0  0  0  0  0  0  0  0
   31.4969    5.6502   19.6753 N   0  0  0  0  0  0  0  0  0  0  0  0
   36.7977    6.6012   15.4818 O   0  0  0  0  0  0  0  0  0  0  0  0
   34.9660    5.1174   16.0570 O   0  0  0  0  0  0  0  0  0  0  0  0
   32.1183    7.5226   16.4129 O   0  0  0  0  0  0  0  0  0  0  0  0
   32.3909    4.2936   17.3193 O   0  0  0  0  0  0  0  0  0  0  0  0
   30.4628    7.9128   18.0050 O   0  0  0  0  0  0  0  0  0  0  0  0
   31.1205    8.8133   18.9271 C   0  0  2  0  0  0  0  0  0  0  0  0
   30.1755    9.8662   19.5287 C   0  0  1  0  0  0  0  0  0  0  0  0
   29.7234   10.8914   18.4550 C   0  0  2  0  0  0  0  0  0  0  0  0
   30.9323   11.5558   17.8369 C   0  0  1  0  0  0  0  0  0  0  0  0
   31.8474   10.4744   17.2151 C   0  0  1  0  0  0  0  0  0  0  0  0
   33.1224   11.0552   16.6078 C   0  0  0  0  0  0  0  0  0  0  0  0
   30.4707   12.5208   16.8175 N   0  0  0  0  0  0  0  0  0  0  0  0
   32.2434    9.5066   18.2538 O   0  0  0  0  0  0  0  0  0  0  0  0
   29.0649    9.1854   20.1306 O   0  0  0  0  0  0  0  0  0  0  0  0
   28.9057   11.8997   19.0646 O   0  0  0  0  0  0  0  0  0  0  0  0
   33.8825   10.0211   16.0413 O   0  0  0  0  0  0  0  0  0  0  0  0
   36.5029    7.9207   16.1791 C   0  0  1  0  0  0  0  0  0  0  0  0
   37.0737    7.8165   17.6106 C   0  0  1  0  0  0  0  0  0  0  0  0
   36.8831    9.1422   18.3868 C   0  0  2  0  0  0  0  0  0  0  0  0
   37.5733   10.2900   17.6403 C   0  0  1  0  0  0  0  0  0  0  0  0
   36.9840   10.4300   16.2135 C   0  0  0  0  0  0  0  0  0  0  0  0
   37.1977    9.1139   15.4585 C   0  0  2  0  0  0  0  0  0  0  0  0
   37.3777   11.5558   18.3819 N   0  0  0  0  0  0  0  0  0  0  0  0
   36.6470    9.2917   14.1177 N   0  0  0  0  0  0  0  0  0  0  0  0
   36.3828    6.7639   18.3182 O   0  0  0  0  0  0  0  0  0  0  0  0
   37.4549    8.9968   19.7047 O   0  0  0  0  0  0  0  0  0  0  0  0
  1  2  1  0  0  0  0
  1 12  1  1  0  0  0
  1 13  1  0  0  0  0
  2  3  1  0  0  0  0
  2 10  1  6  0  0  0
  4  3  1  6  0  0  0
  4  5  1  0  0  0  0
  4 14  1  0  0  0  0
  5  6  1  0  0  0  0
  5 13  1  6  0  0  0
  6  7  1  0  0  0  0
  6 15  1  6  0  0  0
  7  8  1  0  0  0  0
  7 11  1  1  0  0  0
  8 14  1  0  0  0  0
  8 16  1  1  0  0  0
  9 11  1  0  0  0  0
 17 16  1  6  0  0  0
 17 18  1  0  0  0  0
 17 24  1  0  0  0  0
 18 19  1  0  0  0  0
 18 25  1  6  0  0  0
 19 20  1  0  0  0  0
 19 26  1  1  0  0  0
 20 21  1  0  0  0  0
 20 23  1  6  0  0  0
 21 22  1  1  0  0  0
 21 24  1  0  0  0  0
 22 27  1  0  0  0  0
 28 12  1  6  0  0  0
 28 29  1  0  0  0  0
 28 33  1  0  0  0  0
 29 30  1  0  0  0  0
 29 36  1  1  0  0  0
 30 31  1  0  0  0  0
 30 37  1  1  0  0  0
 31 32  1  0  0  0  0
 31 34  1  1  0  0  0
 32 33  1  0  0  0  0
 33 35  1  6  0  0  0
M  END
>  <CHROM.1>
58.19337388,101.31816764,42.82823849,-178.32398336,-178.73763428,118.42456611
33.64153941,8.30296938,17.26395562,0.31510128,-0.39652913,-3.03179266

>  <Name>
1yrj_lig

>  <RI>
0

>  <Rbt.Current_Directory>
/home/itssahil/PROJECTS/Mol_Feturizer/New_Systems/rnas/1yrj

>  <Rbt.Executable>
rbdock ($Id: //depot/dev/client3/rdock/2013.1/src/exe/rbdock.cxx#4 $)

>  <Rbt.Library>
libRbt.so (2013.1, Build901 2013/11/27)

>  <Rbt.Parameter_File>
/export/apps/rDock/src/rDock_2013.1_src/data/scripts/dock_solv.prm

>  <Rbt.Receptor>
prm/blind_docking_100.prm

>  <SCORE>
-12.9082

>  <SCORE.INTER>
-10.726

>  <SCORE.INTER.CONST>
1

>  <SCORE.INTER.POLAR>
-0.982666

>  <SCORE.INTER.ROT>
6

>  <SCORE.INTER.SOLV>
14.1429

>  <SCORE.INTER.VDW>
-16.1894

>  <SCORE.INTER.norm>
-0.289891

>  <SCORE.INTRA>
-2.18226

>  <SCORE.INTRA.DIHEDRAL>
-6.02824

>  <SCORE.INTRA.DIHEDRAL.0>
15.6389

>  <SCORE.INTRA.POLAR>
0

>  <SCORE.INTRA.POLAR.0>
0

>  <SCORE.INTRA.REPUL>
0

>  <SCORE.INTRA.REPUL.0>
0

>  <SCORE.INTRA.SOLV>
5.24934

>  <SCORE.INTRA.SOLV.lig_0>
-90.9181

>  <SCORE.INTRA.VDW>
-1.79282

>  <SCORE.INTRA.VDW.0>
-3.14158

>  <SCORE.INTRA.norm>
-0.0589801

>  <SCORE.RESTR>
0

>  <SCORE.RESTR.CAVITY>
0

>  <SCORE.RESTR.norm>
0

>  <SCORE.SYSTEM>
0

>  <SCORE.SYSTEM.CONST>
0

>  <SCORE.SYSTEM.DIHEDRAL>
0

>  <SCORE.SYSTEM.SOLV>
0

>  <SCORE.SYSTEM.norm>
0

>  <SCORE.heavy>
37

>  <SCORE.norm>
-0.348871

>  <RMSD>
14.292

$$$$
1yrj_lig
 OpenBabel11021811423D
libRbt.so/2013.1/901 2013/11/27
 37 40  0  0  0  0  0  0  0  0999 V2000
   35.9568    7.2606   15.2777 C   0  0  1  0  0  0  0  0  0  0  0  0
   35.1421    6.1668   14.5599 C   0  0  1  0  0  0  0  0  0  0  0  0
   33.6351    6.3089   14.8269 C   0  0  0  0  0  0  0  0  0  0  0  0
   33.3644    6.3217   16.3540 C   0  0  1  0  0  0  0  0  0  0  0  0
   34.1586    7.4606   17.0212 C   0  0  1  0  0  0  0  0  0  0  0  0
   33.8540    7.4595   18.5785 C   0  0  1  0  0  0  0  0  0  0  0  0
   32.3470    7.6544   18.8115 C   0  0  1  0  0  0  0  0  0  0  0  0
   31.5943    6.5154   18.0818 C   0  0  2  0  0  0  0  0  0  0  0  0
   31.7154    9.0420   20.8565 C   0  0  0  0  0  0  0  0  0  0  0  0
   35.4028    6.1487   13.1112 N   0  0  0  0  0  0  0  0  0  0  0  0
   32.0580    7.7051   20.2782 N   0  0  0  0  0  0  0  0  0  0  0  0
   35.8461    8.5588   14.6648 O   0  0  0  0  0  0  0  0  0  0  0  0
   35.5897    7.2741   16.7073 O   0  0  0  0  0  0  0  0  0  0  0  0
   31.9272    6.4961   16.6648 O   0  0  0  0  0  0  0  0  0  0  0  0
   34.2049    6.2051   19.1244 O   0  0  0  0  0  0  0  0  0  0  0  0
   30.1775    6.6552   18.1948 O   0  0  0  0  0  0  0  0  0  0  0  0
   29.6481    6.1251   19.4327 C   0  0  2  0  0  0  0  0  0  0  0  0
   28.7537    4.8907   19.2336 C   0  0  1  0  0  0  0  0  0  0  0  0
   27.4223    5.2712   18.5329 C   0  0  2  0  0  0  0  0  0  0  0  0
   26.6991    6.3250   19.3399 C   0  0  1  0  0  0  0  0  0  0  0  0
   27.6123    7.5638   19.4974 C   0  0  1  0  0  0  0  0  0  0  0  0
   26.9770    8.6642   20.3443 C   0  0  0  0  0  0  0  0  0  0  0  0
   25.4405    6.6692   18.6465 N   0  0  0  0  0  0  0  0  0  0  0  0
   28.8743    7.1670   20.1473 O   0  0  0  0  0  0  0  0  0  0  0  0
   29.4952    3.9099   18.4938 O   0  0  0  0  0  0  0  0  0  0  0  0
   26.5824    4.1131   18.4310 O   0  0  0  0  0  0  0  0  0  0  0  0
   25.8550    9.1777   19.6768 O   0  0  0  0  0  0  0  0  0  0  0  0
   36.5963    9.7916   15.1465 C   0  0  1  0  0  0  0  0  0  0  0  0
   37.3610   10.3625   13.9318 C   0  0  1  0  0  0  0  0  0  0  0  0
   38.1083   11.6661   14.3035 C   0  0  2  0  0  0  0  0  0  0  0  0
   37.1128   12.7109   14.8218 C   0  0  1  0  0  0  0  0  0  0  0  0
   36.3639   12.1649   16.0643 C   0  0  0  0  0  0  0  0  0  0  0  0
   35.6190   10.8852   15.6702 C   0  0  2  0  0  0  0  0  0  0  0  0
   37.8351   13.9504   15.1856 N   0  0  0  0  0  0  0  0  0  0  0  0
   34.9140   10.4133   16.8590 N   0  0  0  0  0  0  0  0  0  0  0  0
   38.3280    9.3881   13.4831 O   0  0  0  0  0  0  0  0  0  0  0  0
   38.7827   12.1675   13.1294 O   0  0  0  0  0  0  0  0  0  0  0  0
  1  2  1  0  0  0  0
  1 12  1  6  0  0  0
  1 13  1  0  0  0  0
  2  3  1  0  0  0  0
  2 10  1  6  0  0  0
  4  3  1  6  0  0  0
  4  5  1  0  0  0  0
  4 14  1  0  0  0  0
  5  6  1  0  0  0  0
  5 13  1  1  0  0  0
  6  7  1  0  0  0  0
  6 15  1  6  0  0  0
  7  8  1  0  0  0  0
  7 11  1  1  0  0  0
  8 14  1  0  0  0  0
  8 16  1  6  0  0  0
  9 11  1  0  0  0  0
 17 16  1  6  0  0  0
 17 18  1  0  0  0  0
 17 24  1  0  0  0  0
 18 19  1  0  0  0  0
 18 25  1  6  0  0  0
 19 20  1  0  0  0  0
 19 26  1  1  0  0  0
 20 21  1  0  0  0  0
 20 23  1  6  0  0  0
 21 22  1  1  0  0  0
 21 24  1  0  0  0  0
 22 27  1  0  0  0  0
 28 12  1  6  0  0  0
 28 29  1  0  0  0  0
 28 33  1  0  0  0  0
 29 30  1  0  0  0  0
 29 36  1  1  0  0  0
 30 31  1  0  0  0  0
 30 37  1  6  0  0  0
 31 32  1  0  0  0  0
 31 34  1  1  0  0  0
 32 33  1  0  0  0  0
 33 35  1  1  0  0  0
M  END
>  <CHROM.1>
-177.39552315,106.72886958,-83.05507141,-113.16828128,-65.78943713,125.94336472
32.71128059,7.99524744,17.13462683,-0.24552095,-0.54235094,-2.87226673

>  <Name>
1yrj_lig

>  <RI>
0

>  <Rbt.Current_Directory>
/home/itssahil/PROJECTS/Mol_Feturizer/New_Systems/rnas/1yrj

>  <Rbt.Executable>
rbdock ($Id: //depot/dev/client3/rdock/2013.1/src/exe/rbdock.cxx#4 $)

>  <Rbt.Library>
libRbt.so (2013.1, Build901 2013/11/27)

>  <Rbt.Parameter_File>
/export/apps/rDock/src/rDock_2013.1_src/data/scripts/dock_solv.prm

>  <Rbt.Receptor>
prm/blind_docking_100.prm

>  <SCORE>
-12.9896

>  <SCORE.INTER>
-14.1523

>  <SCORE.INTER.CONST>
1

>  <SCORE.INTER.POLAR>
-1.35353

>  <SCORE.INTER.ROT>
6

>  <SCORE.INTER.SOLV>
11.5524

>  <SCORE.INTER.VDW>
-16.3739

>  <SCORE.INTER.norm>
-0.382494

>  <SCORE.INTRA>
1.15066

>  <SCORE.INTRA.DIHEDRAL>
1.94596

>  <SCORE.INTRA.DIHEDRAL.0>
15.6389

>  <SCORE.INTRA.POLAR>
0

>  <SCORE.INTRA.POLAR.0>
0

>  <SCORE.INTRA.REPUL>
0

>  <SCORE.INTRA.REPUL.0>
0

>  <SCORE.INTRA.SOLV>
1.63229

>  <SCORE.INTRA.SOLV.lig_0>
-90.9181

>  <SCORE.INTRA.VDW>
-0.638463

>  <SCORE.INTRA.VDW.0>
-3.14158

>  <SCORE.INTRA.norm>
0.0310989

>  <SCORE.RESTR>
0.012027

>  <SCORE.RESTR.CAVITY>
0.012027

>  <SCORE.RESTR.norm>
0.000325054

>  <SCORE.SYSTEM>
0

>  <SCORE.SYSTEM.CONST>
0

>  <SCORE.SYSTEM.DIHEDRAL>
0

>  <SCORE.SYSTEM.SOLV>
0

>  <SCORE.SYSTEM.norm>
0

>  <SCORE.heavy>
37

>  <SCORE.norm>
-0.35107

>  <RMSD>
14.296

$$$$
1yrj_lig
 OpenBabel11021811423D
libRbt.so/2013.1/901 2013/11/27
 37 40  0  0  0  0  0  0  0  0999 V2000
   35.8117    7.3472   15.3063 C   0  0  1  0  0  0  0  0  0  0  0  0
   35.0157    6.2553   14.5650 C   0  0  1  0  0  0  0  0  0  0  0  0
   33.5047    6.5363   14.5856 C   0  0  0  0  0  0  0  0  0  0  0  0
   33.0168    6.7147   16.0470 C   0  0  1  0  0  0  0  0  0  0  0  0
   33.8040    7.8481   16.7316 C   0  0  1  0  0  0  0  0  0  0  0  0
   33.2770    8.0180   18.2187 C   0  0  1  0  0  0  0  0  0  0  0  0
   31.7756    8.3483   18.2013 C   0  0  1  0  0  0  0  0  0  0  0  0
   31.0384    7.2056   17.4616 C   0  0  2  0  0  0  0  0  0  0  0  0
   30.7787    9.9271   19.9392 C   0  0  0  0  0  0  0  0  0  0  0  0
   35.4820    6.0799   13.1798 N   0  0  0  0  0  0  0  0  0  0  0  0
   31.2818    8.5599   19.5973 N   0  0  0  0  0  0  0  0  0  0  0  0
   35.9080    8.5860   14.5787 O   0  0  0  0  0  0  0  0  0  0  0  0
   35.2430    7.5243   16.6568 O   0  0  0  0  0  0  0  0  0  0  0  0
   31.5710    7.0266   16.1187 O   0  0  0  0  0  0  0  0  0  0  0  0
   33.4311    6.7982   18.9135 O   0  0  0  0  0  0  0  0  0  0  0  0
   29.6385    7.4629   17.3445 O   0  0  0  0  0  0  0  0  0  0  0  0
   28.8248    6.2765   17.4993 C   0  0  2  0  0  0  0  0  0  0  0  0
   27.3187    6.5763   17.5730 C   0  0  1  0  0  0  0  0  0  0  0  0
   26.9567    7.3040   18.8950 C   0  0  2  0  0  0  0  0  0  0  0  0
   27.3891    6.4677   20.0776 C   0  0  1  0  0  0  0  0  0  0  0  0
   28.9119    6.2086   19.9905 C   0  0  1  0  0  0  0  0  0  0  0  0
   29.4285    5.3267   21.1251 C   0  0  0  0  0  0  0  0  0  0  0  0
   27.0361    7.1874   21.3188 N   0  0  0  0  0  0  0  0  0  0  0  0
   29.2257    5.5350   18.7176 O   0  0  0  0  0  0  0  0  0  0  0  0
   26.9528    7.3407   16.4151 O   0  0  0  0  0  0  0  0  0  0  0  0
   25.5378    7.5005   18.9648 O   0  0  0  0  0  0  0  0  0  0  0  0
   29.1634    5.9463   22.3554 O   0  0  0  0  0  0  0  0  0  0  0  0
   36.6488    9.8136   15.0872 C   0  0  1  0  0  0  0  0  0  0  0  0
   37.4436   10.3916   13.8955 C   0  0  1  0  0  0  0  0  0  0  0  0
   38.1843   11.6910   14.2945 C   0  0  2  0  0  0  0  0  0  0  0  0
   37.1787   12.7341   14.7962 C   0  0  1  0  0  0  0  0  0  0  0  0
   36.3989   12.1809   16.0163 C   0  0  0  0  0  0  0  0  0  0  0  0
   35.6612   10.9056   15.5951 C   0  0  2  0  0  0  0  0  0  0  0  0
   37.8944   13.9694   15.1862 N   0  0  0  0  0  0  0  0  0  0  0  0
   34.9268   10.4267   16.7631 N   0  0  0  0  0  0  0  0  0  0  0  0
   38.4193    9.4184   13.4632 O   0  0  0  0  0  0  0  0  0  0  0  0
   38.8879   12.1993   13.1407 O   0  0  0  0  0  0  0  0  0  0  0  0
  1  2  1  0  0  0  0
  1 12  1  6  0  0  0
  1 13  1  0  0  0  0
  2  3  1  0  0  0  0
  2 10  1  6  0  0  0
  4  3  1  6  0  0  0
  4  5  1  0  0  0  0
  4 14  1  0  0  0  0
  5  6  1  0  0  0  0
  5 13  1  1  0  0  0
  6  7  1  0  0  0  0
  6 15  1  1  0  0  0
  7  8  1  0  0  0  0
  7 11  1  1  0  0  0
  8 14  1  0  0  0  0
  8 16  1  6  0  0  0
  9 11  1  0  0  0  0
 17 16  1  1  0  0  0
 17 18  1  0  0  0  0
 17 24  1  0  0  0  0
 18 19  1  0  0  0  0
 18 25  1  6  0  0  0
 19 20  1  0  0  0  0
 19 26  1  1  0  0  0
 20 21  1  0  0  0  0
 20 23  1  1  0  0  0
 21 22  1  1  0  0  0
 21 24  1  0  0  0  0
 22 27  1  0  0  0  0
 28 12  1  6  0  0  0
 28 29  1  0  0  0  0
 28 33  1  0  0  0  0
 29 30  1  0  0  0  0
 29 36  1  1  0  0  0
 30 31  1  0  0  0  0
 30 37  1  6  0  0  0
 31 32  1  0  0  0  0
 31 34  1  1  0  0  0
 32 33  1  0  0  0  0
 33 35  1  1  0  0  0
M  END
>  <CHROM.1>
-179.50570264,115.97664891,-142.32063732,171.83732311,-59.71757787,137.19077551
32.64518201,8.24334914,17.00324981,-0.05951375,-0.60116900,-2.57997169

>  <Name>
1yrj_lig

>  <RI>
0

>  <Rbt.Current_Directory>
/home/itssahil/PROJECTS/Mol_Feturizer/New_Systems/rnas/1yrj

>  <Rbt.Executable>
rbdock ($Id: //depot/dev/client3/rdock/2013.1/src/exe/rbdock.cxx#4 $)

>  <Rbt.Library>
libRbt.so (2013.1, Build901 2013/11/27)

>  <Rbt.Parameter_File>
/export/apps/rDock/src/rDock_2013.1_src/data/scripts/dock_solv.prm

>  <Rbt.Receptor>
prm/blind_docking_100.prm

>  <SCORE>
-17.6988

>  <SCORE.INTER>
-16.7073

>  <SCORE.INTER.CONST>
1

>  <SCORE.INTER.POLAR>
-1.33439

>  <SCORE.INTER.ROT>
6

>  <SCORE.INTER.SOLV>
19.2386

>  <SCORE.INTER.VDW>
-20.7031

>  <SCORE.INTER.norm>
-0.451547

>  <SCORE.INTRA>
-1.03171

>  <SCORE.INTRA.DIHEDRAL>
-3.20351

>  <SCORE.INTRA.DIHEDRAL.0>
15.6389

>  <SCORE.INTRA.POLAR>
0

>  <SCORE.INTRA.POLAR.0>
0

>  <SCORE.INTRA.REPUL>
0

>  <SCORE.INTRA.REPUL.0>
0

>  <SCORE.INTRA.SOLV>
2.47364

>  <SCORE.INTRA.SOLV.lig_0>
-90.9181

>  <SCORE.INTRA.VDW>
-0.666778

>  <SCORE.INTRA.VDW.0>
-3.14158

>  <SCORE.INTRA.norm>
-0.0278841

>  <SCORE.RESTR>
0.0401734

>  <SCORE.RESTR.CAVITY>
0.0401734

>  <SCORE.RESTR.norm>
0.00108577

>  <SCORE.SYSTEM>
0

>  <SCORE.SYSTEM.CONST>
0

>  <SCORE.SYSTEM.DIHEDRAL>
0

>  <SCORE.SYSTEM.SOLV>
0

>  <SCORE.SYSTEM.norm>
0

>  <SCORE.heavy>
37

>  <SCORE.norm>
-0.478346

>  <RMSD>
14.303

$$$$
1yrj_lig
 OpenBabel11021811423D
libRbt.so/2013.1/901 2013/11/27
 37 40  0  0  0  0  0  0  0  0999 V2000
   36.0087    6.9161   15.4090 C   0  0  1  0  0  0  0  0  0  0  0  0
   35.0741    6.1643   14.4411 C   0  0  1  0  0  0  0  0  0  0  0  0
   33.6320    6.6909   14.5148 C   0  0  0  0  0  0  0  0  0  0  0  0
   33.1179    6.6309   15.9769 C   0  0  1  0  0  0  0  0  0  0  0  0
   34.0532    7.4363   16.8985 C   0  0  1  0  0  0  0  0  0  0  0  0
   33.4982    7.3695   18.3836 C   0  0  1  0  0  0  0  0  0  0  0  0
   32.0754    7.9499   18.4312 C   0  0  1  0  0  0  0  0  0  0  0  0
   31.1902    7.1389   17.4540 C   0  0  2  0  0  0  0  0  0  0  0  0
   31.3637    9.2643   20.4982 C   0  0  0  0  0  0  0  0  0  0  0  0
   35.5640    6.2144   13.0539 N   0  0  0  0  0  0  0  0  0  0  0  0
   31.5639    7.9370   19.8368 N   0  0  0  0  0  0  0  0  0  0  0  0
   36.3423    8.2471   14.9727 O   0  0  0  0  0  0  0  0  0  0  0  0
   35.4197    6.8928   16.7623 O   0  0  0  0  0  0  0  0  0  0  0  0
   31.7430    7.1649   16.1076 O   0  0  0  0  0  0  0  0  0  0  0  0
   33.4158    6.0205   18.7936 O   0  0  0  0  0  0  0  0  0  0  0  0
   29.8594    7.6531   17.3888 O   0  0  0  0  0  0  0  0  0  0  0  0
   28.8529    6.6202   17.2721 C   0  0  2  0  0  0  0  0  0  0  0  0
   27.4154    7.1571   17.3667 C   0  0  1  0  0  0  0  0  0  0  0  0
   27.0978    7.6571   18.8010 C   0  0  2  0  0  0  0  0  0  0  0  0
   27.3124    6.5388   19.7950 C   0  0  1  0  0  0  0  0  0  0  0  0
   28.7738    6.0409   19.6963 C   0  0  1  0  0  0  0  0  0  0  0  0
   29.0666    4.8735   20.6360 C   0  0  0  0  0  0  0  0  0  0  0  0
   27.0072    7.0458   21.1490 N   0  0  0  0  0  0  0  0  0  0  0  0
   29.0499    5.5916   18.3199 O   0  0  0  0  0  0  0  0  0  0  0  0
   27.2530    8.1897   16.3836 O   0  0  0  0  0  0  0  0  0  0  0  0
   25.7292    8.0801   18.8727 O   0  0  0  0  0  0  0  0  0  0  0  0
   28.1943    3.8131   20.3488 O   0  0  0  0  0  0  0  0  0  0  0  0
   37.2816    9.1769   15.7260 C   0  0  1  0  0  0  0  0  0  0  0  0
   38.7237    8.7461   15.3787 C   0  0  1  0  0  0  0  0  0  0  0  0
   39.7627    9.6788   16.0472 C   0  0  2  0  0  0  0  0  0  0  0  0
   39.5351   11.1259   15.5943 C   0  0  1  0  0  0  0  0  0  0  0  0
   38.1028   11.5843   15.9698 C   0  0  0  0  0  0  0  0  0  0  0  0
   37.0916   10.6585   15.2853 C   0  0  2  0  0  0  0  0  0  0  0  0
   40.5243   12.0135   16.2455 N   0  0  0  0  0  0  0  0  0  0  0  0
   35.7587   11.1325   15.6480 N   0  0  0  0  0  0  0  0  0  0  0  0
   38.9405    7.3991   15.8526 O   0  0  0  0  0  0  0  0  0  0  0  0
   41.0876    9.2466   15.6699 O   0  0  0  0  0  0  0  0  0  0  0  0
  1  2  1  0  0  0  0
  1 12  1  6  0  0  0
  1 13  1  0  0  0  0
  2  3  1  0  0  0  0
  2 10  1  6  0  0  0
  4  3  1  6  0  0  0
  4  5  1  0  0  0  0
  4 14  1  0  0  0  0
  5  6  1  0  0  0  0
  5 13  1  1  0  0  0
  6  7  1  0  0  0  0
  6 15  1  6  0  0  0
  7  8  1  0  0  0  0
  7 11  1  1  0  0  0
  8 14  1  0  0  0  0
  8 16  1  6  0  0  0
  9 11  1  0  0  0  0
 17 16  1  1  0  0  0
 17 18  1  0  0  0  0
 17 24  1  0  0  0  0
 18 19  1  0  0  0  0
 18 25  1  6  0  0  0
 19 20  1  0  0  0  0
 19 26  1  6  0  0  0
 20 21  1  0  0  0  0
 20 23  1  1  0  0  0
 21 22  1  1  0  0  0
 21 24  1  0  0  0  0
 22 27  1  0  0  0  0
 28 12  1  6  0  0  0
 28 29  1  0  0  0  0
 28 33  1  0  0  0  0
 29 30  1  0  0  0  0
 29 36  1  1  0  0  0
 30 31  1  0  0  0  0
 30 37  1  6  0  0  0
 31 32  1  0  0  0  0
 31 34  1  1  0  0  0
 32 33  1  0  0  0  0
 33 35  1  1  0  0  0
M  END
>  <CHROM.1>
-177.97811700,112.25630928,-142.40262352,173.27205857,58.04164536,79.99883327
33.10957392,7.75919154,17.17796398,-0.01507867,-0.40526081,-2.51108948

>  <Name>
1yrj_lig

>  <RI>
224

>  <Rbt.Current_Directory>
/home/itssahil/PROJECTS/Mol_Feturizer/New_Systems/rnas/1yrj

>  <Rbt.Executable>
rbdock ($Id: //depot/dev/client3/rdock/2013.1/src/exe/rbdock.cxx#4 $)

>  <Rbt.Library>
libRbt.so (2013.1, Build901 2013/11/27)

>  <Rbt.Parameter_File>
/export/apps/rDock/src/rDock_2013.1_src/data/scripts/dock_solv.prm

>  <Rbt.Receptor>
prm/blind_docking_80.prm

>  <SCORE>
-17.3433

>  <SCORE.INTER>
-12.6968

>  <SCORE.INTER.CONST>
1

>  <SCORE.INTER.POLAR>
-1.41747

>  <SCORE.INTER.ROT>
6

>  <SCORE.INTER.SOLV>
20.9445

>  <SCORE.INTER.VDW>
-18.3212

>  <SCORE.INTER.norm>
-0.343158

>  <SCORE.INTRA>
-4.70528

>  <SCORE.INTRA.DIHEDRAL>
-7.35255

>  <SCORE.INTRA.DIHEDRAL.0>
15.6389

>  <SCORE.INTRA.POLAR>
0

>  <SCORE.INTRA.POLAR.0>
0

>  <SCORE.INTRA.REPUL>
0

>  <SCORE.INTRA.REPUL.0>
0

>  <SCORE.INTRA.SOLV>
-1.22605

>  <SCORE.INTRA.SOLV.lig_0>
-90.9181

>  <SCORE.INTRA.VDW>
-0.415977

>  <SCORE.INTRA.VDW.0>
-3.14158

>  <SCORE.INTRA.norm>
-0.12717

>  <SCORE.RESTR>
0.0587941

>  <SCORE.RESTR.CAVITY>
0.0587941

>  <SCORE.RESTR.norm>
0.00158903

>  <SCORE.SYSTEM>
0

>  <SCORE.SYSTEM.CONST>
0

>  <SCORE.SYSTEM.DIHEDRAL>
0

>  <SCORE.SYSTEM.SOLV>
0

>  <SCORE.SYSTEM.norm>
0

>  <SCORE.heavy>
37

>  <SCORE.norm>
-0.468738

>  <RMSD>
14.308

$$$$
1yrj_lig
 OpenBabel11021811423D
libRbt.so/2013.1/901 2013/11/27
 37 40  0  0  0  0  0  0  0  0999 V2000
   30.7272    8.2772   20.3521 C   0  0  1  0  0  0  0  0  0  0  0  0
   31.2552    9.5457   19.6539 C   0  0  1  0  0  0  0  0  0  0  0  0
   31.3270    9.3705   18.1286 C   0  0  0  0  0  0  0  0  0  0  0  0
   32.1765    8.1216   17.7761 C   0  0  1  0  0  0  0  0  0  0  0  0
   31.5834    6.8717   18.4535 C   0  0  1  0  0  0  0  0  0  0  0  0
   32.4622    5.6084   18.0666 C   0  0  1  0  0  0  0  0  0  0  0  0
   32.4712    5.4320   16.5395 C   0  0  1  0  0  0  0  0  0  0  0  0
   33.0284    6.7303   15.9067 C   0  0  2  0  0  0  0  0  0  0  0  0
   32.4962    2.9313   16.0369 C   0  0  0  0  0  0  0  0  0  0  0  0
   30.4542   10.7334   19.9927 N   0  0  0  0  0  0  0  0  0  0  0  0
   33.2560    4.2136   16.1693 N   0  0  0  0  0  0  0  0  0  0  0  0
   29.3116    8.0733   20.1859 O   0  0  0  0  0  0  0  0  0  0  0  0
   31.5242    7.1166   19.9088 O   0  0  0  0  0  0  0  0  0  0  0  0
   32.2441    7.8865   16.3158 O   0  0  0  0  0  0  0  0  0  0  0  0
   33.7976    5.8234   18.4728 O   0  0  0  0  0  0  0  0  0  0  0  0
   33.0137    6.6764   14.4797 O   0  0  0  0  0  0  0  0  0  0  0  0
   34.0178    7.5182   13.8659 C   0  0  2  0  0  0  0  0  0  0  0  0
   35.4074    6.8633   13.8050 C   0  0  1  0  0  0  0  0  0  0  0  0
   36.0249    6.7275   15.2222 C   0  0  2  0  0  0  0  0  0  0  0  0
   36.1077    8.0861   15.8797 C   0  0  1  0  0  0  0  0  0  0  0  0
   34.6918    8.7054   15.9527 C   0  0  1  0  0  0  0  0  0  0  0  0
   34.6885   10.1056   16.5619 C   0  0  0  0  0  0  0  0  0  0  0  0
   36.6939    7.9239   17.2262 N   0  0  0  0  0  0  0  0  0  0  0  0
   34.1255    8.8031   14.5955 O   0  0  0  0  0  0  0  0  0  0  0  0
   35.2811    5.5957   13.1445 O   0  0  0  0  0  0  0  0  0  0  0  0
   37.3482    6.1836   15.1220 O   0  0  0  0  0  0  0  0  0  0  0  0
   33.4245   10.6881   16.3859 O   0  0  0  0  0  0  0  0  0  0  0  0
   28.7056    7.1066   19.1795 C   0  0  1  0  0  0  0  0  0  0  0  0
   28.3167    5.8279   19.9539 C   0  0  1  0  0  0  0  0  0  0  0  0
   27.6253    4.8001   19.0257 C   0  0  2  0  0  0  0  0  0  0  0  0
   26.3724    5.4217   18.3973 C   0  0  1  0  0  0  0  0  0  0  0  0
   26.7531    6.6863   17.5857 C   0  0  0  0  0  0  0  0  0  0  0  0
   27.4203    7.6955   18.5261 C   0  0  2  0  0  0  0  0  0  0  0  0
   25.7228    4.4378   17.5027 N   0  0  0  0  0  0  0  0  0  0  0  0
   27.7466    8.8758   17.7304 N   0  0  0  0  0  0  0  0  0  0  0  0
   29.5106    5.2264   20.5004 O   0  0  0  0  0  0  0  0  0  0  0  0
   27.2626    3.6394   19.8041 O   0  0  0  0  0  0  0  0  0  0  0  0
  1  2  1  0  0  0  0
  1 12  1  6  0  0  0
  1 13  1  0  0  0  0
  2  3  1  0  0  0  0
  2 10  1  6  0  0  0
  4  3  1  6  0  0  0
  4  5  1  0  0  0  0
  4 14  1  0  0  0  0
  5  6  1  0  0  0  0
  5 13  1  1  0  0  0
  6  7  1  0  0  0  0
  6 15  1  6  0  0  0
  7  8  1  0  0  0  0
  7 11  1  1  0  0  0
  8 14  1  0  0  0  0
  8 16  1  6  0  0  0
  9 11  1  0  0  0  0
 17 16  1  1  0  0  0
 17 18  1  0  0  0  0
 17 24  1  0  0  0  0
 18 19  1  0  0  0  0
 18 25  1  1  0  0  0
 19 20  1  0  0  0  0
 19 26  1  6  0  0  0
 20 21  1  0  0  0  0
 20 23  1  1  0  0  0
 21 22  1  6  0  0  0
 21 24  1  0  0  0  0
 22 27  1  0  0  0  0
 28 12  1  1  0  0  0
 28 29  1  0  0  0  0
 28 33  1  0  0  0  0
 29 30  1  0  0  0  0
 29 36  1  6  0  0  0
 30 31  1  0  0  0  0
 30 37  1  1  0  0  0
 31 32  1  0  0  0  0
 31 34  1  6  0  0  0
 32 33  1  0  0  0  0
 33 35  1  6  0  0  0
M  END
>  <CHROM.1>
100.30536309,91.91488189,-153.64258133,82.50420575,169.93878139,100.34800970
31.77279675,7.02221638,17.34924557,-3.07291203,-0.50189737,-2.73074552

>  <Name>
1yrj_lig

>  <RI>
0

>  <Rbt.Current_Directory>
/home/itssahil/PROJECTS/Mol_Feturizer/New_Systems/rnas/1yrj

>  <Rbt.Executable>
rbdock ($Id: //depot/dev/client3/rdock/2013.1/src/exe/rbdock.cxx#4 $)

>  <Rbt.Library>
libRbt.so (2013.1, Build901 2013/11/27)

>  <Rbt.Parameter_File>
/export/apps/rDock/src/rDock_2013.1_src/data/scripts/dock_solv.prm

>  <Rbt.Receptor>
prm/blind_docking_40.prm

>  <SCORE>
-2.43861

>  <SCORE.INTER>
-13.0277

>  <SCORE.INTER.CONST>
1

>  <SCORE.INTER.POLAR>
-1.68108

>  <SCORE.INTER.ROT>
6

>  <SCORE.INTER.SOLV>
13.97

>  <SCORE.INTER.VDW>
-15.3382

>  <SCORE.INTER.norm>
-0.352099

>  <SCORE.INTRA>
5.58436

>  <SCORE.INTRA.DIHEDRAL>
1.39448

>  <SCORE.INTRA.DIHEDRAL.0>
15.6389

>  <SCORE.INTRA.POLAR>
0

>  <SCORE.INTRA.POLAR.0>
0

>  <SCORE.INTRA.REPUL>
0

>  <SCORE.INTRA.REPUL.0>
0

>  <SCORE.INTRA.SOLV>
2.6373

>  <SCORE.INTRA.SOLV.lig_0>
-90.9181

>  <SCORE.INTRA.VDW>
3.56847

>  <SCORE.INTRA.VDW.0>
-3.14158

>  <SCORE.INTRA.norm>
0.150929

>  <SCORE.RESTR>
5.00469

>  <SCORE.RESTR.CAVITY>
5.00469

>  <SCORE.RESTR.norm>
0.135262

>  <SCORE.SYSTEM>
0

>  <SCORE.SYSTEM.CONST>
0

>  <SCORE.SYSTEM.DIHEDRAL>
0

>  <SCORE.SYSTEM.SOLV>
0

>  <SCORE.SYSTEM.norm>
0

>  <SCORE.heavy>
37

>  <SCORE.norm>
-0.0659084

>  <RMSD>
14.311

$$$$
1yrj_lig
 OpenBabel11021811423D
libRbt.so/2013.1/901 2013/11/27
 37 40  0  0  0  0  0  0  0  0999 V2000
   35.9002    6.5206   15.4635 C   0  0  1  0  0  0  0  0  0  0  0  0
   34.7587    5.9704   14.5862 C   0  0  1  0  0  0  0  0  0  0  0  0
   33.4292    6.6913   14.8602 C   0  0  0  0  0  0  0  0  0  0  0  0
   33.0844    6.6153   16.3705 C   0  0  1  0  0  0  0  0  0  0  0  0
   34.2292    7.2213   17.2043 C   0  0  1  0  0  0  0  0  0  0  0  0
   33.8459    7.1429   18.7421 C   0  0  1  0  0  0  0  0  0  0  0  0
   32.5404    7.9158   18.9903 C   0  0  1  0  0  0  0  0  0  0  0  0
   31.4374    7.3006   18.0951 C   0  0  2  0  0  0  0  0  0  0  0  0
   31.5625    9.1181   21.0163 C   0  0  0  0  0  0  0  0  0  0  0  0
   35.0869    6.0354   13.1527 N   0  0  0  0  0  0  0  0  0  0  0  0
   32.1986    7.8895   20.4463 N   0  0  0  0  0  0  0  0  0  0  0  0
   36.3752    7.8149   15.0482 O   0  0  0  0  0  0  0  0  0  0  0  0
   35.4747    6.4982   16.8767 O   0  0  0  0  0  0  0  0  0  0  0  0
   31.8285    7.3304   16.6932 O   0  0  0  0  0  0  0  0  0  0  0  0
   33.6119    5.7967   19.0995 O   0  0  0  0  0  0  0  0  0  0  0  0
   30.1994    8.0020   18.2171 O   0  0  0  0  0  0  0  0  0  0  0  0
   29.1709    7.5042   17.3294 C   0  0  2  0  0  0  0  0  0  0  0  0
   27.7823    8.1014   17.6105 C   0  0  1  0  0  0  0  0  0  0  0  0
   27.2167    7.5909   18.9624 C   0  0  2  0  0  0  0  0  0  0  0  0
   27.1527    6.0807   18.9559 C   0  0  1  0  0  0  0  0  0  0  0  0
   28.5680    5.5105   18.7005 C   0  0  1  0  0  0  0  0  0  0  0  0
   28.5882    3.9853   18.6295 C   0  0  0  0  0  0  0  0  0  0  0  0
   26.6158    5.6255   20.2551 N   0  0  0  0  0  0  0  0  0  0  0  0
   29.0849    6.0281   17.4209 O   0  0  0  0  0  0  0  0  0  0  0  0
   27.8894    9.5318   17.5726 O   0  0  0  0  0  0  0  0  0  0  0  0
   25.8926    8.1065   19.1571 O   0  0  0  0  0  0  0  0  0  0  0  0
   28.3257    3.4553   19.9016 O   0  0  0  0  0  0  0  0  0  0  0  0
   37.6335    8.4727   15.5945 C   0  0  1  0  0  0  0  0  0  0  0  0
   37.7978    9.8213   14.8596 C   0  0  1  0  0  0  0  0  0  0  0  0
   39.0210   10.6047   15.3947 C   0  0  2  0  0  0  0  0  0  0  0  0
   38.8653   10.8548   16.8994 C   0  0  1  0  0  0  0  0  0  0  0  0
   38.7362    9.5072   17.6544 C   0  0  0  0  0  0  0  0  0  0  0  0
   37.5115    8.7566   17.1210 C   0  0  2  0  0  0  0  0  0  0  0  0
   40.0428   11.5942   17.4064 N   0  0  0  0  0  0  0  0  0  0  0  0
   37.4143    7.5049   17.8672 N   0  0  0  0  0  0  0  0  0  0  0  0
   37.9912    9.5698   13.4506 O   0  0  0  0  0  0  0  0  0  0  0  0
   39.1119   11.8630   14.6924 O   0  0  0  0  0  0  0  0  0  0  0  0
  1  2  1  0  0  0  0
  1 12  1  6  0  0  0
  1 13  1  0  0  0  0
  2  3  1  0  0  0  0
  2 10  1  6  0  0  0
  4  3  1  6  0  0  0
  4  5  1  0  0  0  0
  4 14  1  0  0  0  0
  5  6  1  0  0  0  0
  5 13  1  1  0  0  0
  6  7  1  0  0  0  0
  6 15  1  6  0  0  0
  7  8  1  0  0  0  0
  7 11  1  1  0  0  0
  8 14  1  0  0  0  0
  8 16  1  6  0  0  0
  9 11  1  0  0  0  0
 17 16  1  1  0  0  0
 17 18  1  0  0  0  0
 17 24  1  0  0  0  0
 18 19  1  0  0  0  0
 18 25  1  1  0  0  0
 19 20  1  0  0  0  0
 19 26  1  6  0  0  0
 20 21  1  0  0  0  0
 20 23  1  1  0  0  0
 21 22  1  6  0  0  0
 21 24  1  0  0  0  0
 22 27  1  0  0  0  0
 28 12  1  6  0  0  0
 28 29  1  0  0  0  0
 28 33  1  0  0  0  0
 29 30  1  0  0  0  0
 29 36  1  6  0  0  0
 30 31  1  0  0  0  0
 30 37  1  6  0  0  0
 31 32  1  0  0  0  0
 31 34  1  1  0  0  0
 32 33  1  0  0  0  0
 33 35  1  1  0  0  0
M  END
>  <CHROM.1>
-169.54186556,144.30087584,176.30861282,170.87574220,-69.05635341,178.42740170
33.09232990,7.67212250,17.31036447,-0.00933977,-0.40566204,-2.41806855

>  <Name>
1yrj_lig

>  <RI>
0

>  <Rbt.Current_Directory>
/home/itssahil/PROJECTS/Mol_Feturizer/New_Systems/rnas/1yrj

>  <Rbt.Executable>
rbdock ($Id: //depot/dev/client3/rdock/2013.1/src/exe/rbdock.cxx#4 $)

>  <Rbt.Library>
libRbt.so (2013.1, Build901 2013/11/27)

>  <Rbt.Parameter_File>
/export/apps/rDock/src/rDock_2013.1_src/data/scripts/dock_solv.prm

>  <Rbt.Receptor>
prm/blind_docking_100.prm

>  <SCORE>
-10.9451

>  <SCORE.INTER>
-6.33628

>  <SCORE.INTER.CONST>
1

>  <SCORE.INTER.POLAR>
-1.23062

>  <SCORE.INTER.ROT>
6

>  <SCORE.INTER.SOLV>
18.556

>  <SCORE.INTER.VDW>
-13.9074

>  <SCORE.INTER.norm>
-0.171251

>  <SCORE.INTRA>
-4.61939

>  <SCORE.INTRA.DIHEDRAL>
-13.4637

>  <SCORE.INTRA.DIHEDRAL.0>
15.6389

>  <SCORE.INTRA.POLAR>
0

>  <SCORE.INTRA.POLAR.0>
0

>  <SCORE.INTRA.REPUL>
0

>  <SCORE.INTRA.REPUL.0>
0

>  <SCORE.INTRA.SOLV>
1.21693

>  <SCORE.INTRA.SOLV.lig_0>
-90.9181

>  <SCORE.INTRA.VDW>
1.504

>  <SCORE.INTRA.VDW.0>
-3.14158

>  <SCORE.INTRA.norm>
-0.124848

>  <SCORE.RESTR>
0.0106209

>  <SCORE.RESTR.CAVITY>
0.0106209

>  <SCORE.RESTR.norm>
0.000287052

>  <SCORE.SYSTEM>
0

>  <SCORE.SYSTEM.CONST>
0

>  <SCORE.SYSTEM.DIHEDRAL>
0

>  <SCORE.SYSTEM.SOLV>
0

>  <SCORE.SYSTEM.norm>
0

>  <SCORE.heavy>
37

>  <SCORE.norm>
-0.295812

>  <RMSD>
14.312

$$$$
1yrj_lig
 OpenBabel11021811423D
libRbt.so/2013.1/901 2013/11/27
 37 40  0  0  0  0  0  0  0  0999 V2000
   34.5896    5.4909   16.8025 C   0  0  1  0  0  0  0  0  0  0  0  0
   33.5903    4.9391   17.8381 C   0  0  1  0  0  0  0  0  0  0  0  0
   32.2503    5.6908   17.7960 C   0  0  0  0  0  0  0  0  0  0  0  0
   32.4883    7.2127   17.9775 C   0  0  1  0  0  0  0  0  0  0  0  0
   33.4516    7.7292   16.8921 C   0  0  1  0  0  0  0  0  0  0  0  0
   33.6673    9.2885   17.0925 C   0  0  1  0  0  0  0  0  0  0  0  0
   32.3161   10.0150   16.9939 C   0  0  1  0  0  0  0  0  0  0  0  0
   31.3718    9.4265   18.0702 C   0  0  2  0  0  0  0  0  0  0  0  0
   31.4625   12.3767   16.5460 C   0  0  0  0  0  0  0  0  0  0  0  0
   33.3684    3.4934   17.6718 N   0  0  0  0  0  0  0  0  0  0  0  0
   32.5170   11.4909   17.1314 N   0  0  0  0  0  0  0  0  0  0  0  0
   34.2820    5.1163   15.4467 O   0  0  0  0  0  0  0  0  0  0  0  0
   34.7048    6.9522   16.9760 O   0  0  0  0  0  0  0  0  0  0  0  0
   31.2284    7.9873   17.9055 O   0  0  0  0  0  0  0  0  0  0  0  0
   34.1804    9.5289   18.3861 O   0  0  0  0  0  0  0  0  0  0  0  0
   30.0673   10.0044   18.0080 O   0  0  0  0  0  0  0  0  0  0  0  0
   29.3467    9.9241   19.2602 C   0  0  2  0  0  0  0  0  0  0  0  0
   30.2637    9.7371   20.4798 C   0  0  1  0  0  0  0  0  0  0  0  0
   30.9199    8.3308   20.4764 C   0  0  2  0  0  0  0  0  0  0  0  0
   29.8496    7.2637   20.4495 C   0  0  1  0  0  0  0  0  0  0  0  0
   28.9631    7.4609   19.1971 C   0  0  1  0  0  0  0  0  0  0  0  0
   27.8208    6.4509   19.1149 C   0  0  0  0  0  0  0  0  0  0  0  0
   30.5041    5.9390   20.4421 N   0  0  0  0  0  0  0  0  0  0  0  0
   28.3706    8.8103   19.2195 O   0  0  0  0  0  0  0  0  0  0  0  0
   31.2381   10.7905   20.4785 O   0  0  0  0  0  0  0  0  0  0  0  0
   31.7073    8.1628   21.6634 O   0  0  0  0  0  0  0  0  0  0  0  0
   27.0557    6.7040   17.9667 O   0  0  0  0  0  0  0  0  0  0  0  0
   34.7478    5.8937   14.2248 C   0  0  1  0  0  0  0  0  0  0  0  0
   34.0155    7.2537   14.2443 C   0  0  1  0  0  0  0  0  0  0  0  0
   34.4736    8.1527   13.0704 C   0  0  2  0  0  0  0  0  0  0  0  0
   35.9876    8.3827   13.1468 C   0  0  1  0  0  0  0  0  0  0  0  0
   36.7374    7.0272   13.0910 C   0  0  0  0  0  0  0  0  0  0  0  0
   36.2815    6.1607   14.2696 C   0  0  2  0  0  0  0  0  0  0  0  0
   36.4203    9.2335   12.0157 N   0  0  0  0  0  0  0  0  0  0  0  0
   37.0212    4.9038   14.1922 N   0  0  0  0  0  0  0  0  0  0  0  0
   32.5944    7.0257   14.1238 O   0  0  0  0  0  0  0  0  0  0  0  0
   33.7782    9.4154   13.1517 O   0  0  0  0  0  0  0  0  0  0  0  0
  1  2  1  0  0  0  0
  1 12  1  6  0  0  0
  1 13  1  0  0  0  0
  2  3  1  0  0  0  0
  2 10  1  6  0  0  0
  4  3  1  6  0  0  0
  4  5  1  0  0  0  0
  4 14  1  0  0  0  0
  5  6  1  0  0  0  0
  5 13  1  1  0  0  0
  6  7  1  0  0  0  0
  6 15  1  1  0  0  0
  7  8  1  0  0  0  0
  7 11  1  1  0  0  0
  8 14  1  0  0  0  0
  8 16  1  6  0  0  0
  9 11  1  0  0  0  0
 17 16  1  6  0  0  0
 17 18  1  0  0  0  0
 17 24  1  0  0  0  0
 18 19  1  0  0  0  0
 18 25  1  6  0  0  0
 19 20  1  0  0  0  0
 19 26  1  1  0  0  0
 20 21  1  0  0  0  0
 20 23  1  6  0  0  0
 21 22  1  1  0  0  0
 21 24  1  0  0  0  0
 22 27  1  0  0  0  0
 28 12  1  1  0  0  0
 28 29  1  0  0  0  0
 28 33  1  0  0  0  0
 29 30  1  0  0  0  0
 29 36  1  6  0  0  0
 30 31  1  0  0  0  0
 30 37  1  1  0  0  0
 31 32  1  0  0  0  0
 31 34  1  6  0  0  0
 32 33  1  0  0  0  0
 33 35  1  6  0  0  0
M  END
>  <CHROM.1>
156.53895345,156.66885635,-156.08769007,21.47112548,179.25887728,-67.45336529
32.48948855,7.85768626,17.09542804,0.00711694,-0.79528383,2.90125762

>  <Name>
1yrj_lig

>  <RI>
0

>  <Rbt.Current_Directory>
/home/itssahil/PROJECTS/Mol_Feturizer/New_Systems/rnas/1yrj

>  <Rbt.Executable>
rbdock ($Id: //depot/dev/client3/rdock/2013.1/src/exe/rbdock.cxx#4 $)

>  <Rbt.Library>
libRbt.so (2013.1, Build901 2013/11/27)

>  <Rbt.Parameter_File>
/export/apps/rDock/src/rDock_2013.1_src/data/scripts/dock_solv.prm

>  <Rbt.Receptor>
prm/blind_docking_40.prm

>  <SCORE>
23.6528

>  <SCORE.INTER>
15.1639

>  <SCORE.INTER.CONST>
1

>  <SCORE.INTER.POLAR>
-1.27284

>  <SCORE.INTER.ROT>
6

>  <SCORE.INTER.SOLV>
19.6238

>  <SCORE.INTER.VDW>
0.210782

>  <SCORE.INTER.norm>
0.409835

>  <SCORE.INTRA>
4.81356

>  <SCORE.INTRA.DIHEDRAL>
-4.92202

>  <SCORE.INTRA.DIHEDRAL.0>
15.6389

>  <SCORE.INTRA.POLAR>
0

>  <SCORE.INTRA.POLAR.0>
0

>  <SCORE.INTRA.REPUL>
0

>  <SCORE.INTRA.REPUL.0>
0

>  <SCORE.INTRA.SOLV>
3.13731

>  <SCORE.INTRA.SOLV.lig_0>
-90.9181

>  <SCORE.INTRA.VDW>
5.70591

>  <SCORE.INTRA.VDW.0>
-3.14158

>  <SCORE.INTRA.norm>
0.130096

>  <SCORE.RESTR>
3.67533

>  <SCORE.RESTR.CAVITY>
3.67533

>  <SCORE.RESTR.norm>
0.0993331

>  <SCORE.SYSTEM>
0

>  <SCORE.SYSTEM.CONST>
0

>  <SCORE.SYSTEM.DIHEDRAL>
0

>  <SCORE.SYSTEM.SOLV>
0

>  <SCORE.SYSTEM.norm>
0

>  <SCORE.heavy>
37

>  <SCORE.norm>
0.639265

>  <RMSD>
14.317

$$$$
1yrj_lig
 OpenBabel11021811423D
libRbt.so/2013.1/901 2013/11/27
 37 40  0  0  0  0  0  0  0  0999 V2000
   36.3981    4.6831   18.0979 C   0  0  1  0  0  0  0  0  0  0  0  0
   35.4898    3.5666   18.6492 C   0  0  1  0  0  0  0  0  0  0  0  0
   34.0077    3.9731   18.6280 C   0  0  0  0  0  0  0  0  0  0  0  0
   33.8112    5.3077   19.3934 C   0  0  1  0  0  0  0  0  0  0  0  0
   34.6992    6.4052   18.7770 C   0  0  1  0  0  0  0  0  0  0  0  0
   34.4696    7.7610   19.5690 C   0  0  1  0  0  0  0  0  0  0  0  0
   32.9888    8.1653   19.4850 C   0  0  1  0  0  0  0  0  0  0  0  0
   32.1392    7.0113   20.0705 C   0  0  2  0  0  0  0  0  0  0  0  0
   31.9944   10.5140   19.4518 C   0  0  0  0  0  0  0  0  0  0  0  0
   35.6798    2.2973   17.9283 N   0  0  0  0  0  0  0  0  0  0  0  0
   32.7733    9.4687   20.1865 N   0  0  0  0  0  0  0  0  0  0  0  0
   36.3317    4.8277   16.6669 O   0  0  0  0  0  0  0  0  0  0  0  0
   36.1009    5.9411   18.8104 O   0  0  0  0  0  0  0  0  0  0  0  0
   32.4026    5.7634   19.3686 O   0  0  0  0  0  0  0  0  0  0  0  0
   34.7749    7.5646   20.9339 O   0  0  0  0  0  0  0  0  0  0  0  0
   30.7395    7.2783   19.9745 O   0  0  0  0  0  0  0  0  0  0  0  0
   30.2129    7.0932   18.6396 C   0  0  2  0  0  0  0  0  0  0  0  0
   28.9743    7.9562   18.3483 C   0  0  1  0  0  0  0  0  0  0  0  0
   27.7500    7.4740   19.1710 C   0  0  2  0  0  0  0  0  0  0  0  0
   27.4665    6.0206   18.8678 C   0  0  1  0  0  0  0  0  0  0  0  0
   28.7196    5.1758   19.1986 C   0  0  1  0  0  0  0  0  0  0  0  0
   28.5376    3.6945   18.8754 C   0  0  0  0  0  0  0  0  0  0  0  0
   26.3011    5.5902   19.6678 N   0  0  0  0  0  0  0  0  0  0  0  0
   29.8678    5.6697   18.4174 O   0  0  0  0  0  0  0  0  0  0  0  0
   29.3043    9.3262   18.6188 O   0  0  0  0  0  0  0  0  0  0  0  0
   26.5966    8.2507   18.8200 O   0  0  0  0  0  0  0  0  0  0  0  0
   27.4916    3.1728   19.6509 O   0  0  0  0  0  0  0  0  0  0  0  0
   36.0785    6.1498   15.9582 C   0  0  1  0  0  0  0  0  0  0  0  0
   37.4340    6.8851   15.8686 C   0  0  1  0  0  0  0  0  0  0  0  0
   37.2960    8.2212   15.0993 C   0  0  2  0  0  0  0  0  0  0  0  0
   36.7587    7.9594   13.6873 C   0  0  1  0  0  0  0  0  0  0  0  0
   35.3803    7.2544   13.7623 C   0  0  0  0  0  0  0  0  0  0  0  0
   35.5431    5.9283   14.5125 C   0  0  2  0  0  0  0  0  0  0  0  0
   36.6188    9.2416   12.9614 N   0  0  0  0  0  0  0  0  0  0  0  0
   34.2308    5.2882   14.5463 N   0  0  0  0  0  0  0  0  0  0  0  0
   37.9060    7.1679   17.2039 O   0  0  0  0  0  0  0  0  0  0  0  0
   38.5927    8.8518   15.0244 O   0  0  0  0  0  0  0  0  0  0  0  0
  1  2  1  0  0  0  0
  1 12  1  6  0  0  0
  1 13  1  0  0  0  0
  2  3  1  0  0  0  0
  2 10  1  6  0  0  0
  4  3  1  6  0  0  0
  4  5  1  0  0  0  0
  4 14  1  0  0  0  0
  5  6  1  0  0  0  0
  5 13  1  1  0  0  0
  6  7  1  0  0  0  0
  6 15  1  1  0  0  0
  7  8  1  0  0  0  0
  7 11  1  1  0  0  0
  8 14  1  0  0  0  0
  8 16  1  6  0  0  0
  9 11  1  0  0  0  0
 17 16  1  1  0  0  0
 17 18  1  0  0  0  0
 17 24  1  0  0  0  0
 18 19  1  0  0  0  0
 18 25  1  1  0  0  0
 19 20  1  0  0  0  0
 19 26  1  6  0  0  0
 20 21  1  0  0  0  0
 20 23  1  1  0  0  0
 21 22  1  6  0  0  0
 21 24  1  0  0  0  0
 22 27  1  0  0  0  0
 28 12  1  6  0  0  0
 28 29  1  0  0  0  0
 28 33  1  0  0  0  0
 29 30  1  0  0  0  0
 29 36  1  1  0  0  0
 30 31  1  0  0  0  0
 30 37  1  6  0  0  0
 31 32  1  0  0  0  0
 31 34  1  1  0  0  0
 32 33  1  0  0  0  0
 33 35  1  1  0  0  0
M  END
>  <CHROM.1>
128.60493057,131.66513644,76.35522456,-152.87972593,-61.72367912,82.79626521
33.00017043,6.57820346,17.94546776,-0.15145548,-0.36686756,2.87115544

>  <Name>
1yrj_lig

>  <RI>
0

>  <Rbt.Current_Directory>
/home/itssahil/PROJECTS/Mol_Feturizer/New_Systems/rnas/1yrj

>  <Rbt.Executable>
rbdock ($Id: //depot/dev/client3/rdock/2013.1/src/exe/rbdock.cxx#4 $)

>  <Rbt.Library>
libRbt.so (2013.1, Build901 2013/11/27)

>  <Rbt.Parameter_File>
/export/apps/rDock/src/rDock_2013.1_src/data/scripts/dock_solv.prm

>  <Rbt.Receptor>
prm/blind_docking_100.prm

>  <SCORE>
-9.96899

>  <SCORE.INTER>
-9.79221

>  <SCORE.INTER.CONST>
1

>  <SCORE.INTER.POLAR>
-1.30817

>  <SCORE.INTER.ROT>
6

>  <SCORE.INTER.SOLV>
19.3754

>  <SCORE.INTER.VDW>
-16.2261

>  <SCORE.INTER.norm>
-0.264654

>  <SCORE.INTRA>
-0.232845

>  <SCORE.INTRA.DIHEDRAL>
-1.16625

>  <SCORE.INTRA.DIHEDRAL.0>
15.6389

>  <SCORE.INTRA.POLAR>
0

>  <SCORE.INTRA.POLAR.0>
0

>  <SCORE.INTRA.REPUL>
0

>  <SCORE.INTRA.REPUL.0>
0

>  <SCORE.INTRA.SOLV>
-0.151994

>  <SCORE.INTRA.SOLV.lig_0>
-90.9181

>  <SCORE.INTRA.VDW>
0.426277

>  <SCORE.INTRA.VDW.0>
-3.14158

>  <SCORE.INTRA.norm>
-0.00629311

>  <SCORE.RESTR>
0.0560662

>  <SCORE.RESTR.CAVITY>
0.0560662

>  <SCORE.RESTR.norm>
0.0015153

>  <SCORE.SYSTEM>
0

>  <SCORE.SYSTEM.CONST>
0

>  <SCORE.SYSTEM.DIHEDRAL>
0

>  <SCORE.SYSTEM.SOLV>
0

>  <SCORE.SYSTEM.norm>
0

>  <SCORE.heavy>
37

>  <SCORE.norm>
-0.269432

>  <RMSD>
14.323

$$$$
1yrj_lig
 OpenBabel11021811423D
libRbt.so/2013.1/901 2013/11/27
 37 40  0  0  0  0  0  0  0  0999 V2000
   30.7128    8.3100   20.3436 C   0  0  1  0  0  0  0  0  0  0  0  0
   31.2268    9.5786   19.6350 C   0  0  1  0  0  0  0  0  0  0  0  0
   31.2988    9.3923   18.1110 C   0  0  0  0  0  0  0  0  0  0  0  0
   32.1610    8.1497   17.7673 C   0  0  1  0  0  0  0  0  0  0  0  0
   31.5818    6.8989   18.4551 C   0  0  1  0  0  0  0  0  0  0  0  0
   32.4734    5.6419   18.0770 C   0  0  1  0  0  0  0  0  0  0  0  0
   32.4827    5.4537   16.5512 C   0  0  1  0  0  0  0  0  0  0  0  0
   33.0255    6.7529   15.9078 C   0  0  2  0  0  0  0  0  0  0  0  0
   32.5317    2.9517   16.0574 C   0  0  0  0  0  0  0  0  0  0  0  0
   30.4137   10.7604   19.9654 N   0  0  0  0  0  0  0  0  0  0  0  0
   33.2799    4.2408   16.1897 N   0  0  0  0  0  0  0  0  0  0  0  0
   29.2993    8.0900   20.1806 O   0  0  0  0  0  0  0  0  0  0  0  0
   31.5216    7.1545   19.9084 O   0  0  0  0  0  0  0  0  0  0  0  0
   32.2296    7.9039   16.3087 O   0  0  0  0  0  0  0  0  0  0  0  0
   33.8070    5.8741   18.4800 O   0  0  0  0  0  0  0  0  0  0  0  0
   33.0099    6.6877   14.4812 O   0  0  0  0  0  0  0  0  0  0  0  0
   34.0042    7.5355   13.8597 C   0  0  2  0  0  0  0  0  0  0  0  0
   35.3998    6.8936   13.7988 C   0  0  1  0  0  0  0  0  0  0  0  0
   36.0224    6.7721   15.2151 C   0  0  2  0  0  0  0  0  0  0  0  0
   36.0939    8.1353   15.8643 C   0  0  1  0  0  0  0  0  0  0  0  0
   34.6723    8.7413   15.9377 C   0  0  1  0  0  0  0  0  0  0  0  0
   34.6572   10.1450   16.5386 C   0  0  0  0  0  0  0  0  0  0  0  0
   36.6853    7.9866   17.2102 N   0  0  0  0  0  0  0  0  0  0  0  0
   34.1014    8.8256   14.5815 O   0  0  0  0  0  0  0  0  0  0  0  0
   35.2839    5.6210   13.1461 O   0  0  0  0  0  0  0  0  0  0  0  0
   37.3506    6.2403   15.1144 O   0  0  0  0  0  0  0  0  0  0  0  0
   33.3590   10.6713   16.4624 O   0  0  0  0  0  0  0  0  0  0  0  0
   28.7023    7.1135   19.1784 C   0  0  1  0  0  0  0  0  0  0  0  0
   28.3375    5.8296   19.9558 C   0  0  1  0  0  0  0  0  0  0  0  0
   27.6564    4.7907   19.0323 C   0  0  2  0  0  0  0  0  0  0  0  0
   26.3905    5.3927   18.4109 C   0  0  1  0  0  0  0  0  0  0  0  0
   26.7471    6.6624   17.5963 C   0  0  0  0  0  0  0  0  0  0  0  0
   27.4044    7.6822   18.5322 C   0  0  2  0  0  0  0  0  0  0  0  0
   25.7507    4.3983   17.5207 N   0  0  0  0  0  0  0  0  0  0  0  0
   27.7080    8.8669   17.7339 N   0  0  0  0  0  0  0  0  0  0  0  0
   29.5436    5.2467   20.4957 O   0  0  0  0  0  0  0  0  0  0  0  0
   27.3160    3.6252   19.8135 O   0  0  0  0  0  0  0  0  0  0  0  0
  1  2  1  0  0  0  0
  1 12  1  6  0  0  0
  1 13  1  0  0  0  0
  2  3  1  0  0  0  0
  2 10  1  6  0  0  0
  4  3  1  6  0  0  0
  4  5  1  0  0  0  0
  4 14  1  0  0  0  0
  5  6  1  0  0  0  0
  5 13  1  1  0  0  0
  6  7  1  0  0  0  0
  6 15  1  6  0  0  0
  7  8  1  0  0  0  0
  7 11  1  1  0  0  0
  8 14  1  0  0  0  0
  8 16  1  6  0  0  0
  9 11  1  0  0  0  0
 17 16  1  1  0  0  0
 17 18  1  0  0  0  0
 17 24  1  0  0  0  0
 18 19  1  0  0  0  0
 18 25  1  1  0  0  0
 19 20  1  0  0  0  0
 19 26  1  6  0  0  0
 20 21  1  0  0  0  0
 20 23  1  1  0  0  0
 21 22  1  6  0  0  0
 21 24  1  0  0  0  0
 22 27  1  0  0  0  0
 28 12  1  1  0  0  0
 28 29  1  0  0  0  0
 28 33  1  0  0  0  0
 29 30  1  0  0  0  0
 29 36  1  6  0  0  0
 30 31  1  0  0  0  0
 30 37  1  1  0  0  0
 31 32  1  0  0  0  0
 31 34  1  6  0  0  0
 32 33  1  0  0  0  0
 33 35  1  6  0  0  0
M  END
>  <CHROM.1>
100.03580407,92.39301402,-153.65933574,82.66316579,174.79622423,99.98364104
31.76927554,7.04083045,17.34987642,-3.07887556,-0.50500398,-2.73794346

>  <Name>
1yrj_lig

>  <RI>
0

>  <Rbt.Current_Directory>
/home/itssahil/PROJECTS/Mol_Feturizer/New_Systems/rnas/1yrj

>  <Rbt.Executable>
rbdock ($Id: //depot/dev/client3/rdock/2013.1/src/exe/rbdock.cxx#4 $)

>  <Rbt.Library>
libRbt.so (2013.1, Build901 2013/11/27)

>  <Rbt.Parameter_File>
/export/apps/rDock/src/rDock_2013.1_src/data/scripts/dock_solv.prm

>  <Rbt.Receptor>
prm/blind_docking_40.prm

>  <SCORE>
-2.05603

>  <SCORE.INTER>
-12.5103

>  <SCORE.INTER.CONST>
1

>  <SCORE.INTER.POLAR>
-1.67343

>  <SCORE.INTER.ROT>
6

>  <SCORE.INTER.SOLV>
13.7821

>  <SCORE.INTER.VDW>
-14.9562

>  <SCORE.INTER.norm>
-0.338116

>  <SCORE.INTRA>
5.505

>  <SCORE.INTRA.DIHEDRAL>
1.07329

>  <SCORE.INTRA.DIHEDRAL.0>
15.6389

>  <SCORE.INTRA.POLAR>
0

>  <SCORE.INTRA.POLAR.0>
0

>  <SCORE.INTRA.REPUL>
0

>  <SCORE.INTRA.REPUL.0>
0

>  <SCORE.INTRA.SOLV>
2.64916

>  <SCORE.INTRA.SOLV.lig_0>
-90.9181

>  <SCORE.INTRA.VDW>
3.64377

>  <SCORE.INTRA.VDW.0>
-3.14158

>  <SCORE.INTRA.norm>
0.148784

>  <SCORE.RESTR>
4.94927

>  <SCORE.RESTR.CAVITY>
4.94927

>  <SCORE.RESTR.norm>
0.133764

>  <SCORE.SYSTEM>
0

>  <SCORE.SYSTEM.CONST>
0

>  <SCORE.SYSTEM.DIHEDRAL>
0

>  <SCORE.SYSTEM.SOLV>
0

>  <SCORE.SYSTEM.norm>
0

>  <SCORE.heavy>
37

>  <SCORE.norm>
-0.0555683

>  <RMSD>
14.324

$$$$
1yrj_lig
 OpenBabel11021811423D
libRbt.so/2013.1/901 2013/11/27
 37 40  0  0  0  0  0  0  0  0999 V2000
   30.6860    8.2887   20.3468 C   0  0  1  0  0  0  0  0  0  0  0  0
   31.2097    9.5606   19.6515 C   0  0  1  0  0  0  0  0  0  0  0  0
   31.2915    9.3857   18.1266 C   0  0  0  0  0  0  0  0  0  0  0  0
   32.1512    8.1423   17.7793 C   0  0  1  0  0  0  0  0  0  0  0  0
   31.5624    6.8886   18.4535 C   0  0  1  0  0  0  0  0  0  0  0  0
   32.4517    5.6310   18.0719 C   0  0  1  0  0  0  0  0  0  0  0  0
   32.4707    5.4545   16.5449 C   0  0  1  0  0  0  0  0  0  0  0  0
   33.0230    6.7563   15.9151 C   0  0  2  0  0  0  0  0  0  0  0  0
   32.5192    2.9491   16.0681 C   0  0  0  0  0  0  0  0  0  0  0  0
   30.3990   10.7431   19.9854 N   0  0  0  0  0  0  0  0  0  0  0  0
   33.2656    4.2412   16.1795 N   0  0  0  0  0  0  0  0  0  0  0  0
   29.2727    8.0756   20.1725 O   0  0  0  0  0  0  0  0  0  0  0  0
   31.4932    7.1334   19.9083 O   0  0  0  0  0  0  0  0  0  0  0  0
   32.2288    7.9073   16.3194 O   0  0  0  0  0  0  0  0  0  0  0  0
   33.7833    5.8548   18.4858 O   0  0  0  0  0  0  0  0  0  0  0  0
   33.0170    6.7021   14.4881 O   0  0  0  0  0  0  0  0  0  0  0  0
   34.0047    7.5666   13.8793 C   0  0  2  0  0  0  0  0  0  0  0  0
   35.3990    6.9259   13.7841 C   0  0  1  0  0  0  0  0  0  0  0  0
   36.0378    6.7640   15.1891 C   0  0  2  0  0  0  0  0  0  0  0  0
   36.1180    8.1082   15.8758 C   0  0  1  0  0  0  0  0  0  0  0  0
   34.6979    8.7127   15.9827 C   0  0  1  0  0  0  0  0  0  0  0  0
   34.6909   10.0989   16.6233 C   0  0  0  0  0  0  0  0  0  0  0  0
   36.7248    7.9212   17.2100 N   0  0  0  0  0  0  0  0  0  0  0  0
   34.1114    8.8357   14.6361 O   0  0  0  0  0  0  0  0  0  0  0  0
   35.2745    5.6724   13.0970 O   0  0  0  0  0  0  0  0  0  0  0  0
   37.3643    6.2346   15.0581 O   0  0  0  0  0  0  0  0  0  0  0  0
   33.4005   10.6432   16.5437 O   0  0  0  0  0  0  0  0  0  0  0  0
   28.6792    7.0970   19.1702 C   0  0  1  0  0  0  0  0  0  0  0  0
   28.3065    5.8168   19.9500 C   0  0  1  0  0  0  0  0  0  0  0  0
   27.6283    4.7763   19.0261 C   0  0  2  0  0  0  0  0  0  0  0  0
   26.3677    5.3794   18.3949 C   0  0  1  0  0  0  0  0  0  0  0  0
   26.7325    6.6452   17.5780 C   0  0  0  0  0  0  0  0  0  0  0  0
   27.3867    7.6667   18.5141 C   0  0  2  0  0  0  0  0  0  0  0  0
   25.7307    4.3834   17.5045 N   0  0  0  0  0  0  0  0  0  0  0  0
   27.6982    8.8477   17.7134 N   0  0  0  0  0  0  0  0  0  0  0  0
   29.5078    5.2327   20.4992 O   0  0  0  0  0  0  0  0  0  0  0  0
   27.2801    3.6145   19.8094 O   0  0  0  0  0  0  0  0  0  0  0  0
  1  2  1  0  0  0  0
  1 12  1  6  0  0  0
  1 13  1  0  0  0  0
  2  3  1  0  0  0  0
  2 10  1  6  0  0  0
  4  3  1  6  0  0  0
  4  5  1  0  0  0  0
  4 14  1  0  0  0  0
  5  6  1  0  0  0  0
  5 13  1  1  0  0  0
  6  7  1  0  0  0  0
  6 15  1  6  0  0  0
  7  8  1  0  0  0  0
  7 11  1  1  0  0  0
  8 14  1  0  0  0  0
  8 16  1  6  0  0  0
  9 11  1  0  0  0  0
 17 16  1  1  0  0  0
 17 18  1  0  0  0  0
 17 24  1  0  0  0  0
 18 19  1  0  0  0  0
 18 25  1  1  0  0  0
 19 20  1  0  0  0  0
 19 26  1  6  0  0  0
 20 21  1  0  0  0  0
 20 23  1  1  0  0  0
 21 22  1  6  0  0  0
 21 24  1  0  0  0  0
 22 27  1  0  0  0  0
 28 12  1  1  0  0  0
 28 29  1  0  0  0  0
 28 33  1  0  0  0  0
 29 30  1  0  0  0  0
 29 36  1  6  0  0  0
 30 31  1  0  0  0  0
 30 37  1  1  0  0  0
 31 32  1  0  0  0  0
 31 34  1  6  0  0  0
 32 33  1  0  0  0  0
 33 35  1  6  0  0  0
M  END
>  <CHROM.1>
100.79312830,90.80160338,-154.57553563,84.38223428,173.16847038,99.73143174
31.76187934,7.03135133,17.35320824,-3.07487471,-0.50155082,-2.72492804

>  <Name>
1yrj_lig

>  <RI>
0

>  <Rbt.Current_Directory>
/home/itssahil/PROJECTS/Mol_Feturizer/New_Systems/rnas/1yrj

>  <Rbt.Executable>
rbdock ($Id: //depot/dev/client3/rdock/2013.1/src/exe/rbdock.cxx#4 $)

>  <Rbt.Library>
libRbt.so (2013.1, Build901 2013/11/27)

>  <Rbt.Parameter_File>
/export/apps/rDock/src/rDock_2013.1_src/data/scripts/dock_solv.prm

>  <Rbt.Receptor>
prm/blind_docking_40.prm

>  <SCORE>
-2.29092

>  <SCORE.INTER>
-13.0068

>  <SCORE.INTER.CONST>
1

>  <SCORE.INTER.POLAR>
-1.7598

>  <SCORE.INTER.ROT>
6

>  <SCORE.INTER.SOLV>
13.8431

>  <SCORE.INTER.VDW>
-15.0195

>  <SCORE.INTER.norm>
-0.351534

>  <SCORE.INTRA>
5.73906

>  <SCORE.INTRA.DIHEDRAL>
1.30709

>  <SCORE.INTRA.DIHEDRAL.0>
15.6389

>  <SCORE.INTRA.POLAR>
0

>  <SCORE.INTRA.POLAR.0>
0

>  <SCORE.INTRA.REPUL>
0

>  <SCORE.INTRA.REPUL.0>
0

>  <SCORE.INTRA.SOLV>
2.50837

>  <SCORE.INTRA.SOLV.lig_0>
-90.9181

>  <SCORE.INTRA.VDW>
3.83132

>  <SCORE.INTRA.VDW.0>
-3.14158

>  <SCORE.INTRA.norm>
0.15511

>  <SCORE.RESTR>
4.97678

>  <SCORE.RESTR.CAVITY>
4.97678

>  <SCORE.RESTR.norm>
0.134508

>  <SCORE.SYSTEM>
0

>  <SCORE.SYSTEM.CONST>
0

>  <SCORE.SYSTEM.DIHEDRAL>
0

>  <SCORE.SYSTEM.SOLV>
0

>  <SCORE.SYSTEM.norm>
0

>  <SCORE.heavy>
37

>  <SCORE.norm>
-0.0619168

>  <RMSD>
14.326

$$$$
1yrj_lig
 OpenBabel11021811423D
libRbt.so/2013.1/901 2013/11/27
 37 40  0  0  0  0  0  0  0  0999 V2000
   32.6142    7.0385   20.9677 C   0  0  1  0  0  0  0  0  0  0  0  0
   33.7697    7.8376   21.6017 C   0  0  1  0  0  0  0  0  0  0  0  0
   34.5811    8.6045   20.5453 C   0  0  0  0  0  0  0  0  0  0  0  0
   35.0866    7.6283   19.4512 C   0  0  1  0  0  0  0  0  0  0  0  0
   33.8954    6.8901   18.8114 C   0  0  1  0  0  0  0  0  0  0  0  0
   34.4383    5.9092   17.6884 C   0  0  1  0  0  0  0  0  0  0  0  0
   35.2002    6.7136   16.6226 C   0  0  1  0  0  0  0  0  0  0  0  0
   36.3530    7.4729   17.3232 C   0  0  2  0  0  0  0  0  0  0  0  0
   35.1185    6.0390   14.1640 C   0  0  0  0  0  0  0  0  0  0  0  0
   33.2926    8.7597   22.6453 N   0  0  0  0  0  0  0  0  0  0  0  0
   35.6721    5.8027   15.5340 N   0  0  0  0  0  0  0  0  0  0  0  0
   31.5116    7.8593   20.5390 O   0  0  0  0  0  0  0  0  0  0  0  0
   33.1511    6.1956   19.8815 O   0  0  0  0  0  0  0  0  0  0  0  0
   35.8432    8.3262   18.3867 O   0  0  0  0  0  0  0  0  0  0  0  0
   35.3535    4.9995   18.2623 O   0  0  0  0  0  0  0  0  0  0  0  0
   37.0784    8.2989   16.4116 O   0  0  0  0  0  0  0  0  0  0  0  0
   36.2774    9.3603   15.8410 C   0  0  2  0  0  0  0  0  0  0  0  0
   36.7346    9.7794   14.4343 C   0  0  1  0  0  0  0  0  0  0  0  0
   38.1084   10.4994   14.4834 C   0  0  2  0  0  0  0  0  0  0  0  0
   38.0263   11.7028   15.3944 C   0  0  1  0  0  0  0  0  0  0  0  0
   37.5934   11.2452   16.8074 C   0  0  1  0  0  0  0  0  0  0  0  0
   37.4375   12.4081   17.7848 C   0  0  0  0  0  0  0  0  0  0  0  0
   39.3478   12.3632   15.4242 N   0  0  0  0  0  0  0  0  0  0  0  0
   36.2968   10.5491   16.7249 O   0  0  0  0  0  0  0  0  0  0  0  0
   36.7637    8.6110   13.6017 O   0  0  0  0  0  0  0  0  0  0  0  0
   38.4685   10.9422   13.1676 O   0  0  0  0  0  0  0  0  0  0  0  0
   38.6879   13.0059   18.0020 O   0  0  0  0  0  0  0  0  0  0  0  0
   30.4112    7.3813   19.6035 C   0  0  1  0  0  0  0  0  0  0  0  0
   29.5636    6.3536   20.3855 C   0  0  1  0  0  0  0  0  0  0  0  0
   28.3688    5.8531   19.5380 C   0  0  2  0  0  0  0  0  0  0  0  0
   27.4877    7.0377   19.1241 C   0  0  1  0  0  0  0  0  0  0  0  0
   28.3171    8.0604   18.3062 C   0  0  0  0  0  0  0  0  0  0  0  0
   29.4834    8.5542   19.1686 C   0  0  2  0  0  0  0  0  0  0  0  0
   26.3540    6.5536   18.3052 N   0  0  0  0  0  0  0  0  0  0  0  0
   30.2277    9.5258   18.3718 N   0  0  0  0  0  0  0  0  0  0  0  0
   30.3928    5.2218   20.7280 O   0  0  0  0  0  0  0  0  0  0  0  0
   27.5998    4.9174   20.3239 O   0  0  0  0  0  0  0  0  0  0  0  0
  1  2  1  0  0  0  0
  1 12  1  6  0  0  0
  1 13  1  0  0  0  0
  2  3  1  0  0  0  0
  2 10  1  1  0  0  0
  4  3  1  1  0  0  0
  4  5  1  0  0  0  0
  4 14  1  0  0  0  0
  5  6  1  0  0  0  0
  5 13  1  1  0  0  0
  6  7  1  0  0  0  0
  6 15  1  1  0  0  0
  7  8  1  0  0  0  0
  7 11  1  6  0  0  0
  8 14  1  0  0  0  0
  8 16  1  6  0  0  0
  9 11  1  0  0  0  0
 17 16  1  1  0  0  0
 17 18  1  0  0  0  0
 17 24  1  0  0  0  0
 18 19  1  0  0  0  0
 18 25  1  6  0  0  0
 19 20  1  0  0  0  0
 19 26  1  6  0  0  0
 20 21  1  0  0  0  0
 20 23  1  1  0  0  0
 21 22  1  1  0  0  0
 21 24  1  0  0  0  0
 22 27  1  0  0  0  0
 28 12  1  1  0  0  0
 28 29  1  0  0  0  0
 28 33  1  0  0  0  0
 29 30  1  0  0  0  0
 29 36  1  6  0  0  0
 30 31  1  0  0  0  0
 30 37  1  1  0  0  0
 31 32  1  0  0  0  0
 31 34  1  6  0  0  0
 32 33  1  0  0  0  0
 33 35  1  6  0  0  0
M  END
>  <CHROM.1>
164.99816829,116.89056750,63.66393163,-150.79969750,-65.31087101,69.77210611
33.95534417,8.21920104,17.93884967,-2.95990865,-0.57622687,-2.07997788

>  <Name>
1yrj_lig

>  <RI>
0

>  <Rbt.Current_Directory>
/home/itssahil/PROJECTS/Mol_Feturizer/New_Systems/rnas/1yrj

>  <Rbt.Executable>
rbdock ($Id: //depot/dev/client3/rdock/2013.1/src/exe/rbdock.cxx#4 $)

>  <Rbt.Library>
libRbt.so (2013.1, Build901 2013/11/27)

>  <Rbt.Parameter_File>
/export/apps/rDock/src/rDock_2013.1_src/data/scripts/dock_solv.prm

>  <Rbt.Receptor>
prm/blind_docking_60.prm

>  <SCORE>
-8.83197

>  <SCORE.INTER>
-4.31618

>  <SCORE.INTER.CONST>
1

>  <SCORE.INTER.POLAR>
0

>  <SCORE.INTER.ROT>
6

>  <SCORE.INTER.SOLV>
12.5088

>  <SCORE.INTER.VDW>
-14.6471

>  <SCORE.INTER.norm>
-0.116654

>  <SCORE.INTRA>
-4.53471

>  <SCORE.INTRA.DIHEDRAL>
-9.24067

>  <SCORE.INTRA.DIHEDRAL.0>
15.6389

>  <SCORE.INTRA.POLAR>
0

>  <SCORE.INTRA.POLAR.0>
0

>  <SCORE.INTRA.REPUL>
0

>  <SCORE.INTRA.REPUL.0>
0

>  <SCORE.INTRA.SOLV>
-0.703418

>  <SCORE.INTRA.SOLV.lig_0>
-90.9181

>  <SCORE.INTRA.VDW>
0.437338

>  <SCORE.INTRA.VDW.0>
-3.14158

>  <SCORE.INTRA.norm>
-0.12256

>  <SCORE.RESTR>
0.0189142

>  <SCORE.RESTR.CAVITY>
0.0189142

>  <SCORE.RESTR.norm>
0.000511194

>  <SCORE.SYSTEM>
0

>  <SCORE.SYSTEM.CONST>
0

>  <SCORE.SYSTEM.DIHEDRAL>
0

>  <SCORE.SYSTEM.SOLV>
0

>  <SCORE.SYSTEM.norm>
0

>  <SCORE.heavy>
37

>  <SCORE.norm>
-0.238702

>  <RMSD>
14.333

$$$$
1yrj_lig
 OpenBabel11021811423D
libRbt.so/2013.1/901 2013/11/27
 37 40  0  0  0  0  0  0  0  0999 V2000
   36.5646    5.7356   15.4172 C   0  0  1  0  0  0  0  0  0  0  0  0
   35.2968    5.8976   14.5560 C   0  0  1  0  0  0  0  0  0  0  0  0
   34.3662    6.9890   15.1086 C   0  0  0  0  0  0  0  0  0  0  0  0
   34.0225    6.6938   16.5920 C   0  0  1  0  0  0  0  0  0  0  0  0
   35.3157    6.5906   17.4228 C   0  0  1  0  0  0  0  0  0  0  0  0
   34.9357    6.3017   18.9361 C   0  0  1  0  0  0  0  0  0  0  0  0
   34.0479    7.4363   19.4727 C   0  0  1  0  0  0  0  0  0  0  0  0
   32.7894    7.5298   18.5761 C   0  0  2  0  0  0  0  0  0  0  0  0
   33.1680    8.3514   21.6851 C   0  0  0  0  0  0  0  0  0  0  0  0
   35.6210    6.1710   13.1463 N   0  0  0  0  0  0  0  0  0  0  0  0
   33.7267    7.1972   20.9139 N   0  0  0  0  0  0  0  0  0  0  0  0
   37.5162    6.8033   15.2505 O   0  0  0  0  0  0  0  0  0  0  0  0
   36.1682    5.5427   16.8259 O   0  0  0  0  0  0  0  0  0  0  0  0
   33.1573    7.7399   17.1834 O   0  0  0  0  0  0  0  0  0  0  0  0
   34.1842    5.1084   19.0118 O   0  0  0  0  0  0  0  0  0  0  0  0
   31.9347    8.6047   18.9680 O   0  0  0  0  0  0  0  0  0  0  0  0
   30.8795    8.8722   18.0148 C   0  0  2  0  0  0  0  0  0  0  0  0
   29.9135    9.9783   18.4700 C   0  0  1  0  0  0  0  0  0  0  0  0
   29.0529    9.5096   19.6733 C   0  0  2  0  0  0  0  0  0  0  0  0
   28.2896    8.2584   19.3036 C   0  0  1  0  0  0  0  0  0  0  0  0
   29.2894    7.1567   18.8792 C   0  0  1  0  0  0  0  0  0  0  0  0
   28.5989    5.8672   18.4409 C   0  0  0  0  0  0  0  0  0  0  0  0
   27.4850    7.8350   20.4683 N   0  0  0  0  0  0  0  0  0  0  0  0
   30.1037    7.6383   17.7490 O   0  0  0  0  0  0  0  0  0  0  0  0
   30.6814   11.1511   18.7761 O   0  0  0  0  0  0  0  0  0  0  0  0
   28.1134   10.5352   20.0231 O   0  0  0  0  0  0  0  0  0  0  0  0
   27.9240    5.3043   19.5343 O   0  0  0  0  0  0  0  0  0  0  0  0
   37.4530    8.1222   16.0060 C   0  0  1  0  0  0  0  0  0  0  0  0
   38.4416    8.0174   17.1883 C   0  0  1  0  0  0  0  0  0  0  0  0
   38.5021    9.3424   17.9863 C   0  0  2  0  0  0  0  0  0  0  0  0
   38.9249   10.4911   17.0628 C   0  0  1  0  0  0  0  0  0  0  0  0
   37.9202   10.6318   15.8908 C   0  0  0  0  0  0  0  0  0  0  0  0
   37.8884    9.3162   15.1058 C   0  0  2  0  0  0  0  0  0  0  0  0
   38.9699   11.7563   17.8294 N   0  0  0  0  0  0  0  0  0  0  0  0
   36.9471    9.4946   14.0035 N   0  0  0  0  0  0  0  0  0  0  0  0
   38.0059    6.9640   18.0751 O   0  0  0  0  0  0  0  0  0  0  0  0
   39.4561    9.1964   19.0602 O   0  0  0  0  0  0  0  0  0  0  0  0
  1  2  1  0  0  0  0
  1 12  1  1  0  0  0
  1 13  1  0  0  0  0
  2  3  1  0  0  0  0
  2 10  1  6  0  0  0
  4  3  1  6  0  0  0
  4  5  1  0  0  0  0
  4 14  1  0  0  0  0
  5  6  1  0  0  0  0
  5 13  1  6  0  0  0
  6  7  1  0  0  0  0
  6 15  1  6  0  0  0
  7  8  1  0  0  0  0
  7 11  1  1  0  0  0
  8 14  1  0  0  0  0
  8 16  1  1  0  0  0
  9 11  1  0  0  0  0
 17 16  1  1  0  0  0
 17 18  1  0  0  0  0
 17 24  1  0  0  0  0
 18 19  1  0  0  0  0
 18 25  1  1  0  0  0
 19 20  1  0  0  0  0
 19 26  1  6  0  0  0
 20 21  1  0  0  0  0
 20 23  1  1  0  0  0
 21 22  1  6  0  0  0
 21 24  1  0  0  0  0
 22 27  1  0  0  0  0
 28 12  1  6  0  0  0
 28 29  1  0  0  0  0
 28 33  1  0  0  0  0
 29 30  1  0  0  0  0
 29 36  1  1  0  0  0
 30 31  1  0  0  0  0
 30 37  1  1  0  0  0
 31 32  1  0  0  0  0
 31 34  1  1  0  0  0
 32 33  1  0  0  0  0
 33 35  1  6  0  0  0
M  END
>  <CHROM.1>
84.59835725,165.17147645,169.55232198,176.90604271,-64.94879546,98.67769328
33.90325346,7.93923063,17.77934915,0.15958354,-0.29362675,-2.53507091

>  <Name>
1yrj_lig

>  <RI>
224

>  <Rbt.Current_Directory>
/home/itssahil/PROJECTS/Mol_Feturizer/New_Systems/rnas/1yrj

>  <Rbt.Executable>
rbdock ($Id: //depot/dev/client3/rdock/2013.1/src/exe/rbdock.cxx#4 $)

>  <Rbt.Library>
libRbt.so (2013.1, Build901 2013/11/27)

>  <Rbt.Parameter_File>
/export/apps/rDock/src/rDock_2013.1_src/data/scripts/dock_solv.prm

>  <Rbt.Receptor>
prm/blind_docking_80.prm

>  <SCORE>
-15.8624

>  <SCORE.INTER>
-13.8247

>  <SCORE.INTER.CONST>
1

>  <SCORE.INTER.POLAR>
-1.36536

>  <SCORE.INTER.ROT>
6

>  <SCORE.INTER.SOLV>
18.1928

>  <SCORE.INTER.VDW>
-18.3295

>  <SCORE.INTER.norm>
-0.37364

>  <SCORE.INTRA>
-2.03769

>  <SCORE.INTRA.DIHEDRAL>
-6.98215

>  <SCORE.INTRA.DIHEDRAL.0>
15.6389

>  <SCORE.INTRA.POLAR>
0

>  <SCORE.INTRA.POLAR.0>
0

>  <SCORE.INTRA.REPUL>
0

>  <SCORE.INTRA.REPUL.0>
0

>  <SCORE.INTRA.SOLV>
1.34306

>  <SCORE.INTRA.SOLV.lig_0>
-90.9181

>  <SCORE.INTRA.VDW>
0.781851

>  <SCORE.INTRA.VDW.0>
-3.14158

>  <SCORE.INTRA.norm>
-0.0550728

>  <SCORE.RESTR>
0

>  <SCORE.RESTR.CAVITY>
0

>  <SCORE.RESTR.norm>
0

>  <SCORE.SYSTEM>
0

>  <SCORE.SYSTEM.CONST>
0

>  <SCORE.SYSTEM.DIHEDRAL>
0

>  <SCORE.SYSTEM.SOLV>
0

>  <SCORE.SYSTEM.norm>
0

>  <SCORE.heavy>
37

>  <SCORE.norm>
-0.428713

>  <RMSD>
14.333

$$$$
1yrj_lig
 OpenBabel11021811423D
libRbt.so/2013.1/901 2013/11/27
 37 40  0  0  0  0  0  0  0  0999 V2000
   30.4925    8.9111   20.3032 C   0  0  1  0  0  0  0  0  0  0  0  0
   31.0077   10.0328   19.3802 C   0  0  1  0  0  0  0  0  0  0  0  0
   31.1203    9.5650   17.9205 C   0  0  0  0  0  0  0  0  0  0  0  0
   32.0069    8.2952   17.8358 C   0  0  1  0  0  0  0  0  0  0  0  0
   31.4267    7.1858   18.7335 C   0  0  1  0  0  0  0  0  0  0  0  0
   32.3437    5.8959   18.6185 C   0  0  1  0  0  0  0  0  0  0  0  0
   32.3937    5.4249   17.1559 C   0  0  1  0  0  0  0  0  0  0  0  0
   32.9357    6.5894   16.2919 C   0  0  2  0  0  0  0  0  0  0  0  0
   32.6350    3.0513   16.2537 C   0  0  0  0  0  0  0  0  0  0  0  0
   30.1714   11.2413   19.4643 N   0  0  0  0  0  0  0  0  0  0  0  0
   33.2153    4.1797   17.0468 N   0  0  0  0  0  0  0  0  0  0  0  0
   29.0864    8.6398   20.1530 O   0  0  0  0  0  0  0  0  0  0  0  0
   31.3267    7.7086   20.1112 O   0  0  0  0  0  0  0  0  0  0  0  0
   32.1152    7.7812   16.4514 O   0  0  0  0  0  0  0  0  0  0  0  0
   33.6636    6.2228   19.0002 O   0  0  0  0  0  0  0  0  0  0  0  0
   32.9568    6.2574   14.9031 O   0  0  0  0  0  0  0  0  0  0  0  0
   33.6954    7.2075   14.0997 C   0  0  2  0  0  0  0  0  0  0  0  0
   35.0962    6.7122   13.7047 C   0  0  1  0  0  0  0  0  0  0  0  0
   36.0343    6.6433   14.9391 C   0  0  2  0  0  0  0  0  0  0  0  0
   36.1184    8.0013   15.5977 C   0  0  1  0  0  0  0  0  0  0  0  0
   34.6989    8.4582   16.0095 C   0  0  1  0  0  0  0  0  0  0  0  0
   34.6841    9.8480   16.6420 C   0  0  0  0  0  0  0  0  0  0  0  0
   37.0129    7.9028   16.7696 N   0  0  0  0  0  0  0  0  0  0  0  0
   33.8282    8.4948   14.8208 O   0  0  0  0  0  0  0  0  0  0  0  0
   34.9593    5.4398   13.0556 O   0  0  0  0  0  0  0  0  0  0  0  0
   37.3499    6.2510   14.5241 O   0  0  0  0  0  0  0  0  0  0  0  0
   34.9855    9.7422   18.0079 O   0  0  0  0  0  0  0  0  0  0  0  0
   28.5117    7.6884   19.1143 C   0  0  1  0  0  0  0  0  0  0  0  0
   28.2353    6.3473   19.8290 C   0  0  1  0  0  0  0  0  0  0  0  0
   27.5821    5.3250   18.8675 C   0  0  2  0  0  0  0  0  0  0  0  0
   26.2699    5.8921   18.3130 C   0  0  1  0  0  0  0  0  0  0  0  0
   26.5377    7.2206   17.5607 C   0  0  0  0  0  0  0  0  0  0  0  0
   27.1685    8.2220   18.5340 C   0  0  2  0  0  0  0  0  0  0  0  0
   25.6565    4.9146   17.3863 N   0  0  0  0  0  0  0  0  0  0  0  0
   27.3882    9.4620   17.7946 N   0  0  0  0  0  0  0  0  0  0  0  0
   29.4846    5.8005   20.3048 O   0  0  0  0  0  0  0  0  0  0  0  0
   27.3241    4.1030   19.5919 O   0  0  0  0  0  0  0  0  0  0  0  0
  1  2  1  0  0  0  0
  1 12  1  6  0  0  0
  1 13  1  0  0  0  0
  2  3  1  0  0  0  0
  2 10  1  6  0  0  0
  4  3  1  6  0  0  0
  4  5  1  0  0  0  0
  4 14  1  0  0  0  0
  5  6  1  0  0  0  0
  5 13  1  1  0  0  0
  6  7  1  0  0  0  0
  6 15  1  6  0  0  0
  7  8  1  0  0  0  0
  7 11  1  1  0  0  0
  8 14  1  0  0  0  0
  8 16  1  6  0  0  0
  9 11  1  0  0  0  0
 17 16  1  1  0  0  0
 17 18  1  0  0  0  0
 17 24  1  0  0  0  0
 18 19  1  0  0  0  0
 18 25  1  1  0  0  0
 19 20  1  0  0  0  0
 19 26  1  6  0  0  0
 20 21  1  0  0  0  0
 20 23  1  1  0  0  0
 21 22  1  6  0  0  0
 21 24  1  0  0  0  0
 22 27  1  0  0  0  0
 28 12  1  1  0  0  0
 28 29  1  0  0  0  0
 28 33  1  0  0  0  0
 29 30  1  0  0  0  0
 29 36  1  6  0  0  0
 30 31  1  0  0  0  0
 30 37  1  1  0  0  0
 31 32  1  0  0  0  0
 31 34  1  6  0  0  0
 32 33  1  0  0  0  0
 33 35  1  6  0  0  0
M  END
>  <CHROM.1>
86.13651788,132.65675528,-168.49091284,102.44297585,-84.10983034,99.11408582
31.70212976,7.18767394,17.42751705,-2.94980800,-0.42494433,-2.66331872

>  <Name>
1yrj_lig

>  <RI>
0

>  <Rbt.Current_Directory>
/home/itssahil/PROJECTS/Mol_Feturizer/New_Systems/rnas/1yrj

>  <Rbt.Executable>
rbdock ($Id: //depot/dev/client3/rdock/2013.1/src/exe/rbdock.cxx#4 $)

>  <Rbt.Library>
libRbt.so (2013.1, Build901 2013/11/27)

>  <Rbt.Parameter_File>
/export/apps/rDock/src/rDock_2013.1_src/data/scripts/dock_solv.prm

>  <Rbt.Receptor>
prm/blind_docking_40.prm

>  <SCORE>
4.77733

>  <SCORE.INTER>
-6.81448

>  <SCORE.INTER.CONST>
1

>  <SCORE.INTER.POLAR>
-0.990924

>  <SCORE.INTER.ROT>
6

>  <SCORE.INTER.SOLV>
10.7176

>  <SCORE.INTER.VDW>
-12.4124

>  <SCORE.INTER.norm>
-0.184175

>  <SCORE.INTRA>
6.38059

>  <SCORE.INTRA.DIHEDRAL>
1.82706

>  <SCORE.INTRA.DIHEDRAL.0>
15.6389

>  <SCORE.INTRA.POLAR>
0

>  <SCORE.INTRA.POLAR.0>
0

>  <SCORE.INTRA.REPUL>
0

>  <SCORE.INTRA.REPUL.0>
0

>  <SCORE.INTRA.SOLV>
2.62838

>  <SCORE.INTRA.SOLV.lig_0>
-90.9181

>  <SCORE.INTRA.VDW>
4.15287

>  <SCORE.INTRA.VDW.0>
-3.14158

>  <SCORE.INTRA.norm>
0.172448

>  <SCORE.RESTR>
5.21122

>  <SCORE.RESTR.CAVITY>
5.21122

>  <SCORE.RESTR.norm>
0.140844

>  <SCORE.SYSTEM>
0

>  <SCORE.SYSTEM.CONST>
0

>  <SCORE.SYSTEM.DIHEDRAL>
0

>  <SCORE.SYSTEM.SOLV>
0

>  <SCORE.SYSTEM.norm>
0

>  <SCORE.heavy>
37

>  <SCORE.norm>
0.129117

>  <RMSD>
14.335

$$$$
1yrj_lig
 OpenBabel11021811423D
libRbt.so/2013.1/901 2013/11/27
 37 40  0  0  0  0  0  0  0  0999 V2000
   30.9089   10.1186   20.2788 C   0  0  1  0  0  0  0  0  0  0  0  0
   31.0162   10.9249   18.9697 C   0  0  1  0  0  0  0  0  0  0  0  0
   31.3345   10.0223   17.7671 C   0  0  0  0  0  0  0  0  0  0  0  0
   32.6196    9.1994   18.0452 C   0  0  1  0  0  0  0  0  0  0  0  0
   32.4480    8.3721   19.3332 C   0  0  1  0  0  0  0  0  0  0  0  0
   33.7696    7.5313   19.5870 C   0  0  1  0  0  0  0  0  0  0  0  0
   34.0307    6.6032   18.3895 C   0  0  1  0  0  0  0  0  0  0  0  0
   34.1459    7.4774   17.1172 C   0  0  2  0  0  0  0  0  0  0  0  0
   35.0534    4.5041   19.4164 C   0  0  0  0  0  0  0  0  0  0  0  0
   29.8000   11.7119   18.7075 N   0  0  0  0  0  0  0  0  0  0  0  0
   35.2471    5.7704   18.6429 N   0  0  0  0  0  0  0  0  0  0  0  0
   29.6989    9.3451   20.3830 O   0  0  0  0  0  0  0  0  0  0  0  0
   32.1243    9.2965   20.4387 O   0  0  0  0  0  0  0  0  0  0  0  0
   32.9481    8.2831   16.9294 O   0  0  0  0  0  0  0  0  0  0  0  0
   34.8719    8.4084   19.6872 O   0  0  0  0  0  0  0  0  0  0  0  0
   34.3280    6.6866   15.9421 O   0  0  0  0  0  0  0  0  0  0  0  0
   34.4473    7.4758   14.7352 C   0  0  2  0  0  0  0  0  0  0  0  0
   35.5033    6.9364   13.7566 C   0  0  1  0  0  0  0  0  0  0  0  0
   36.9367    7.1220   14.3215 C   0  0  2  0  0  0  0  0  0  0  0  0
   37.1871    8.5827   14.6193 C   0  0  1  0  0  0  0  0  0  0  0  0
   36.1280    9.0873   15.6277 C   0  0  1  0  0  0  0  0  0  0  0  0
   36.2770   10.5726   15.9496 C   0  0  0  0  0  0  0  0  0  0  0  0
   38.5551    8.7265   15.1589 N   0  0  0  0  0  0  0  0  0  0  0  0
   34.7789    8.8800   15.0714 O   0  0  0  0  0  0  0  0  0  0  0  0
   35.2028    5.5606   13.4806 O   0  0  0  0  0  0  0  0  0  0  0  0
   37.8979    6.6784   13.3540 O   0  0  0  0  0  0  0  0  0  0  0  0
   35.3218   10.9403   16.9089 O   0  0  0  0  0  0  0  0  0  0  0  0
   29.4068    8.1091   19.5455 C   0  0  1  0  0  0  0  0  0  0  0  0
   29.4890    6.8895   20.4900 C   0  0  1  0  0  0  0  0  0  0  0  0
   29.1393    5.5792   19.7436 C   0  0  2  0  0  0  0  0  0  0  0  0
   27.7291    5.6754   19.1495 C   0  0  1  0  0  0  0  0  0  0  0  0
   27.6424    6.8741   18.1705 C   0  0  0  0  0  0  0  0  0  0  0  0
   27.9759    8.1607   18.9329 C   0  0  2  0  0  0  0  0  0  0  0  0
   27.4056    4.4242   18.4281 N   0  0  0  0  0  0  0  0  0  0  0  0
   27.8661    9.2651   17.9837 N   0  0  0  0  0  0  0  0  0  0  0  0
   30.8339    6.7822   21.0054 O   0  0  0  0  0  0  0  0  0  0  0  0
   29.2075    4.4793   20.6764 O   0  0  0  0  0  0  0  0  0  0  0  0
  1  2  1  0  0  0  0
  1 12  1  6  0  0  0
  1 13  1  0  0  0  0
  2  3  1  0  0  0  0
  2 10  1  6  0  0  0
  4  3  1  6  0  0  0
  4  5  1  0  0  0  0
  4 14  1  0  0  0  0
  5  6  1  0  0  0  0
  5 13  1  1  0  0  0
  6  7  1  0  0  0  0
  6 15  1  6  0  0  0
  7  8  1  0  0  0  0
  7 11  1  1  0  0  0
  8 14  1  0  0  0  0
  8 16  1  6  0  0  0
  9 11  1  0  0  0  0
 17 16  1  1  0  0  0
 17 18  1  0  0  0  0
 17 24  1  0  0  0  0
 18 19  1  0  0  0  0
 18 25  1  1  0  0  0
 19 20  1  0  0  0  0
 19 26  1  6  0  0  0
 20 21  1  0  0  0  0
 20 23  1  1  0  0  0
 21 22  1  6  0  0  0
 21 24  1  0  0  0  0
 22 27  1  0  0  0  0
 28 12  1  1  0  0  0
 28 29  1  0  0  0  0
 28 33  1  0  0  0  0
 29 30  1  0  0  0  0
 29 36  1  6  0  0  0
 30 31  1  0  0  0  0
 30 37  1  1  0  0  0
 31 32  1  0  0  0  0
 31 34  1  6  0  0  0
 32 33  1  0  0  0  0
 33 35  1  6  0  0  0
M  END
>  <CHROM.1>
70.56519182,85.26984256,-179.65230878,140.31368412,-177.50760095,109.08575241
32.72209918,7.85520576,17.74616266,-3.11121143,-0.55486184,-2.99134359

>  <Name>
1yrj_lig

>  <RI>
224

>  <Rbt.Current_Directory>
/home/itssahil/PROJECTS/Mol_Feturizer/New_Systems/rnas/1yrj

>  <Rbt.Executable>
rbdock ($Id: //depot/dev/client3/rdock/2013.1/src/exe/rbdock.cxx#4 $)

>  <Rbt.Library>
libRbt.so (2013.1, Build901 2013/11/27)

>  <Rbt.Parameter_File>
/export/apps/rDock/src/rDock_2013.1_src/data/scripts/dock_solv.prm

>  <Rbt.Receptor>
prm/blind_docking_80.prm

>  <SCORE>
-9.76076

>  <SCORE.INTER>
-10.5944

>  <SCORE.INTER.CONST>
1

>  <SCORE.INTER.POLAR>
-1

>  <SCORE.INTER.ROT>
6

>  <SCORE.INTER.SOLV>
8.82379

>  <SCORE.INTER.VDW>
-14.2708

>  <SCORE.INTER.norm>
-0.286334

>  <SCORE.INTRA>
0.254023

>  <SCORE.INTRA.DIHEDRAL>
-2.58479

>  <SCORE.INTRA.DIHEDRAL.0>
15.6389

>  <SCORE.INTRA.POLAR>
0

>  <SCORE.INTRA.POLAR.0>
0

>  <SCORE.INTRA.REPUL>
0

>  <SCORE.INTRA.REPUL.0>
0

>  <SCORE.INTRA.SOLV>
2.38083

>  <SCORE.INTRA.SOLV.lig_0>
-90.9181

>  <SCORE.INTRA.VDW>
0.356003

>  <SCORE.INTRA.VDW.0>
-3.14158

>  <SCORE.INTRA.norm>
0.00686549

>  <SCORE.RESTR>
0.579584

>  <SCORE.RESTR.CAVITY>
0.579584

>  <SCORE.RESTR.norm>
0.0156644

>  <SCORE.SYSTEM>
0

>  <SCORE.SYSTEM.CONST>
0

>  <SCORE.SYSTEM.DIHEDRAL>
0

>  <SCORE.SYSTEM.SOLV>
0

>  <SCORE.SYSTEM.norm>
0

>  <SCORE.heavy>
37

>  <SCORE.norm>
-0.263804

>  <RMSD>
14.336

$$$$
1yrj_lig
 OpenBabel11021811423D
libRbt.so/2013.1/901 2013/11/27
 37 40  0  0  0  0  0  0  0  0999 V2000
   30.9019   10.1794   20.2815 C   0  0  1  0  0  0  0  0  0  0  0  0
   30.9734   10.9591   18.9539 C   0  0  1  0  0  0  0  0  0  0  0  0
   31.2976   10.0380   17.7670 C   0  0  0  0  0  0  0  0  0  0  0  0
   32.6052    9.2518   18.0457 C   0  0  1  0  0  0  0  0  0  0  0  0
   32.4698    8.4491   19.3535 C   0  0  1  0  0  0  0  0  0  0  0  0
   33.8141    7.6452   19.6078 C   0  0  1  0  0  0  0  0  0  0  0  0
   34.0818    6.6975   18.4273 C   0  0  1  0  0  0  0  0  0  0  0  0
   34.1600    7.5461   17.1349 C   0  0  2  0  0  0  0  0  0  0  0  0
   35.2010    4.7432   19.6251 C   0  0  0  0  0  0  0  0  0  0  0  0
   29.7356   11.7114   18.6910 N   0  0  0  0  0  0  0  0  0  0  0  0
   35.3207    5.8991   18.6824 N   0  0  0  0  0  0  0  0  0  0  0  0
   29.7121    9.3802   20.4185 O   0  0  0  0  0  0  0  0  0  0  0  0
   32.1385    9.3897   20.4429 O   0  0  0  0  0  0  0  0  0  0  0  0
   32.9411    8.3191   16.9457 O   0  0  0  0  0  0  0  0  0  0  0  0
   34.8965    8.5499   19.6744 O   0  0  0  0  0  0  0  0  0  0  0  0
   34.3457    6.7341   15.9749 O   0  0  0  0  0  0  0  0  0  0  0  0
   34.4564    7.5007   14.7527 C   0  0  2  0  0  0  0  0  0  0  0  0
   35.4924    6.9326   13.7690 C   0  0  1  0  0  0  0  0  0  0  0  0
   36.9357    7.1120   14.3104 C   0  0  2  0  0  0  0  0  0  0  0  0
   37.2063    8.5747   14.5789 C   0  0  1  0  0  0  0  0  0  0  0  0
   36.1672    9.1087   15.5931 C   0  0  1  0  0  0  0  0  0  0  0  0
   36.3370   10.5976   15.8867 C   0  0  0  0  0  0  0  0  0  0  0  0
   38.5834    8.7126   15.0966 N   0  0  0  0  0  0  0  0  0  0  0  0
   34.8082    8.9068   15.0596 O   0  0  0  0  0  0  0  0  0  0  0  0
   35.1729    5.5557   13.5215 O   0  0  0  0  0  0  0  0  0  0  0  0
   37.8781    6.6408   13.3374 O   0  0  0  0  0  0  0  0  0  0  0  0
   35.3729   11.0017   16.8220 O   0  0  0  0  0  0  0  0  0  0  0  0
   29.4109    8.1539   19.5700 C   0  0  1  0  0  0  0  0  0  0  0  0
   29.5492    6.9198   20.4886 C   0  0  1  0  0  0  0  0  0  0  0  0
   29.1951    5.6166   19.7319 C   0  0  2  0  0  0  0  0  0  0  0  0
   27.7624    5.6975   19.1918 C   0  0  1  0  0  0  0  0  0  0  0  0
   27.6186    6.9113   18.2385 C   0  0  0  0  0  0  0  0  0  0  0  0
   27.9575    8.1903   19.0113 C   0  0  2  0  0  0  0  0  0  0  0  0
   27.4343    4.4534   18.4602 N   0  0  0  0  0  0  0  0  0  0  0  0
   27.7935    9.3089   18.0869 N   0  0  0  0  0  0  0  0  0  0  0  0
   30.9139    6.8279   20.9523 O   0  0  0  0  0  0  0  0  0  0  0  0
   29.3169    4.5019   20.6415 O   0  0  0  0  0  0  0  0  0  0  0  0
  1  2  1  0  0  0  0
  1 12  1  6  0  0  0
  1 13  1  0  0  0  0
  2  3  1  0  0  0  0
  2 10  1  6  0  0  0
  4  3  1  6  0  0  0
  4  5  1  0  0  0  0
  4 14  1  0  0  0  0
  5  6  1  0  0  0  0
  5 13  1  1  0  0  0
  6  7  1  0  0  0  0
  6 15  1  6  0  0  0
  7  8  1  0  0  0  0
  7 11  1  1  0  0  0
  8 14  1  0  0  0  0
  8 16  1  6  0  0  0
  9 11  1  0  0  0  0
 17 16  1  1  0  0  0
 17 18  1  0  0  0  0
 17 24  1  0  0  0  0
 18 19  1  0  0  0  0
 18 25  1  1  0  0  0
 19 20  1  0  0  0  0
 19 26  1  6  0  0  0
 20 21  1  0  0  0  0
 20 23  1  1  0  0  0
 21 22  1  6  0  0  0
 21 24  1  0  0  0  0
 22 27  1  0  0  0  0
 28 12  1  1  0  0  0
 28 29  1  0  0  0  0
 28 33  1  0  0  0  0
 29 30  1  0  0  0  0
 29 36  1  6  0  0  0
 30 31  1  0  0  0  0
 30 37  1  1  0  0  0
 31 32  1  0  0  0  0
 31 34  1  6  0  0  0
 32 33  1  0  0  0  0
 33 35  1  6  0  0  0
M  END
>  <CHROM.1>
67.80393228,77.81958236,-178.53921268,141.59390789,-179.31858104,109.26475049
32.74116729,7.90053762,17.75617603,-3.10442927,-0.55468610,-2.98816293

>  <Name>
1yrj_lig

>  <RI>
224

>  <Rbt.Current_Directory>
/home/itssahil/PROJECTS/Mol_Feturizer/New_Systems/rnas/1yrj

>  <Rbt.Executable>
rbdock ($Id: //depot/dev/client3/rdock/2013.1/src/exe/rbdock.cxx#4 $)

>  <Rbt.Library>
libRbt.so (2013.1, Build901 2013/11/27)

>  <Rbt.Parameter_File>
/export/apps/rDock/src/rDock_2013.1_src/data/scripts/dock_solv.prm

>  <Rbt.Receptor>
prm/blind_docking_80.prm

>  <SCORE>
-9.90124

>  <SCORE.INTER>
-10.5915

>  <SCORE.INTER.CONST>
1

>  <SCORE.INTER.POLAR>
-1

>  <SCORE.INTER.ROT>
6

>  <SCORE.INTER.SOLV>
8.63898

>  <SCORE.INTER.VDW>
-14.2073

>  <SCORE.INTER.norm>
-0.286255

>  <SCORE.INTRA>
0.0874726

>  <SCORE.INTRA.DIHEDRAL>
-3.23768

>  <SCORE.INTRA.DIHEDRAL.0>
15.6389

>  <SCORE.INTRA.POLAR>
0

>  <SCORE.INTRA.POLAR.0>
0

>  <SCORE.INTRA.REPUL>
0

>  <SCORE.INTRA.REPUL.0>
0

>  <SCORE.INTRA.SOLV>
2.46718

>  <SCORE.INTRA.SOLV.lig_0>
-90.9181

>  <SCORE.INTRA.VDW>
0.472719

>  <SCORE.INTRA.VDW.0>
-3.14158

>  <SCORE.INTRA.norm>
0.00236412

>  <SCORE.RESTR>
0.602737

>  <SCORE.RESTR.CAVITY>
0.602737

>  <SCORE.RESTR.norm>
0.0162902

>  <SCORE.SYSTEM>
0

>  <SCORE.SYSTEM.CONST>
0

>  <SCORE.SYSTEM.DIHEDRAL>
0

>  <SCORE.SYSTEM.SOLV>
0

>  <SCORE.SYSTEM.norm>
0

>  <SCORE.heavy>
37

>  <SCORE.norm>
-0.267601

>  <RMSD>
14.355

$$$$
1yrj_lig
 OpenBabel11021811423D
libRbt.so/2013.1/901 2013/11/27
 37 40  0  0  0  0  0  0  0  0999 V2000
   36.2171    6.5497   15.5048 C   0  0  1  0  0  0  0  0  0  0  0  0
   35.2057    5.8027   14.6134 C   0  0  1  0  0  0  0  0  0  0  0  0
   33.7545    6.0974   15.0249 C   0  0  0  0  0  0  0  0  0  0  0  0
   33.5510    5.7708   16.5274 C   0  0  1  0  0  0  0  0  0  0  0  0
   34.5475    6.5766   17.3823 C   0  0  1  0  0  0  0  0  0  0  0  0
   34.3095    6.2342   18.9134 C   0  0  1  0  0  0  0  0  0  0  0  0
   32.8655    6.5880   19.3046 C   0  0  1  0  0  0  0  0  0  0  0  0
   31.9073    5.7914   18.3860 C   0  0  2  0  0  0  0  0  0  0  0  0
   32.1284    7.4457   21.5910 C   0  0  0  0  0  0  0  0  0  0  0  0
   35.4017    6.1062   13.1863 N   0  0  0  0  0  0  0  0  0  0  0  0
   32.6477    6.3154   20.7591 N   0  0  0  0  0  0  0  0  0  0  0  0
   36.2966    7.9609   15.2304 O   0  0  0  0  0  0  0  0  0  0  0  0
   35.9147    6.2624   16.9207 O   0  0  0  0  0  0  0  0  0  0  0  0
   32.1755    6.0751   16.9836 O   0  0  0  0  0  0  0  0  0  0  0  0
   34.4713    4.8457   19.1144 O   0  0  0  0  0  0  0  0  0  0  0  0
   30.5384    6.1087   18.6409 O   0  0  0  0  0  0  0  0  0  0  0  0
   29.9830    7.0474   17.6901 C   0  0  2  0  0  0  0  0  0  0  0  0
   30.4168    8.5003   17.9443 C   0  0  1  0  0  0  0  0  0  0  0  0
   29.7806    9.0548   19.2466 C   0  0  2  0  0  0  0  0  0  0  0  0
   28.2744    8.9580   19.1650 C   0  0  1  0  0  0  0  0  0  0  0  0
   27.8688    7.4823   18.9389 C   0  0  1  0  0  0  0  0  0  0  0  0
   26.3597    7.2980   18.7956 C   0  0  0  0  0  0  0  0  0  0  0  0
   27.6988    9.4881   20.4185 N   0  0  0  0  0  0  0  0  0  0  0  0
   28.5032    6.9795   17.7072 O   0  0  0  0  0  0  0  0  0  0  0  0
   31.8507    8.5443   17.9794 O   0  0  0  0  0  0  0  0  0  0  0  0
   30.1448   10.4320   19.4131 O   0  0  0  0  0  0  0  0  0  0  0  0
   26.0373    5.9429   18.9612 O   0  0  0  0  0  0  0  0  0  0  0  0
   36.7464    8.9993   16.2472 C   0  0  1  0  0  0  0  0  0  0  0  0
   38.2250    8.7004   16.5793 C   0  0  1  0  0  0  0  0  0  0  0  0
   38.8008    9.7488   17.5619 C   0  0  2  0  0  0  0  0  0  0  0  0
   38.6833   11.1530   16.9574 C   0  0  1  0  0  0  0  0  0  0  0  0
   37.1993   11.4812   16.6530 C   0  0  0  0  0  0  0  0  0  0  0  0
   36.6549   10.4419   15.6673 C   0  0  2  0  0  0  0  0  0  0  0  0
   39.2253   12.1512   17.9063 N   0  0  0  0  0  0  0  0  0  0  0  0
   35.2646   10.7949   15.3928 N   0  0  0  0  0  0  0  0  0  0  0  0
   38.3161    7.3953   17.1913 O   0  0  0  0  0  0  0  0  0  0  0  0
   40.1871    9.4362   17.8171 O   0  0  0  0  0  0  0  0  0  0  0  0
  1  2  1  0  0  0  0
  1 12  1  1  0  0  0
  1 13  1  0  0  0  0
  2  3  1  0  0  0  0
  2 10  1  6  0  0  0
  4  3  1  6  0  0  0
  4  5  1  0  0  0  0
  4 14  1  0  0  0  0
  5  6  1  0  0  0  0
  5 13  1  6  0  0  0
  6  7  1  0  0  0  0
  6 15  1  6  0  0  0
  7  8  1  0  0  0  0
  7 11  1  1  0  0  0
  8 14  1  0  0  0  0
  8 16  1  1  0  0  0
  9 11  1  0  0  0  0
 17 16  1  1  0  0  0
 17 18  1  0  0  0  0
 17 24  1  0  0  0  0
 18 19  1  0  0  0  0
 18 25  1  1  0  0  0
 19 20  1  0  0  0  0
 19 26  1  6  0  0  0
 20 21  1  0  0  0  0
 20 23  1  1  0  0  0
 21 22  1  6  0  0  0
 21 24  1  0  0  0  0
 22 27  1  0  0  0  0
 28 12  1  6  0  0  0
 28 29  1  0  0  0  0
 28 33  1  0  0  0  0
 29 30  1  0  0  0  0
 29 36  1  1  0  0  0
 30 31  1  0  0  0  0
 30 37  1  6  0  0  0
 31 32  1  0  0  0  0
 31 34  1  1  0  0  0
 32 33  1  0  0  0  0
 33 35  1  1  0  0  0
M  END
>  <CHROM.1>
154.75910621,125.47769927,99.88418085,-77.16095157,-163.97994149,64.43580401
33.43723186,7.82812161,17.65137315,-0.04814891,-0.31137104,-2.70255747

>  <Name>
1yrj_lig

>  <RI>
224

>  <Rbt.Current_Directory>
/home/itssahil/PROJECTS/Mol_Feturizer/New_Systems/rnas/1yrj

>  <Rbt.Executable>
rbdock ($Id: //depot/dev/client3/rdock/2013.1/src/exe/rbdock.cxx#4 $)

>  <Rbt.Library>
libRbt.so (2013.1, Build901 2013/11/27)

>  <Rbt.Parameter_File>
/export/apps/rDock/src/rDock_2013.1_src/data/scripts/dock_solv.prm

>  <Rbt.Receptor>
prm/blind_docking_80.prm

>  <SCORE>
-9.92634

>  <SCORE.INTER>
-10.6021

>  <SCORE.INTER.CONST>
1

>  <SCORE.INTER.POLAR>
-1.33059

>  <SCORE.INTER.ROT>
6

>  <SCORE.INTER.SOLV>
19.2012

>  <SCORE.INTER.VDW>
-16.6332

>  <SCORE.INTER.norm>
-0.286545

>  <SCORE.INTRA>
0.657161

>  <SCORE.INTRA.DIHEDRAL>
-4.00537

>  <SCORE.INTRA.DIHEDRAL.0>
15.6389

>  <SCORE.INTRA.POLAR>
0

>  <SCORE.INTRA.POLAR.0>
0

>  <SCORE.INTRA.REPUL>
0

>  <SCORE.INTRA.REPUL.0>
0

>  <SCORE.INTRA.SOLV>
-0.855775

>  <SCORE.INTRA.SOLV.lig_0>
-90.9181

>  <SCORE.INTRA.VDW>
3.08774

>  <SCORE.INTRA.VDW.0>
-3.14158

>  <SCORE.INTRA.norm>
0.0177611

>  <SCORE.RESTR>
0.0186486

>  <SCORE.RESTR.CAVITY>
0.0186486

>  <SCORE.RESTR.norm>
0.000504017

>  <SCORE.SYSTEM>
0

>  <SCORE.SYSTEM.CONST>
0

>  <SCORE.SYSTEM.DIHEDRAL>
0

>  <SCORE.SYSTEM.SOLV>
0

>  <SCORE.SYSTEM.norm>
0

>  <SCORE.heavy>
37

>  <SCORE.norm>
-0.268279

>  <RMSD>
14.358

$$$$
1yrj_lig
 OpenBabel11021811423D
libRbt.so/2013.1/901 2013/11/27
 37 40  0  0  0  0  0  0  0  0999 V2000
   36.2498    6.5256   15.5045 C   0  0  1  0  0  0  0  0  0  0  0  0
   35.2291    5.8012   14.6052 C   0  0  1  0  0  0  0  0  0  0  0  0
   33.7817    6.1080   15.0215 C   0  0  0  0  0  0  0  0  0  0  0  0
   33.5755    5.7661   16.5203 C   0  0  1  0  0  0  0  0  0  0  0  0
   34.5820    6.5499   17.3837 C   0  0  1  0  0  0  0  0  0  0  0  0
   34.3412    6.1923   18.9108 C   0  0  1  0  0  0  0  0  0  0  0  0
   32.9017    6.5583   19.3075 C   0  0  1  0  0  0  0  0  0  0  0  0
   31.9336    5.7840   18.3804 C   0  0  2  0  0  0  0  0  0  0  0  0
   31.7640    7.1908   21.5011 C   0  0  0  0  0  0  0  0  0  0  0  0
   35.4275    6.1192   13.1817 N   0  0  0  0  0  0  0  0  0  0  0  0
   32.6818    6.2711   20.7589 N   0  0  0  0  0  0  0  0  0  0  0  0
   36.3456    7.9390   15.2468 O   0  0  0  0  0  0  0  0  0  0  0  0
   35.9452    6.2251   16.9172 O   0  0  0  0  0  0  0  0  0  0  0  0
   32.2040    6.0811   16.9812 O   0  0  0  0  0  0  0  0  0  0  0  0
   34.4868    4.7997   19.0953 O   0  0  0  0  0  0  0  0  0  0  0  0
   30.5687    6.1143   18.6402 O   0  0  0  0  0  0  0  0  0  0  0  0
   30.0123    7.0413   17.6787 C   0  0  2  0  0  0  0  0  0  0  0  0
   30.4268    8.5005   17.9291 C   0  0  1  0  0  0  0  0  0  0  0  0
   29.7710    9.0548   19.2218 C   0  0  2  0  0  0  0  0  0  0  0  0
   28.2669    8.9401   19.1255 C   0  0  1  0  0  0  0  0  0  0  0  0
   27.8806    7.4586   18.9035 C   0  0  1  0  0  0  0  0  0  0  0  0
   26.3753    7.2562   18.7459 C   0  0  0  0  0  0  0  0  0  0  0  0
   27.6725    9.4703   20.3701 N   0  0  0  0  0  0  0  0  0  0  0  0
   28.5332    6.9564   17.6811 O   0  0  0  0  0  0  0  0  0  0  0  0
   31.8596    8.5612   17.9785 O   0  0  0  0  0  0  0  0  0  0  0  0
   30.1176   10.4369   19.3843 O   0  0  0  0  0  0  0  0  0  0  0  0
   26.0608    5.9063   18.9623 O   0  0  0  0  0  0  0  0  0  0  0  0
   36.7572    8.9662   16.2908 C   0  0  1  0  0  0  0  0  0  0  0  0
   38.2062    8.6336   16.7100 C   0  0  1  0  0  0  0  0  0  0  0  0
   38.7457    9.6680   17.7274 C   0  0  2  0  0  0  0  0  0  0  0  0
   38.6963   11.0749   17.1199 C   0  0  1  0  0  0  0  0  0  0  0  0
   37.2409   11.4368   16.7280 C   0  0  0  0  0  0  0  0  0  0  0  0
   36.7331   10.4109   15.7094 C   0  0  2  0  0  0  0  0  0  0  0  0
   39.2029   12.0599   18.1015 N   0  0  0  0  0  0  0  0  0  0  0  0
   35.3701   10.7954   15.3530 N   0  0  0  0  0  0  0  0  0  0  0  0
   38.2311    7.3264   17.3237 O   0  0  0  0  0  0  0  0  0  0  0  0
   40.1068    9.3239   18.0644 O   0  0  0  0  0  0  0  0  0  0  0  0
  1  2  1  0  0  0  0
  1 12  1  1  0  0  0
  1 13  1  0  0  0  0
  2  3  1  0  0  0  0
  2 10  1  6  0  0  0
  4  3  1  6  0  0  0
  4  5  1  0  0  0  0
  4 14  1  0  0  0  0
  5  6  1  0  0  0  0
  5 13  1  6  0  0  0
  6  7  1  0  0  0  0
  6 15  1  6  0  0  0
  7  8  1  0  0  0  0
  7 11  1  1  0  0  0
  8 14  1  0  0  0  0
  8 16  1  1  0  0  0
  9 11  1  0  0  0  0
 17 16  1  1  0  0  0
 17 18  1  0  0  0  0
 17 24  1  0  0  0  0
 18 19  1  0  0  0  0
 18 25  1  1  0  0  0
 19 20  1  0  0  0  0
 19 26  1  6  0  0  0
 20 21  1  0  0  0  0
 20 23  1  1  0  0  0
 21 22  1  6  0  0  0
 21 24  1  0  0  0  0
 22 27  1  0  0  0  0
 28 12  1  6  0  0  0
 28 29  1  0  0  0  0
 28 33  1  0  0  0  0
 29 30  1  0  0  0  0
 29 36  1  1  0  0  0
 30 31  1  0  0  0  0
 30 37  1  6  0  0  0
 31 32  1  0  0  0  0
 31 34  1  1  0  0  0
 32 33  1  0  0  0  0
 33 35  1  1  0  0  0
M  END
>  <CHROM.1>
152.31484765,145.89882924,101.55018589,-78.72367436,-161.92026142,62.84952247
33.43961335,7.79376073,17.67162735,-0.04753745,-0.30072757,-2.69825853

>  <Name>
1yrj_lig

>  <RI>
224

>  <Rbt.Current_Directory>
/home/itssahil/PROJECTS/Mol_Feturizer/New_Systems/rnas/1yrj

>  <Rbt.Executable>
rbdock ($Id: //depot/dev/client3/rdock/2013.1/src/exe/rbdock.cxx#4 $)

>  <Rbt.Library>
libRbt.so (2013.1, Build901 2013/11/27)

>  <Rbt.Parameter_File>
/export/apps/rDock/src/rDock_2013.1_src/data/scripts/dock_solv.prm

>  <Rbt.Receptor>
prm/blind_docking_80.prm

>  <SCORE>
-9.77503

>  <SCORE.INTER>
-10.6969

>  <SCORE.INTER.CONST>
1

>  <SCORE.INTER.POLAR>
-1.31196

>  <SCORE.INTER.ROT>
6

>  <SCORE.INTER.SOLV>
19.7024

>  <SCORE.INTER.VDW>
-16.9255

>  <SCORE.INTER.norm>
-0.289106

>  <SCORE.INTRA>
0.898694

>  <SCORE.INTRA.DIHEDRAL>
-3.34232

>  <SCORE.INTRA.DIHEDRAL.0>
15.6389

>  <SCORE.INTRA.POLAR>
0

>  <SCORE.INTRA.POLAR.0>
0

>  <SCORE.INTRA.REPUL>
0

>  <SCORE.INTRA.REPUL.0>
0

>  <SCORE.INTRA.SOLV>
-0.846058

>  <SCORE.INTRA.SOLV.lig_0>
-90.9181

>  <SCORE.INTRA.VDW>
2.99288

>  <SCORE.INTRA.VDW.0>
-3.14158

>  <SCORE.INTRA.norm>
0.024289

>  <SCORE.RESTR>
0.023183

>  <SCORE.RESTR.CAVITY>
0.023183

>  <SCORE.RESTR.norm>
0.000626566

>  <SCORE.SYSTEM>
0

>  <SCORE.SYSTEM.CONST>
0

>  <SCORE.SYSTEM.DIHEDRAL>
0

>  <SCORE.SYSTEM.SOLV>
0

>  <SCORE.SYSTEM.norm>
0

>  <SCORE.heavy>
37

>  <SCORE.norm>
-0.26419

>  <RMSD>
14.363

$$$$
1yrj_lig
 OpenBabel11021811423D
libRbt.so/2013.1/901 2013/11/27
 37 40  0  0  0  0  0  0  0  0999 V2000
   29.3049    9.2396   20.0962 C   0  0  1  0  0  0  0  0  0  0  0  0
   30.3469   10.3683   19.9708 C   0  0  1  0  0  0  0  0  0  0  0  0
   30.9885   10.4012   18.5745 C   0  0  0  0  0  0  0  0  0  0  0  0
   31.5956    9.0148   18.2354 C   0  0  1  0  0  0  0  0  0  0  0  0
   30.5088    7.9268   18.3240 C   0  0  1  0  0  0  0  0  0  0  0  0
   31.1525    6.5227   17.9604 C   0  0  1  0  0  0  0  0  0  0  0  0
   31.7390    6.5743   16.5402 C   0  0  1  0  0  0  0  0  0  0  0  0
   32.7871    7.7125   16.4917 C   0  0  2  0  0  0  0  0  0  0  0  0
   32.5926    5.0026   14.7215 C   0  0  0  0  0  0  0  0  0  0  0  0
   29.7741   11.6841   20.2989 N   0  0  0  0  0  0  0  0  0  0  0  0
   32.3031    5.2392   16.1704 N   0  0  0  0  0  0  0  0  0  0  0  0
   28.0730    9.5113   19.4022 O   0  0  0  0  0  0  0  0  0  0  0  0
   29.9229    7.9656   19.6792 O   0  0  0  0  0  0  0  0  0  0  0  0
   32.1934    8.9833   16.8810 O   0  0  0  0  0  0  0  0  0  0  0  0
   32.2188    6.2518   18.8459 O   0  0  0  0  0  0  0  0  0  0  0  0
   33.3402    7.8720   15.1847 O   0  0  0  0  0  0  0  0  0  0  0  0
   34.7222    8.3003   15.1976 C   0  0  2  0  0  0  0  0  0  0  0  0
   35.5876    7.5975   14.1389 C   0  0  1  0  0  0  0  0  0  0  0  0
   35.7857    6.0975   14.4835 C   0  0  2  0  0  0  0  0  0  0  0  0
   36.4104    5.9625   15.8533 C   0  0  1  0  0  0  0  0  0  0  0  0
   35.5028    6.6527   16.8990 C   0  0  1  0  0  0  0  0  0  0  0  0
   36.0840    6.6063   18.3103 C   0  0  0  0  0  0  0  0  0  0  0  0
   36.5817    4.5260   16.1544 N   0  0  0  0  0  0  0  0  0  0  0  0
   35.3183    8.0687   16.5340 O   0  0  0  0  0  0  0  0  0  0  0  0
   34.9716    7.7828   12.8561 O   0  0  0  0  0  0  0  0  0  0  0  0
   36.6570    5.4916   13.5188 O   0  0  0  0  0  0  0  0  0  0  0  0
   35.1214    7.0560   19.2263 O   0  0  0  0  0  0  0  0  0  0  0  0
   27.0387    8.4490   19.0613 C   0  0  1  0  0  0  0  0  0  0  0  0
   27.3677    7.9319   17.6434 C   0  0  1  0  0  0  0  0  0  0  0  0
   26.4067    6.7922   17.2265 C   0  0  2  0  0  0  0  0  0  0  0  0
   26.4989    5.6363   18.2296 C   0  0  1  0  0  0  0  0  0  0  0  0
   26.1350    6.1330   19.6521 C   0  0  0  0  0  0  0  0  0  0  0  0
   27.1076    7.2481   20.0506 C   0  0  2  0  0  0  0  0  0  0  0  0
   25.5698    4.5552   17.8313 N   0  0  0  0  0  0  0  0  0  0  0  0
   26.7442    7.6756   21.3990 N   0  0  0  0  0  0  0  0  0  0  0  0
   27.2309    9.0185   16.7018 O   0  0  0  0  0  0  0  0  0  0  0  0
   26.7742    6.3317   15.9083 O   0  0  0  0  0  0  0  0  0  0  0  0
  1  2  1  0  0  0  0
  1 12  1  6  0  0  0
  1 13  1  0  0  0  0
  2  3  1  0  0  0  0
  2 10  1  6  0  0  0
  4  3  1  6  0  0  0
  4  5  1  0  0  0  0
  4 14  1  0  0  0  0
  5  6  1  0  0  0  0
  5 13  1  1  0  0  0
  6  7  1  0  0  0  0
  6 15  1  1  0  0  0
  7  8  1  0  0  0  0
  7 11  1  1  0  0  0
  8 14  1  0  0  0  0
  8 16  1  6  0  0  0
  9 11  1  0  0  0  0
 17 16  1  1  0  0  0
 17 18  1  0  0  0  0
 17 24  1  0  0  0  0
 18 19  1  0  0  0  0
 18 25  1  6  0  0  0
 19 20  1  0  0  0  0
 19 26  1  6  0  0  0
 20 21  1  0  0  0  0
 20 23  1  1  0  0  0
 21 22  1  1  0  0  0
 21 24  1  0  0  0  0
 22 27  1  0  0  0  0
 28 12  1  1  0  0  0
 28 29  1  0  0  0  0
 28 33  1  0  0  0  0
 29 30  1  0  0  0  0
 29 36  1  6  0  0  0
 30 31  1  0  0  0  0
 30 37  1  6  0  0  0
 31 32  1  0  0  0  0
 31 34  1  6  0  0  0
 32 33  1  0  0  0  0
 33 35  1  1  0  0  0
M  END
>  <CHROM.1>
163.52467435,164.70002386,-147.22834916,139.42587738,-170.72976841,-92.35834200
31.34486128,7.41253306,17.38056399,-2.76139478,-0.20068900,-2.34617924

>  <Name>
1yrj_lig

>  <RI>
0

>  <Rbt.Current_Directory>
/home/itssahil/PROJECTS/Mol_Feturizer/New_Systems/rnas/1yrj

>  <Rbt.Executable>
rbdock ($Id: //depot/dev/client3/rdock/2013.1/src/exe/rbdock.cxx#4 $)

>  <Rbt.Library>
libRbt.so (2013.1, Build901 2013/11/27)

>  <Rbt.Parameter_File>
/export/apps/rDock/src/rDock_2013.1_src/data/scripts/dock_solv.prm

>  <Rbt.Receptor>
prm/blind_docking_40.prm

>  <SCORE>
1.5563

>  <SCORE.INTER>
-3.81717

>  <SCORE.INTER.CONST>
1

>  <SCORE.INTER.POLAR>
-0.913171

>  <SCORE.INTER.ROT>
6

>  <SCORE.INTER.SOLV>
23.0861

>  <SCORE.INTER.VDW>
-14.7963

>  <SCORE.INTER.norm>
-0.103167

>  <SCORE.INTRA>
0.229162

>  <SCORE.INTRA.DIHEDRAL>
-0.196781

>  <SCORE.INTRA.DIHEDRAL.0>
15.6389

>  <SCORE.INTRA.POLAR>
0

>  <SCORE.INTRA.POLAR.0>
0

>  <SCORE.INTRA.REPUL>
0

>  <SCORE.INTRA.REPUL.0>
0

>  <SCORE.INTRA.SOLV>
0.677371

>  <SCORE.INTRA.SOLV.lig_0>
-90.9181

>  <SCORE.INTRA.VDW>
-0.0111332

>  <SCORE.INTRA.VDW.0>
-3.14158

>  <SCORE.INTRA.norm>
0.00619356

>  <SCORE.RESTR>
5.1443

>  <SCORE.RESTR.CAVITY>
5.1443

>  <SCORE.RESTR.norm>
0.139035

>  <SCORE.SYSTEM>
0

>  <SCORE.SYSTEM.CONST>
0

>  <SCORE.SYSTEM.DIHEDRAL>
0

>  <SCORE.SYSTEM.SOLV>
0

>  <SCORE.SYSTEM.norm>
0

>  <SCORE.heavy>
37

>  <SCORE.norm>
0.0420621

>  <RMSD>
14.367

$$$$
1yrj_lig
 OpenBabel11021811423D
libRbt.so/2013.1/901 2013/11/27
 37 40  0  0  0  0  0  0  0  0999 V2000
   29.5296    9.2307   20.1201 C   0  0  1  0  0  0  0  0  0  0  0  0
   30.3951   10.5051   20.0729 C   0  0  1  0  0  0  0  0  0  0  0  0
   31.0334   10.7115   18.6901 C   0  0  0  0  0  0  0  0  0  0  0  0
   31.8398    9.4507   18.2830 C   0  0  1  0  0  0  0  0  0  0  0  0
   30.9242    8.2120   18.2951 C   0  0  1  0  0  0  0  0  0  0  0  0
   31.7695    6.9404   17.8630 C   0  0  1  0  0  0  0  0  0  0  0  0
   32.3507    7.1586   16.4566 C   0  0  1  0  0  0  0  0  0  0  0  0
   33.2204    8.4388   16.4868 C   0  0  2  0  0  0  0  0  0  0  0  0
   32.6131    4.6221   16.5190 C   0  0  0  0  0  0  0  0  0  0  0  0
   29.6332   11.7018   20.4656 N   0  0  0  0  0  0  0  0  0  0  0  0
   33.1072    5.9439   16.0211 N   0  0  0  0  0  0  0  0  0  0  0  0
   28.2754    9.3584   19.4245 O   0  0  0  0  0  0  0  0  0  0  0  0
   30.3306    8.0869   19.6417 O   0  0  0  0  0  0  0  0  0  0  0  0
   32.4440    9.5846   16.9377 O   0  0  0  0  0  0  0  0  0  0  0  0
   32.8586    6.7783   18.7474 O   0  0  0  0  0  0  0  0  0  0  0  0
   33.7521    8.7522   15.1989 O   0  0  0  0  0  0  0  0  0  0  0  0
   35.1925    8.6334   15.1311 C   0  0  2  0  0  0  0  0  0  0  0  0
   35.6702    7.5912   14.1068 C   0  0  1  0  0  0  0  0  0  0  0  0
   35.3203    6.1514   14.5683 C   0  0  2  0  0  0  0  0  0  0  0  0
   35.9334    5.8823   15.9234 C   0  0  1  0  0  0  0  0  0  0  0  0
   35.4112    6.9278   16.9371 C   0  0  1  0  0  0  0  0  0  0  0  0
   36.0191    6.7596   18.3278 C   0  0  0  0  0  0  0  0  0  0  0  0
   35.5795    4.5086   16.3371 N   0  0  0  0  0  0  0  0  0  0  0  0
   35.7413    8.2834   16.4620 O   0  0  0  0  0  0  0  0  0  0  0  0
   35.0892    7.9093   12.8339 O   0  0  0  0  0  0  0  0  0  0  0  0
   35.8451    5.2028   13.6293 O   0  0  0  0  0  0  0  0  0  0  0  0
   37.2361    7.4544   18.3922 O   0  0  0  0  0  0  0  0  0  0  0  0
   27.3180    8.2014   19.1813 C   0  0  1  0  0  0  0  0  0  0  0  0
   27.5340    7.7300   17.7263 C   0  0  1  0  0  0  0  0  0  0  0  0
   26.6482    6.5038   17.3980 C   0  0  2  0  0  0  0  0  0  0  0  0
   26.9652    5.3553   18.3630 C   0  0  1  0  0  0  0  0  0  0  0  0
   26.7172    5.8029   19.8262 C   0  0  0  0  0  0  0  0  0  0  0  0
   27.6148    7.0059   20.1344 C   0  0  2  0  0  0  0  0  0  0  0  0
   26.1072    4.1905   18.0507 N   0  0  0  0  0  0  0  0  0  0  0  0
   27.3657    7.3853   21.5225 N   0  0  0  0  0  0  0  0  0  0  0  0
   27.1867    8.8047   16.8261 O   0  0  0  0  0  0  0  0  0  0  0  0
   26.9080    6.0918   16.0388 O   0  0  0  0  0  0  0  0  0  0  0  0
  1  2  1  0  0  0  0
  1 12  1  6  0  0  0
  1 13  1  0  0  0  0
  2  3  1  0  0  0  0
  2 10  1  6  0  0  0
  4  3  1  6  0  0  0
  4  5  1  0  0  0  0
  4 14  1  0  0  0  0
  5  6  1  0  0  0  0
  5 13  1  1  0  0  0
  6  7  1  0  0  0  0
  6 15  1  1  0  0  0
  7  8  1  0  0  0  0
  7 11  1  1  0  0  0
  8 14  1  0  0  0  0
  8 16  1  6  0  0  0
  9 11  1  0  0  0  0
 17 16  1  1  0  0  0
 17 18  1  0  0  0  0
 17 24  1  0  0  0  0
 18 19  1  0  0  0  0
 18 25  1  6  0  0  0
 19 20  1  0  0  0  0
 19 26  1  6  0  0  0
 20 21  1  0  0  0  0
 20 23  1  1  0  0  0
 21 22  1  1  0  0  0
 21 24  1  0  0  0  0
 22 27  1  0  0  0  0
 28 12  1  1  0  0  0
 28 29  1  0  0  0  0
 28 33  1  0  0  0  0
 29 30  1  0  0  0  0
 29 36  1  6  0  0  0
 30 31  1  0  0  0  0
 30 37  1  6  0  0  0
 31 32  1  0  0  0  0
 31 34  1  6  0  0  0
 32 33  1  0  0  0  0
 33 35  1  1  0  0  0
M  END
>  <CHROM.1>
172.43929279,32.05055393,-113.74098075,119.18370302,86.23365083,-100.29314956
31.59337472,7.51369095,17.45233995,-2.83707321,-0.28942094,-2.49735347

>  <Name>
1yrj_lig

>  <RI>
0

>  <Rbt.Current_Directory>
/home/itssahil/PROJECTS/Mol_Feturizer/New_Systems/rnas/1yrj

>  <Rbt.Executable>
rbdock ($Id: //depot/dev/client3/rdock/2013.1/src/exe/rbdock.cxx#4 $)

>  <Rbt.Library>
libRbt.so (2013.1, Build901 2013/11/27)

>  <Rbt.Parameter_File>
/export/apps/rDock/src/rDock_2013.1_src/data/scripts/dock_solv.prm

>  <Rbt.Receptor>
prm/blind_docking_40.prm

>  <SCORE>
14.6044

>  <SCORE.INTER>
-3.89872

>  <SCORE.INTER.CONST>
1

>  <SCORE.INTER.POLAR>
-1.39823

>  <SCORE.INTER.ROT>
6

>  <SCORE.INTER.SOLV>
21.9531

>  <SCORE.INTER.VDW>
-12.8561

>  <SCORE.INTER.norm>
-0.105371

>  <SCORE.INTRA>
12.706

>  <SCORE.INTRA.DIHEDRAL>
6.98572

>  <SCORE.INTRA.DIHEDRAL.0>
15.6389

>  <SCORE.INTRA.POLAR>
0

>  <SCORE.INTRA.POLAR.0>
0

>  <SCORE.INTRA.REPUL>
0

>  <SCORE.INTRA.REPUL.0>
0

>  <SCORE.INTRA.SOLV>
4.84425

>  <SCORE.INTRA.SOLV.lig_0>
-90.9181

>  <SCORE.INTRA.VDW>
6.791

>  <SCORE.INTRA.VDW.0>
-3.14158

>  <SCORE.INTRA.norm>
0.343405

>  <SCORE.RESTR>
5.79712

>  <SCORE.RESTR.CAVITY>
5.79712

>  <SCORE.RESTR.norm>
0.156679

>  <SCORE.SYSTEM>
0

>  <SCORE.SYSTEM.CONST>
0

>  <SCORE.SYSTEM.DIHEDRAL>
0

>  <SCORE.SYSTEM.SOLV>
0

>  <SCORE.SYSTEM.norm>
0

>  <SCORE.heavy>
37

>  <SCORE.norm>
0.394713

>  <RMSD>
14.371

$$$$
1yrj_lig
 OpenBabel11021811423D
libRbt.so/2013.1/901 2013/11/27
 37 40  0  0  0  0  0  0  0  0999 V2000
   30.3257    9.6709   20.3661 C   0  0  1  0  0  0  0  0  0  0  0  0
   30.6832   10.7608   19.3366 C   0  0  1  0  0  0  0  0  0  0  0  0
   31.4436   10.1822   18.1327 C   0  0  0  0  0  0  0  0  0  0  0  0
   32.6995    9.4117   18.6172 C   0  0  1  0  0  0  0  0  0  0  0  0
   32.2897    8.3017   19.6036 C   0  0  1  0  0  0  0  0  0  0  0  0
   33.5895    7.5219   20.0729 C   0  0  1  0  0  0  0  0  0  0  0  0
   34.2975    6.9134   18.8515 C   0  0  1  0  0  0  0  0  0  0  0  0
   34.6430    8.0613   17.8721 C   0  0  2  0  0  0  0  0  0  0  0  0
   35.2732    4.7053   19.6754 C   0  0  0  0  0  0  0  0  0  0  0  0
   29.4932   11.4977   18.8806 N   0  0  0  0  0  0  0  0  0  0  0  0
   35.4964    6.1339   19.2903 N   0  0  0  0  0  0  0  0  0  0  0  0
   29.2513    8.8095   19.9456 O   0  0  0  0  0  0  0  0  0  0  0  0
   31.5483    8.9232   20.7196 O   0  0  0  0  0  0  0  0  0  0  0  0
   33.4472    8.8007   17.4947 O   0  0  0  0  0  0  0  0  0  0  0  0
   34.4906    8.4295   20.6721 O   0  0  0  0  0  0  0  0  0  0  0  0
   35.2510    7.5752   16.6747 O   0  0  0  0  0  0  0  0  0  0  0  0
   35.6111    8.6274   15.7491 C   0  0  2  0  0  0  0  0  0  0  0  0
   35.3321    8.2685   14.2804 C   0  0  1  0  0  0  0  0  0  0  0  0
   36.2935    7.1562   13.7836 C   0  0  2  0  0  0  0  0  0  0  0  0
   37.7278    7.6005   13.9574 C   0  0  1  0  0  0  0  0  0  0  0  0
   37.9850    7.9255   15.4479 C   0  0  1  0  0  0  0  0  0  0  0  0
   39.4022    8.4309   15.7079 C   0  0  0  0  0  0  0  0  0  0  0  0
   38.6173    6.5210   13.4810 N   0  0  0  0  0  0  0  0  0  0  0  0
   37.0452    8.9695   15.8944 O   0  0  0  0  0  0  0  0  0  0  0  0
   33.9539    7.8870   14.1624 O   0  0  0  0  0  0  0  0  0  0  0  0
   36.0567    6.8995   12.3926 O   0  0  0  0  0  0  0  0  0  0  0  0
   39.5527    8.7165   17.0731 O   0  0  0  0  0  0  0  0  0  0  0  0
   29.4259    7.3352   19.6134 C   0  0  1  0  0  0  0  0  0  0  0  0
   29.4782    6.5696   20.9540 C   0  0  1  0  0  0  0  0  0  0  0  0
   29.5878    5.0430   20.7226 C   0  0  2  0  0  0  0  0  0  0  0  0
   28.3935    4.5515   19.8961 C   0  0  1  0  0  0  0  0  0  0  0  0
   28.3499    5.2855   18.5316 C   0  0  0  0  0  0  0  0  0  0  0  0
   28.2251    6.7918   18.7837 C   0  0  2  0  0  0  0  0  0  0  0  0
   28.5103    3.0937   19.6693 N   0  0  0  0  0  0  0  0  0  0  0  0
   28.1692    7.4443   17.4783 N   0  0  0  0  0  0  0  0  0  0  0  0
   30.6337    7.0072   21.7019 O   0  0  0  0  0  0  0  0  0  0  0  0
   29.6079    4.3778   22.0040 O   0  0  0  0  0  0  0  0  0  0  0  0
  1  2  1  0  0  0  0
  1 12  1  6  0  0  0
  1 13  1  0  0  0  0
  2  3  1  0  0  0  0
  2 10  1  6  0  0  0
  4  3  1  6  0  0  0
  4  5  1  0  0  0  0
  4 14  1  0  0  0  0
  5  6  1  0  0  0  0
  5 13  1  1  0  0  0
  6  7  1  0  0  0  0
  6 15  1  6  0  0  0
  7  8  1  0  0  0  0
  7 11  1  1  0  0  0
  8 14  1  0  0  0  0
  8 16  1  6  0  0  0
  9 11  1  0  0  0  0
 17 16  1  1  0  0  0
 17 18  1  0  0  0  0
 17 24  1  0  0  0  0
 18 19  1  0  0  0  0
 18 25  1  1  0  0  0
 19 20  1  0  0  0  0
 19 26  1  6  0  0  0
 20 21  1  0  0  0  0
 20 23  1  1  0  0  0
 21 22  1  6  0  0  0
 21 24  1  0  0  0  0
 22 27  1  0  0  0  0
 28 12  1  1  0  0  0
 28 29  1  0  0  0  0
 28 33  1  0  0  0  0
 29 30  1  0  0  0  0
 29 36  1  1  0  0  0
 30 31  1  0  0  0  0
 30 37  1  1  0  0  0
 31 32  1  0  0  0  0
 31 34  1  6  0  0  0
 32 33  1  0  0  0  0
 33 35  1  6  0  0  0
M  END
>  <CHROM.1>
112.34416186,86.54444299,-178.81896835,-140.05141607,179.35969196,79.34732203
33.07412888,7.57584066,18.04222293,3.02565278,-0.56628735,3.12935306

>  <Name>
1yrj_lig

>  <RI>
0

>  <Rbt.Current_Directory>
/home/itssahil/PROJECTS/Mol_Feturizer/New_Systems/rnas/1yrj

>  <Rbt.Executable>
rbdock ($Id: //depot/dev/client3/rdock/2013.1/src/exe/rbdock.cxx#4 $)

>  <Rbt.Library>
libRbt.so (2013.1, Build901 2013/11/27)

>  <Rbt.Parameter_File>
/export/apps/rDock/src/rDock_2013.1_src/data/scripts/dock_solv.prm

>  <Rbt.Receptor>
prm/blind_docking_100.prm

>  <SCORE>
-6.87829

>  <SCORE.INTER>
-7.5778

>  <SCORE.INTER.CONST>
1

>  <SCORE.INTER.POLAR>
-0.870271

>  <SCORE.INTER.ROT>
6

>  <SCORE.INTER.SOLV>
12.9775

>  <SCORE.INTER.VDW>
-14.0768

>  <SCORE.INTER.norm>
-0.204805

>  <SCORE.INTRA>
0.228787

>  <SCORE.INTRA.DIHEDRAL>
-1.18755

>  <SCORE.INTRA.DIHEDRAL.0>
15.6389

>  <SCORE.INTRA.POLAR>
0

>  <SCORE.INTRA.POLAR.0>
0

>  <SCORE.INTRA.REPUL>
0

>  <SCORE.INTRA.REPUL.0>
0

>  <SCORE.INTRA.SOLV>
-1.84015

>  <SCORE.INTRA.SOLV.lig_0>
-90.9181

>  <SCORE.INTRA.VDW>
1.74264

>  <SCORE.INTRA.VDW.0>
-3.14158

>  <SCORE.INTRA.norm>
0.00618344

>  <SCORE.RESTR>
0.470723

>  <SCORE.RESTR.CAVITY>
0.470723

>  <SCORE.RESTR.norm>
0.0127222

>  <SCORE.SYSTEM>
0

>  <SCORE.SYSTEM.CONST>
0

>  <SCORE.SYSTEM.DIHEDRAL>
0

>  <SCORE.SYSTEM.SOLV>
0

>  <SCORE.SYSTEM.norm>
0

>  <SCORE.heavy>
37

>  <SCORE.norm>
-0.1859

>  <RMSD>
14.386

$$$$
1yrj_lig
 OpenBabel11021811423D
libRbt.so/2013.1/901 2013/11/27
 37 40  0  0  0  0  0  0  0  0999 V2000
   35.9114    6.9971   15.4575 C   0  0  1  0  0  0  0  0  0  0  0  0
   35.0582    6.0698   14.5700 C   0  0  1  0  0  0  0  0  0  0  0  0
   33.5564    6.3628   14.7153 C   0  0  0  0  0  0  0  0  0  0  0  0
   33.1398    6.2778   16.2069 C   0  0  1  0  0  0  0  0  0  0  0  0
   33.9825    7.2564   17.0467 C   0  0  1  0  0  0  0  0  0  0  0  0
   33.5280    7.1591   18.5639 C   0  0  1  0  0  0  0  0  0  0  0  0
   32.0351    7.5073   18.6805 C   0  0  1  0  0  0  0  0  0  0  0  0
   31.2396    6.5291   17.7824 C   0  0  2  0  0  0  0  0  0  0  0  0
   31.9248    8.6686   20.9489 C   0  0  0  0  0  0  0  0  0  0  0  0
   35.4567    6.1439   13.1549 N   0  0  0  0  0  0  0  0  0  0  0  0
   31.6104    7.4671   20.1141 N   0  0  0  0  0  0  0  0  0  0  0  0
   36.0019    8.3465   14.9634 O   0  0  0  0  0  0  0  0  0  0  0  0
   35.4091    6.9323   16.8440 O   0  0  0  0  0  0  0  0  0  0  0  0
   31.7062    6.5910   16.4049 O   0  0  0  0  0  0  0  0  0  0  0  0
   33.6864    5.8309   19.0170 O   0  0  0  0  0  0  0  0  0  0  0  0
   29.8419    6.8223   17.7828 O   0  0  0  0  0  0  0  0  0  0  0  0
   29.0229    5.7005   18.1885 C   0  0  2  0  0  0  0  0  0  0  0  0
   27.5159    5.9547   18.0214 C   0  0  1  0  0  0  0  0  0  0  0  0
   27.0111    7.0149   19.0361 C   0  0  2  0  0  0  0  0  0  0  0  0
   27.3198    6.5656   20.4459 C   0  0  1  0  0  0  0  0  0  0  0  0
   28.8445    6.3471   20.5902 C   0  0  1  0  0  0  0  0  0  0  0  0
   29.2422    5.8434   21.9759 C   0  0  0  0  0  0  0  0  0  0  0  0
   26.8325    7.5954   21.3868 N   0  0  0  0  0  0  0  0  0  0  0  0
   29.2959    5.3511   19.6020 O   0  0  0  0  0  0  0  0  0  0  0  0
   27.2712    6.3446   16.6623 O   0  0  0  0  0  0  0  0  0  0  0  0
   25.5917    7.1721   18.9037 O   0  0  0  0  0  0  0  0  0  0  0  0
   30.6371    5.7100   22.0413 O   0  0  0  0  0  0  0  0  0  0  0  0
   36.4742    9.5266   15.7993 C   0  0  1  0  0  0  0  0  0  0  0  0
   37.9262    9.8348   15.3721 C   0  0  1  0  0  0  0  0  0  0  0  0
   38.4796   11.0709   16.1218 C   0  0  2  0  0  0  0  0  0  0  0  0
   37.5926   12.2909   15.8463 C   0  0  1  0  0  0  0  0  0  0  0  0
   36.1389   12.0088   16.3045 C   0  0  0  0  0  0  0  0  0  0  0  0
   35.6060   10.7931   15.5391 C   0  0  2  0  0  0  0  0  0  0  0  0
   38.1209   13.4660   16.5747 N   0  0  0  0  0  0  0  0  0  0  0  0
   34.2328   10.5714   15.9842 N   0  0  0  0  0  0  0  0  0  0  0  0
   38.7600    8.6965   15.6803 O   0  0  0  0  0  0  0  0  0  0  0  0
   39.8259   11.3273   15.6673 O   0  0  0  0  0  0  0  0  0  0  0  0
  1  2  1  0  0  0  0
  1 12  1  6  0  0  0
  1 13  1  0  0  0  0
  2  3  1  0  0  0  0
  2 10  1  6  0  0  0
  4  3  1  6  0  0  0
  4  5  1  0  0  0  0
  4 14  1  0  0  0  0
  5  6  1  0  0  0  0
  5 13  1  1  0  0  0
  6  7  1  0  0  0  0
  6 15  1  6  0  0  0
  7  8  1  0  0  0  0
  7 11  1  1  0  0  0
  8 14  1  0  0  0  0
  8 16  1  6  0  0  0
  9 11  1  0  0  0  0
 17 16  1  1  0  0  0
 17 18  1  0  0  0  0
 17 24  1  0  0  0  0
 18 19  1  0  0  0  0
 18 25  1  6  0  0  0
 19 20  1  0  0  0  0
 19 26  1  1  0  0  0
 20 21  1  0  0  0  0
 20 23  1  1  0  0  0
 21 22  1  1  0  0  0
 21 24  1  0  0  0  0
 22 27  1  0  0  0  0
 28 12  1  6  0  0  0
 28 29  1  0  0  0  0
 28 33  1  0  0  0  0
 29 30  1  0  0  0  0
 29 36  1  1  0  0  0
 30 31  1  0  0  0  0
 30 37  1  6  0  0  0
 31 32  1  0  0  0  0
 31 34  1  1  0  0  0
 32 33  1  0  0  0  0
 33 35  1  1  0  0  0
M  END
>  <CHROM.1>
164.11267638,80.71661139,-123.52774831,-172.75728864,-178.18791138,102.86964509
32.84152998,7.81714781,17.53208471,0.05288115,-0.53627117,-2.30085171

>  <Name>
1yrj_lig

>  <RI>
0

>  <Rbt.Current_Directory>
/home/itssahil/PROJECTS/Mol_Feturizer/New_Systems/rnas/1yrj

>  <Rbt.Executable>
rbdock ($Id: //depot/dev/client3/rdock/2013.1/src/exe/rbdock.cxx#4 $)

>  <Rbt.Library>
libRbt.so (2013.1, Build901 2013/11/27)

>  <Rbt.Parameter_File>
/export/apps/rDock/src/rDock_2013.1_src/data/scripts/dock_solv.prm

>  <Rbt.Receptor>
prm/blind_docking_100.prm

>  <SCORE>
-16.0287

>  <SCORE.INTER>
-14.8136

>  <SCORE.INTER.CONST>
1

>  <SCORE.INTER.POLAR>
-1.36645

>  <SCORE.INTER.ROT>
6

>  <SCORE.INTER.SOLV>
19.7726

>  <SCORE.INTER.VDW>
-19.5118

>  <SCORE.INTER.norm>
-0.400367

>  <SCORE.INTRA>
-1.23596

>  <SCORE.INTRA.DIHEDRAL>
-0.844675

>  <SCORE.INTRA.DIHEDRAL.0>
15.6389

>  <SCORE.INTRA.POLAR>
0

>  <SCORE.INTRA.POLAR.0>
0

>  <SCORE.INTRA.REPUL>
0

>  <SCORE.INTRA.REPUL.0>
0

>  <SCORE.INTRA.SOLV>
0.648947

>  <SCORE.INTRA.SOLV.lig_0>
-90.9181

>  <SCORE.INTRA.VDW>
-1.1381

>  <SCORE.INTRA.VDW.0>
-3.14158

>  <SCORE.INTRA.norm>
-0.0334044

>  <SCORE.RESTR>
0.020864

>  <SCORE.RESTR.CAVITY>
0.020864

>  <SCORE.RESTR.norm>
0.000563892

>  <SCORE.SYSTEM>
0

>  <SCORE.SYSTEM.CONST>
0

>  <SCORE.SYSTEM.DIHEDRAL>
0

>  <SCORE.SYSTEM.SOLV>
0

>  <SCORE.SYSTEM.norm>
0

>  <SCORE.heavy>
37

>  <SCORE.norm>
-0.433208

>  <RMSD>
14.396

$$$$
1yrj_lig
 OpenBabel11021811423D
libRbt.so/2013.1/901 2013/11/27
 37 40  0  0  0  0  0  0  0  0999 V2000
   30.8289    9.5639   20.3545 C   0  0  1  0  0  0  0  0  0  0  0  0
   31.2288   10.5588   19.2474 C   0  0  1  0  0  0  0  0  0  0  0  0
   31.2439    9.8952   17.8611 C   0  0  0  0  0  0  0  0  0  0  0  0
   32.1670    8.6489   17.8780 C   0  0  1  0  0  0  0  0  0  0  0  0
   31.7000    7.6611   18.9639 C   0  0  1  0  0  0  0  0  0  0  0  0
   32.6518    6.3915   18.9511 C   0  0  1  0  0  0  0  0  0  0  0  0
   32.6044    5.7227   17.5677 C   0  0  1  0  0  0  0  0  0  0  0  0
   33.0340    6.7688   16.5106 C   0  0  2  0  0  0  0  0  0  0  0  0
   32.9775    3.3355   16.7500 C   0  0  0  0  0  0  0  0  0  0  0  0
   30.3579   11.7455   19.2341 N   0  0  0  0  0  0  0  0  0  0  0  0
   33.4600    4.4958   17.5624 N   0  0  0  0  0  0  0  0  0  0  0  0
   29.4263    9.2386   20.3596 O   0  0  0  0  0  0  0  0  0  0  0  0
   31.6891    8.3680   20.2606 O   0  0  0  0  0  0  0  0  0  0  0  0
   32.1854    7.9499   16.5728 O   0  0  0  0  0  0  0  0  0  0  0  0
   33.9847    6.8019   19.1741 O   0  0  0  0  0  0  0  0  0  0  0  0
   32.9584    6.2471   15.1834 O   0  0  0  0  0  0  0  0  0  0  0  0
   33.5527    7.1181   14.1925 C   0  0  2  0  0  0  0  0  0  0  0  0
   34.8764    6.5807   13.6246 C   0  0  1  0  0  0  0  0  0  0  0  0
   35.9995    6.6142   14.6951 C   0  0  2  0  0  0  0  0  0  0  0  0
   36.1773    8.0241   15.2102 C   0  0  1  0  0  0  0  0  0  0  0  0
   34.8381    8.5248   15.8011 C   0  0  1  0  0  0  0  0  0  0  0  0
   34.9139    9.9648   16.3035 C   0  0  0  0  0  0  0  0  0  0  0  0
   37.2476    8.0228   16.2290 N   0  0  0  0  0  0  0  0  0  0  0  0
   33.7891    8.4629   14.7676 O   0  0  0  0  0  0  0  0  0  0  0  0
   34.6474    5.2573   13.1196 O   0  0  0  0  0  0  0  0  0  0  0  0
   37.2351    6.1781   14.1120 O   0  0  0  0  0  0  0  0  0  0  0  0
   33.6189   10.4969   16.3924 O   0  0  0  0  0  0  0  0  0  0  0  0
   28.7722    8.2864   19.3697 C   0  0  1  0  0  0  0  0  0  0  0  0
   28.4498    6.9844   20.1358 C   0  0  1  0  0  0  0  0  0  0  0  0
   27.7161    5.9680   19.2276 C   0  0  2  0  0  0  0  0  0  0  0  0
   26.4181    6.5849   18.6931 C   0  0  1  0  0  0  0  0  0  0  0  0
   26.7302    7.8735   17.8901 C   0  0  0  0  0  0  0  0  0  0  0  0
   27.4408    8.8706   18.8114 C   0  0  2  0  0  0  0  0  0  0  0  0
   25.7276    5.6122   17.8171 N   0  0  0  0  0  0  0  0  0  0  0  0
   27.7009   10.0739   18.0256 N   0  0  0  0  0  0  0  0  0  0  0  0
   29.6835    6.3885   20.5928 O   0  0  0  0  0  0  0  0  0  0  0  0
   27.4183    4.7842   19.9989 O   0  0  0  0  0  0  0  0  0  0  0  0
  1  2  1  0  0  0  0
  1 12  1  6  0  0  0
  1 13  1  0  0  0  0
  2  3  1  0  0  0  0
  2 10  1  6  0  0  0
  4  3  1  6  0  0  0
  4  5  1  0  0  0  0
  4 14  1  0  0  0  0
  5  6  1  0  0  0  0
  5 13  1  1  0  0  0
  6  7  1  0  0  0  0
  6 15  1  6  0  0  0
  7  8  1  0  0  0  0
  7 11  1  1  0  0  0
  8 14  1  0  0  0  0
  8 16  1  6  0  0  0
  9 11  1  0  0  0  0
 17 16  1  1  0  0  0
 17 18  1  0  0  0  0
 17 24  1  0  0  0  0
 18 19  1  0  0  0  0
 18 25  1  1  0  0  0
 19 20  1  0  0  0  0
 19 26  1  6  0  0  0
 20 21  1  0  0  0  0
 20 23  1  1  0  0  0
 21 22  1  6  0  0  0
 21 24  1  0  0  0  0
 22 27  1  0  0  0  0
 28 12  1  1  0  0  0
 28 29  1  0  0  0  0
 28 33  1  0  0  0  0
 29 30  1  0  0  0  0
 29 36  1  6  0  0  0
 30 31  1  0  0  0  0
 30 37  1  1  0  0  0
 31 32  1  0  0  0  0
 31 34  1  6  0  0  0
 32 33  1  0  0  0  0
 33 35  1  6  0  0  0
M  END
>  <CHROM.1>
76.64535580,144.36932461,-170.65454869,108.59606953,160.04922968,106.94238874
31.80155970,7.54909889,17.48619685,-2.90415569,-0.48984437,-2.80980249

>  <Name>
1yrj_lig

>  <RI>
0

>  <Rbt.Current_Directory>
/home/itssahil/PROJECTS/Mol_Feturizer/New_Systems/rnas/1yrj

>  <Rbt.Executable>
rbdock ($Id: //depot/dev/client3/rdock/2013.1/src/exe/rbdock.cxx#4 $)

>  <Rbt.Library>
libRbt.so (2013.1, Build901 2013/11/27)

>  <Rbt.Parameter_File>
/export/apps/rDock/src/rDock_2013.1_src/data/scripts/dock_solv.prm

>  <Rbt.Receptor>
prm/blind_docking_40.prm

>  <SCORE>
3.90686

>  <SCORE.INTER>
-6.78317

>  <SCORE.INTER.CONST>
1

>  <SCORE.INTER.POLAR>
-0.994949

>  <SCORE.INTER.ROT>
6

>  <SCORE.INTER.SOLV>
9.51857

>  <SCORE.INTER.VDW>
-11.9785

>  <SCORE.INTER.norm>
-0.183329

>  <SCORE.INTRA>
6.06318

>  <SCORE.INTRA.DIHEDRAL>
1.15696

>  <SCORE.INTRA.DIHEDRAL.0>
15.6389

>  <SCORE.INTRA.POLAR>
0

>  <SCORE.INTRA.POLAR.0>
0

>  <SCORE.INTRA.REPUL>
0

>  <SCORE.INTRA.REPUL.0>
0

>  <SCORE.INTRA.SOLV>
3.04447

>  <SCORE.INTRA.SOLV.lig_0>
-90.9181

>  <SCORE.INTRA.VDW>
3.96247

>  <SCORE.INTRA.VDW.0>
-3.14158

>  <SCORE.INTRA.norm>
0.16387

>  <SCORE.RESTR>
4.62684

>  <SCORE.RESTR.CAVITY>
4.62684

>  <SCORE.RESTR.norm>
0.12505

>  <SCORE.SYSTEM>
0

>  <SCORE.SYSTEM.CONST>
0

>  <SCORE.SYSTEM.DIHEDRAL>
0

>  <SCORE.SYSTEM.SOLV>
0

>  <SCORE.SYSTEM.norm>
0

>  <SCORE.heavy>
37

>  <SCORE.norm>
0.105591

>  <RMSD>
14.404

$$$$
1yrj_lig
 OpenBabel11021811423D
libRbt.so/2013.1/901 2013/11/27
 37 40  0  0  0  0  0  0  0  0999 V2000
   36.2869    6.6056   15.5004 C   0  0  1  0  0  0  0  0  0  0  0  0
   35.3305    5.8612   14.5482 C   0  0  1  0  0  0  0  0  0  0  0  0
   33.8575    6.1618   14.8679 C   0  0  0  0  0  0  0  0  0  0  0  0
   33.5592    5.8379   16.3551 C   0  0  1  0  0  0  0  0  0  0  0  0
   34.5033    6.6411   17.2697 C   0  0  1  0  0  0  0  0  0  0  0  0
   34.1688    6.3015   18.7833 C   0  0  1  0  0  0  0  0  0  0  0  0
   32.7044    6.6611   19.0831 C   0  0  1  0  0  0  0  0  0  0  0  0
   31.8026    5.8670   18.1072 C   0  0  2  0  0  0  0  0  0  0  0  0
   32.7847    7.4459   21.5089 C   0  0  0  0  0  0  0  0  0  0  0  0
   35.6165    6.1621   13.1359 N   0  0  0  0  0  0  0  0  0  0  0  0
   32.3951    6.3912   20.5215 N   0  0  0  0  0  0  0  0  0  0  0  0
   36.3888    8.0161   15.2300 O   0  0  0  0  0  0  0  0  0  0  0  0
   35.8956    6.3211   16.8949 O   0  0  0  0  0  0  0  0  0  0  0  0
   32.1590    6.1479   16.7241 O   0  0  0  0  0  0  0  0  0  0  0  0
   34.3124    4.9127   18.9956 O   0  0  0  0  0  0  0  0  0  0  0  0
   30.4217    6.1896   18.2757 O   0  0  0  0  0  0  0  0  0  0  0  0
   30.0411    7.4267   17.6289 C   0  0  2  0  0  0  0  0  0  0  0  0
   29.6900    8.5490   18.6193 C   0  0  1  0  0  0  0  0  0  0  0  0
   28.3672    8.2399   19.3697 C   0  0  2  0  0  0  0  0  0  0  0  0
   27.2463    8.0407   18.3754 C   0  0  1  0  0  0  0  0  0  0  0  0
   27.6160    6.8873   17.4129 C   0  0  1  0  0  0  0  0  0  0  0  0
   26.5560    6.6481   16.3401 C   0  0  0  0  0  0  0  0  0  0  0  0
   26.0038    7.7441   19.1182 N   0  0  0  0  0  0  0  0  0  0  0  0
   28.8844    7.2012   16.7310 O   0  0  0  0  0  0  0  0  0  0  0  0
   30.7958    8.7214   19.5175 O   0  0  0  0  0  0  0  0  0  0  0  0
   28.0311    9.3387   20.2279 O   0  0  0  0  0  0  0  0  0  0  0  0
   25.4046    6.1096   16.9336 O   0  0  0  0  0  0  0  0  0  0  0  0
   36.7810    9.0537   16.2711 C   0  0  1  0  0  0  0  0  0  0  0  0
   38.2351    8.7479   16.6931 C   0  0  1  0  0  0  0  0  0  0  0  0
   38.7553    9.7949   17.7077 C   0  0  2  0  0  0  0  0  0  0  0  0
   38.6820   11.1988   17.0956 C   0  0  1  0  0  0  0  0  0  0  0  0
   37.2210   11.5339   16.7008 C   0  0  0  0  0  0  0  0  0  0  0  0
   36.7324   10.4959   15.6851 C   0  0  2  0  0  0  0  0  0  0  0  0
   39.1702   12.1957   18.0745 N   0  0  0  0  0  0  0  0  0  0  0  0
   35.3632   10.8554   15.3259 N   0  0  0  0  0  0  0  0  0  0  0  0
   38.2822    7.4433   17.3111 O   0  0  0  0  0  0  0  0  0  0  0  0
   40.1218    9.4757   18.0474 O   0  0  0  0  0  0  0  0  0  0  0  0
  1  2  1  0  0  0  0
  1 12  1  6  0  0  0
  1 13  1  0  0  0  0
  2  3  1  0  0  0  0
  2 10  1  6  0  0  0
  4  3  1  6  0  0  0
  4  5  1  0  0  0  0
  4 14  1  0  0  0  0
  5  6  1  0  0  0  0
  5 13  1  6  0  0  0
  6  7  1  0  0  0  0
  6 15  1  6  0  0  0
  7  8  1  0  0  0  0
  7 11  1  1  0  0  0
  8 14  1  0  0  0  0
  8 16  1  6  0  0  0
  9 11  1  0  0  0  0
 17 16  1  1  0  0  0
 17 18  1  0  0  0  0
 17 24  1  0  0  0  0
 18 19  1  0  0  0  0
 18 25  1  1  0  0  0
 19 20  1  0  0  0  0
 19 26  1  1  0  0  0
 20 21  1  0  0  0  0
 20 23  1  1  0  0  0
 21 22  1  6  0  0  0
 21 24  1  0  0  0  0
 22 27  1  0  0  0  0
 28 12  1  6  0  0  0
 28 29  1  0  0  0  0
 28 33  1  0  0  0  0
 29 30  1  0  0  0  0
 29 36  1  1  0  0  0
 30 31  1  0  0  0  0
 30 37  1  6  0  0  0
 31 32  1  0  0  0  0
 31 34  1  1  0  0  0
 32 33  1  0  0  0  0
 33 35  1  1  0  0  0
M  END
>  <CHROM.1>
154.89945086,82.47435661,79.80316004,-111.21629679,-69.65451312,64.36670376
33.21770466,7.74086683,17.45531958,-0.02701647,-0.24605134,-2.36419321

>  <Name>
1yrj_lig

>  <RI>
224

>  <Rbt.Current_Directory>
/home/itssahil/PROJECTS/Mol_Feturizer/New_Systems/rnas/1yrj

>  <Rbt.Executable>
rbdock ($Id: //depot/dev/client3/rdock/2013.1/src/exe/rbdock.cxx#4 $)

>  <Rbt.Library>
libRbt.so (2013.1, Build901 2013/11/27)

>  <Rbt.Parameter_File>
/export/apps/rDock/src/rDock_2013.1_src/data/scripts/dock_solv.prm

>  <Rbt.Receptor>
prm/blind_docking_80.prm

>  <SCORE>
-13.8205

>  <SCORE.INTER>
-14.3117

>  <SCORE.INTER.CONST>
1

>  <SCORE.INTER.POLAR>
-1.3361

>  <SCORE.INTER.ROT>
6

>  <SCORE.INTER.SOLV>
18.9648

>  <SCORE.INTER.VDW>
-19.0091

>  <SCORE.INTER.norm>
-0.386802

>  <SCORE.INTRA>
-0.609518

>  <SCORE.INTRA.DIHEDRAL>
-3.54709

>  <SCORE.INTRA.DIHEDRAL.0>
15.6389

>  <SCORE.INTRA.POLAR>
0

>  <SCORE.INTRA.POLAR.0>
0

>  <SCORE.INTRA.REPUL>
0

>  <SCORE.INTRA.REPUL.0>
0

>  <SCORE.INTRA.SOLV>
-0.291921

>  <SCORE.INTRA.SOLV.lig_0>
-90.9181

>  <SCORE.INTRA.VDW>
1.30999

>  <SCORE.INTRA.VDW.0>
-3.14158

>  <SCORE.INTRA.norm>
-0.0164735

>  <SCORE.RESTR>
1.10075

>  <SCORE.RESTR.CAVITY>
1.10075

>  <SCORE.RESTR.norm>
0.0297499

>  <SCORE.SYSTEM>
0

>  <SCORE.SYSTEM.CONST>
0

>  <SCORE.SYSTEM.DIHEDRAL>
0

>  <SCORE.SYSTEM.SOLV>
0

>  <SCORE.SYSTEM.norm>
0

>  <SCORE.heavy>
37

>  <SCORE.norm>
-0.373526

>  <RMSD>
14.409

$$$$
1yrj_lig
 OpenBabel11021811423D
libRbt.so/2013.1/901 2013/11/27
 37 40  0  0  0  0  0  0  0  0999 V2000
   31.1420    8.7636   20.4243 C   0  0  1  0  0  0  0  0  0  0  0  0
   31.7127   10.1655   20.1336 C   0  0  1  0  0  0  0  0  0  0  0  0
   32.7246   10.1419   18.9769 C   0  0  0  0  0  0  0  0  0  0  0  0
   33.8461    9.1120   19.2724 C   0  0  1  0  0  0  0  0  0  0  0  0
   33.2340    7.7178   19.5061 C   0  0  1  0  0  0  0  0  0  0  0  0
   34.4018    6.6824   19.7928 C   0  0  1  0  0  0  0  0  0  0  0  0
   35.3667    6.6460   18.5965 C   0  0  1  0  0  0  0  0  0  0  0  0
   35.9143    8.0767   18.3741 C   0  0  2  0  0  0  0  0  0  0  0  0
   36.2536    4.2836   18.2239 C   0  0  0  0  0  0  0  0  0  0  0  0
   30.6493   11.1459   19.8596 N   0  0  0  0  0  0  0  0  0  0  0  0
   36.4428    5.6353   18.8372 N   0  0  0  0  0  0  0  0  0  0  0  0
   30.1927    8.3112   19.4408 O   0  0  0  0  0  0  0  0  0  0  0  0
   32.2600    7.8182   20.6118 O   0  0  0  0  0  0  0  0  0  0  0  0
   34.8278    9.0232   18.1674 O   0  0  0  0  0  0  0  0  0  0  0  0
   35.1422    7.1095   20.9171 O   0  0  0  0  0  0  0  0  0  0  0  0
   36.7756    8.1467   17.2370 O   0  0  0  0  0  0  0  0  0  0  0  0
   38.1423    7.7743   17.5318 C   0  0  2  0  0  0  0  0  0  0  0  0
   38.8762    8.7984   18.4128 C   0  0  1  0  0  0  0  0  0  0  0  0
   39.1364   10.1181   17.6388 C   0  0  2  0  0  0  0  0  0  0  0  0
   39.9309    9.8313   16.3853 C   0  0  1  0  0  0  0  0  0  0  0  0
   39.1536    8.8220   15.5075 C   0  0  1  0  0  0  0  0  0  0  0  0
   39.9090    8.4369   14.2376 C   0  0  0  0  0  0  0  0  0  0  0  0
   40.1582   11.1036   15.6692 N   0  0  0  0  0  0  0  0  0  0  0  0
   38.9055    7.5888   16.2757 O   0  0  0  0  0  0  0  0  0  0  0  0
   38.1007    9.0103   19.6014 O   0  0  0  0  0  0  0  0  0  0  0  0
   39.8868   11.0208   18.4627 O   0  0  0  0  0  0  0  0  0  0  0  0
   40.0367    9.5630   13.4109 O   0  0  0  0  0  0  0  0  0  0  0  0
   29.1885    7.1940   19.6813 C   0  0  1  0  0  0  0  0  0  0  0  0
   28.4926    6.9093   18.3320 C   0  0  1  0  0  0  0  0  0  0  0  0
   27.4926    5.7341   18.4552 C   0  0  2  0  0  0  0  0  0  0  0  0
   28.2225    4.4733   18.9334 C   0  0  1  0  0  0  0  0  0  0  0  0
   28.8953    4.7336   20.3054 C   0  0  0  0  0  0  0  0  0  0  0  0
   29.8916    5.8882   20.1568 C   0  0  2  0  0  0  0  0  0  0  0  0
   27.2589    3.3571   19.0597 N   0  0  0  0  0  0  0  0  0  0  0  0
   30.5154    6.0901   21.4618 N   0  0  0  0  0  0  0  0  0  0  0  0
   27.7699    8.0886   17.9162 O   0  0  0  0  0  0  0  0  0  0  0  0
   26.8918    5.4962   17.1640 O   0  0  0  0  0  0  0  0  0  0  0  0
  1  2  1  0  0  0  0
  1 12  1  6  0  0  0
  1 13  1  0  0  0  0
  2  3  1  0  0  0  0
  2 10  1  6  0  0  0
  4  3  1  6  0  0  0
  4  5  1  0  0  0  0
  4 14  1  0  0  0  0
  5  6  1  0  0  0  0
  5 13  1  1  0  0  0
  6  7  1  0  0  0  0
  6 15  1  1  0  0  0
  7  8  1  0  0  0  0
  7 11  1  1  0  0  0
  8 14  1  0  0  0  0
  8 16  1  6  0  0  0
  9 11  1  0  0  0  0
 17 16  1  6  0  0  0
 17 18  1  0  0  0  0
 17 24  1  0  0  0  0
 18 19  1  0  0  0  0
 18 25  1  1  0  0  0
 19 20  1  0  0  0  0
 19 26  1  1  0  0  0
 20 21  1  0  0  0  0
 20 23  1  6  0  0  0
 21 22  1  6  0  0  0
 21 24  1  0  0  0  0
 22 27  1  0  0  0  0
 28 12  1  6  0  0  0
 28 29  1  0  0  0  0
 28 33  1  0  0  0  0
 29 30  1  0  0  0  0
 29 36  1  1  0  0  0
 30 31  1  0  0  0  0
 30 37  1  6  0  0  0
 31 32  1  0  0  0  0
 31 34  1  1  0  0  0
 32 33  1  0  0  0  0
 33 35  1  1  0  0  0
M  END
>  <CHROM.1>
-160.91491703,97.25948445,-84.58941501,-69.74331658,-65.23577802,-173.06514058
34.03055071,7.81898140,18.43727237,2.98532532,-0.32042534,-2.79075002

>  <Name>
1yrj_lig

>  <RI>
224

>  <Rbt.Current_Directory>
/home/itssahil/PROJECTS/Mol_Feturizer/New_Systems/rnas/1yrj

>  <Rbt.Executable>
rbdock ($Id: //depot/dev/client3/rdock/2013.1/src/exe/rbdock.cxx#4 $)

>  <Rbt.Library>
libRbt.so (2013.1, Build901 2013/11/27)

>  <Rbt.Parameter_File>
/export/apps/rDock/src/rDock_2013.1_src/data/scripts/dock_solv.prm

>  <Rbt.Receptor>
prm/blind_docking_80.prm

>  <SCORE>
-13.3453

>  <SCORE.INTER>
-10.4506

>  <SCORE.INTER.CONST>
1

>  <SCORE.INTER.POLAR>
0

>  <SCORE.INTER.ROT>
6

>  <SCORE.INTER.SOLV>
11.448

>  <SCORE.INTER.VDW>
-18.3831

>  <SCORE.INTER.norm>
-0.282449

>  <SCORE.INTRA>
-2.90744

>  <SCORE.INTRA.DIHEDRAL>
-9.712

>  <SCORE.INTRA.DIHEDRAL.0>
15.6389

>  <SCORE.INTRA.POLAR>
0

>  <SCORE.INTRA.POLAR.0>
0

>  <SCORE.INTRA.REPUL>
0

>  <SCORE.INTRA.REPUL.0>
0

>  <SCORE.INTRA.SOLV>
1.86653

>  <SCORE.INTRA.SOLV.lig_0>
-90.9181

>  <SCORE.INTRA.VDW>
1.0153

>  <SCORE.INTRA.VDW.0>
-3.14158

>  <SCORE.INTRA.norm>
-0.0785794

>  <SCORE.RESTR>
0.0127155

>  <SCORE.RESTR.CAVITY>
0.0127155

>  <SCORE.RESTR.norm>
0.000343661

>  <SCORE.SYSTEM>
0

>  <SCORE.SYSTEM.CONST>
0

>  <SCORE.SYSTEM.DIHEDRAL>
0

>  <SCORE.SYSTEM.SOLV>
0

>  <SCORE.SYSTEM.norm>
0

>  <SCORE.heavy>
37

>  <SCORE.norm>
-0.360684

>  <RMSD>
14.410

$$$$
1yrj_lig
 OpenBabel11021811423D
libRbt.so/2013.1/901 2013/11/27
 37 40  0  0  0  0  0  0  0  0999 V2000
   31.1010    8.1134   20.6100 C   0  0  1  0  0  0  0  0  0  0  0  0
   31.6382    9.5571   20.5609 C   0  0  1  0  0  0  0  0  0  0  0  0
   32.6661    9.7463   19.4340 C   0  0  0  0  0  0  0  0  0  0  0  0
   33.8104    8.7092   19.5784 C   0  0  1  0  0  0  0  0  0  0  0  0
   33.2324    7.2813   19.5718 C   0  0  1  0  0  0  0  0  0  0  0  0
   34.4232    6.2414   19.7075 C   0  0  1  0  0  0  0  0  0  0  0  0
   35.4051    6.4231   18.5386 C   0  0  1  0  0  0  0  0  0  0  0  0
   35.9175    7.8837   18.5611 C   0  0  2  0  0  0  0  0  0  0  0  0
   36.2394    4.0655   18.0364 C   0  0  0  0  0  0  0  0  0  0  0  0
   30.5530   10.5433   20.4307 N   0  0  0  0  0  0  0  0  0  0  0  0
   36.5042    5.4128   18.6313 N   0  0  0  0  0  0  0  0  0  0  0  0
   30.1776    7.8044   19.5494 O   0  0  0  0  0  0  0  0  0  0  0  0
   32.2410    7.1772   20.6615 O   0  0  0  0  0  0  0  0  0  0  0  0
   34.8092    8.8249   18.4914 O   0  0  0  0  0  0  0  0  0  0  0  0
   35.1365    6.4974   20.8993 O   0  0  0  0  0  0  0  0  0  0  0  0
   36.7921    8.1584   17.4660 O   0  0  0  0  0  0  0  0  0  0  0  0
   38.1742    7.8314   17.7429 C   0  0  2  0  0  0  0  0  0  0  0  0
   38.9006    8.9055   18.5688 C   0  0  1  0  0  0  0  0  0  0  0  0
   39.1095   10.2017   17.7414 C   0  0  2  0  0  0  0  0  0  0  0  0
   39.8834    9.8886   16.4814 C   0  0  1  0  0  0  0  0  0  0  0  0
   39.1134    8.8283   15.6590 C   0  0  1  0  0  0  0  0  0  0  0  0
   39.8504    8.4154   14.3870 C   0  0  0  0  0  0  0  0  0  0  0  0
   40.0620   11.1388   15.7143 N   0  0  0  0  0  0  0  0  0  0  0  0
   38.9142    7.6186   16.4772 O   0  0  0  0  0  0  0  0  0  0  0  0
   38.1462    9.1418   19.7663 O   0  0  0  0  0  0  0  0  0  0  0  0
   39.8543   11.1528   18.5144 O   0  0  0  0  0  0  0  0  0  0  0  0
   39.2332    7.2820   13.8371 O   0  0  0  0  0  0  0  0  0  0  0  0
   29.0136    6.8354   19.6927 C   0  0  1  0  0  0  0  0  0  0  0  0
   28.3003    6.7751   18.3239 C   0  0  1  0  0  0  0  0  0  0  0  0
   27.1333    5.7584   18.3454 C   0  0  2  0  0  0  0  0  0  0  0  0
   27.6588    4.3657   18.7131 C   0  0  1  0  0  0  0  0  0  0  0  0
   28.3453    4.4033   20.1024 C   0  0  0  0  0  0  0  0  0  0  0  0
   29.5059    5.4026   20.0538 C   0  0  2  0  0  0  0  0  0  0  0  0
   26.5366    3.4012   18.7427 N   0  0  0  0  0  0  0  0  0  0  0  0
   30.1360    5.3959   21.3713 N   0  0  0  0  0  0  0  0  0  0  0  0
   27.7689    8.0812   18.0114 O   0  0  0  0  0  0  0  0  0  0  0  0
   26.5204    5.7250   17.0385 O   0  0  0  0  0  0  0  0  0  0  0  0
  1  2  1  0  0  0  0
  1 12  1  6  0  0  0
  1 13  1  0  0  0  0
  2  3  1  0  0  0  0
  2 10  1  6  0  0  0
  4  3  1  6  0  0  0
  4  5  1  0  0  0  0
  4 14  1  0  0  0  0
  5  6  1  0  0  0  0
  5 13  1  1  0  0  0
  6  7  1  0  0  0  0
  6 15  1  1  0  0  0
  7  8  1  0  0  0  0
  7 11  1  1  0  0  0
  8 14  1  0  0  0  0
  8 16  1  6  0  0  0
  9 11  1  0  0  0  0
 17 16  1  6  0  0  0
 17 18  1  0  0  0  0
 17 24  1  0  0  0  0
 18 19  1  0  0  0  0
 18 25  1  1  0  0  0
 19 20  1  0  0  0  0
 19 26  1  1  0  0  0
 20 21  1  0  0  0  0
 20 23  1  6  0  0  0
 21 22  1  6  0  0  0
 21 24  1  0  0  0  0
 22 27  1  0  0  0  0
 28 12  1  6  0  0  0
 28 29  1  0  0  0  0
 28 33  1  0  0  0  0
 29 30  1  0  0  0  0
 29 36  1  1  0  0  0
 30 31  1  0  0  0  0
 30 37  1  6  0  0  0
 31 32  1  0  0  0  0
 31 34  1  1  0  0  0
 32 33  1  0  0  0  0
 33 35  1  1  0  0  0
M  END
>  <CHROM.1>
-147.70394956,85.03965096,-87.20462869,-80.12951290,168.59272520,-178.92864287
33.89762259,7.54904753,18.52140876,3.04611889,-0.32076044,-2.55334559

>  <Name>
1yrj_lig

>  <RI>
0

>  <Rbt.Current_Directory>
/home/itssahil/PROJECTS/Mol_Feturizer/New_Systems/rnas/1yrj

>  <Rbt.Executable>
rbdock ($Id: //depot/dev/client3/rdock/2013.1/src/exe/rbdock.cxx#4 $)

>  <Rbt.Library>
libRbt.so (2013.1, Build901 2013/11/27)

>  <Rbt.Parameter_File>
/export/apps/rDock/src/rDock_2013.1_src/data/scripts/dock_solv.prm

>  <Rbt.Receptor>
prm/blind_docking_60.prm

>  <SCORE>
-12.3228

>  <SCORE.INTER>
-9.83727

>  <SCORE.INTER.CONST>
1

>  <SCORE.INTER.POLAR>
0

>  <SCORE.INTER.ROT>
6

>  <SCORE.INTER.SOLV>
13.8472

>  <SCORE.INTER.VDW>
-18.7739

>  <SCORE.INTER.norm>
-0.265872

>  <SCORE.INTRA>
-2.50768

>  <SCORE.INTRA.DIHEDRAL>
-5.79287

>  <SCORE.INTRA.DIHEDRAL.0>
15.6389

>  <SCORE.INTRA.POLAR>
0

>  <SCORE.INTRA.POLAR.0>
0

>  <SCORE.INTRA.REPUL>
0

>  <SCORE.INTRA.REPUL.0>
0

>  <SCORE.INTRA.SOLV>
-0.0504222

>  <SCORE.INTRA.SOLV.lig_0>
-90.9181

>  <SCORE.INTRA.VDW>
0.413972

>  <SCORE.INTRA.VDW.0>
-3.14158

>  <SCORE.INTRA.norm>
-0.067775

>  <SCORE.RESTR>
0.0221588

>  <SCORE.RESTR.CAVITY>
0.0221588

>  <SCORE.RESTR.norm>
0.000598887

>  <SCORE.SYSTEM>
0

>  <SCORE.SYSTEM.CONST>
0

>  <SCORE.SYSTEM.DIHEDRAL>
0

>  <SCORE.SYSTEM.SOLV>
0

>  <SCORE.SYSTEM.norm>
0

>  <SCORE.heavy>
37

>  <SCORE.norm>
-0.333048

>  <RMSD>
14.433

$$$$
1yrj_lig
 OpenBabel11021811423D
libRbt.so/2013.1/901 2013/11/27
 37 40  0  0  0  0  0  0  0  0999 V2000
   30.6701    6.6434   17.6477 C   0  0  1  0  0  0  0  0  0  0  0  0
   31.5966    6.8915   18.8541 C   0  0  1  0  0  0  0  0  0  0  0  0
   32.7745    7.8096   18.4907 C   0  0  0  0  0  0  0  0  0  0  0  0
   33.5482    7.2277   17.2789 C   0  0  1  0  0  0  0  0  0  0  0  0
   32.5947    7.0443   16.0829 C   0  0  1  0  0  0  0  0  0  0  0  0
   33.4129    6.4610   14.8547 C   0  0  1  0  0  0  0  0  0  0  0  0
   34.5504    7.4268   14.4849 C   0  0  1  0  0  0  0  0  0  0  0  0
   35.4487    7.6147   15.7316 C   0  0  2  0  0  0  0  0  0  0  0  0
   36.5130    7.6697   12.8738 C   0  0  0  0  0  0  0  0  0  0  0  0
   30.8628    7.4375   20.0076 N   0  0  0  0  0  0  0  0  0  0  0  0
   35.2955    6.9089   13.2958 N   0  0  0  0  0  0  0  0  0  0  0  0
   29.8444    7.7741   17.3115 O   0  0  0  0  0  0  0  0  0  0  0  0
   31.4805    6.1727   16.5073 O   0  0  0  0  0  0  0  0  0  0  0  0
   34.6723    8.0977   16.8642 O   0  0  0  0  0  0  0  0  0  0  0  0
   34.0068    5.2347   15.2264 O   0  0  0  0  0  0  0  0  0  0  0  0
   36.5011    8.5504   15.4938 O   0  0  0  0  0  0  0  0  0  0  0  0
   36.0237    9.8820   15.1898 C   0  0  2  0  0  0  0  0  0  0  0  0
   37.1324   10.8310   14.7062 C   0  0  1  0  0  0  0  0  0  0  0  0
   38.1174   11.1730   15.8556 C   0  0  2  0  0  0  0  0  0  0  0  0
   37.3636   11.7853   17.0139 C   0  0  1  0  0  0  0  0  0  0  0  0
   36.2765   10.7959   17.4962 C   0  0  1  0  0  0  0  0  0  0  0  0
   35.4311   11.3553   18.6382 C   0  0  0  0  0  0  0  0  0  0  0  0
   38.3255   12.0950   18.0919 N   0  0  0  0  0  0  0  0  0  0  0  0
   35.3698   10.4762   16.3790 O   0  0  0  0  0  0  0  0  0  0  0  0
   37.7937   10.2209   13.5884 O   0  0  0  0  0  0  0  0  0  0  0  0
   39.0923   12.1166   15.3908 O   0  0  0  0  0  0  0  0  0  0  0  0
   34.5194   10.3786   19.0657 O   0  0  0  0  0  0  0  0  0  0  0  0
   28.5272    8.0979   18.0004 C   0  0  1  0  0  0  0  0  0  0  0  0
   27.8719    6.7529   18.3846 C   0  0  1  0  0  0  0  0  0  0  0  0
   26.5486    6.9755   19.1563 C   0  0  2  0  0  0  0  0  0  0  0  0
   26.8129    7.7990   20.4224 C   0  0  1  0  0  0  0  0  0  0  0  0
   27.4371    9.1678   20.0488 C   0  0  0  0  0  0  0  0  0  0  0  0
   28.7522    8.9243   19.3012 C   0  0  2  0  0  0  0  0  0  0  0  0
   25.5423    8.0175   21.1493 N   0  0  0  0  0  0  0  0  0  0  0  0
   29.3163   10.2334   18.9835 N   0  0  0  0  0  0  0  0  0  0  0  0
   27.5847    6.0077   17.1812 O   0  0  0  0  0  0  0  0  0  0  0  0
   25.9941    5.6904   19.5107 O   0  0  0  0  0  0  0  0  0  0  0  0
  1  2  1  0  0  0  0
  1 12  1  6  0  0  0
  1 13  1  0  0  0  0
  2  3  1  0  0  0  0
  2 10  1  1  0  0  0
  4  3  1  1  0  0  0
  4  5  1  0  0  0  0
  4 14  1  0  0  0  0
  5  6  1  0  0  0  0
  5 13  1  1  0  0  0
  6  7  1  0  0  0  0
  6 15  1  1  0  0  0
  7  8  1  0  0  0  0
  7 11  1  6  0  0  0
  8 14  1  0  0  0  0
  8 16  1  6  0  0  0
  9 11  1  0  0  0  0
 17 16  1  1  0  0  0
 17 18  1  0  0  0  0
 17 24  1  0  0  0  0
 18 19  1  0  0  0  0
 18 25  1  6  0  0  0
 19 20  1  0  0  0  0
 19 26  1  6  0  0  0
 20 21  1  0  0  0  0
 20 23  1  1  0  0  0
 21 22  1  1  0  0  0
 21 24  1  0  0  0  0
 22 27  1  0  0  0  0
 28 12  1  1  0  0  0
 28 29  1  0  0  0  0
 28 33  1  0  0  0  0
 29 30  1  0  0  0  0
 29 36  1  6  0  0  0
 30 31  1  0  0  0  0
 30 37  1  1  0  0  0
 31 32  1  0  0  0  0
 31 34  1  6  0  0  0
 32 33  1  0  0  0  0
 33 35  1  6  0  0  0
M  END
>  <CHROM.1>
-83.05189023,-174.83081199,62.30284210,-170.40306039,-176.90149427,-33.28580981
32.83477036,8.47173735,17.12085701,3.10344640,0.45300662,0.73579479

>  <Name>
1yrj_lig

>  <RI>
224

>  <Rbt.Current_Directory>
/home/itssahil/PROJECTS/Mol_Feturizer/New_Systems/rnas/1yrj

>  <Rbt.Executable>
rbdock ($Id: //depot/dev/client3/rdock/2013.1/src/exe/rbdock.cxx#4 $)

>  <Rbt.Library>
libRbt.so (2013.1, Build901 2013/11/27)

>  <Rbt.Parameter_File>
/export/apps/rDock/src/rDock_2013.1_src/data/scripts/dock_solv.prm

>  <Rbt.Receptor>
prm/blind_docking_80.prm

>  <SCORE>
-12.0322

>  <SCORE.INTER>
-12.4751

>  <SCORE.INTER.CONST>
1

>  <SCORE.INTER.POLAR>
-1.21793

>  <SCORE.INTER.ROT>
6

>  <SCORE.INTER.SOLV>
14.3978

>  <SCORE.INTER.VDW>
-16.6562

>  <SCORE.INTER.norm>
-0.337164

>  <SCORE.INTRA>
0.405603

>  <SCORE.INTRA.DIHEDRAL>
-9.74592

>  <SCORE.INTRA.DIHEDRAL.0>
15.6389

>  <SCORE.INTRA.POLAR>
0

>  <SCORE.INTRA.POLAR.0>
0

>  <SCORE.INTRA.REPUL>
0

>  <SCORE.INTRA.REPUL.0>
0

>  <SCORE.INTRA.SOLV>
3.9866

>  <SCORE.INTRA.SOLV.lig_0>
-90.9181

>  <SCORE.INTRA.VDW>
3.28526

>  <SCORE.INTRA.VDW.0>
-3.14158

>  <SCORE.INTRA.norm>
0.0109622

>  <SCORE.RESTR>
0.0372737

>  <SCORE.RESTR.CAVITY>
0.0372737

>  <SCORE.RESTR.norm>
0.0010074

>  <SCORE.SYSTEM>
0

>  <SCORE.SYSTEM.CONST>
0

>  <SCORE.SYSTEM.DIHEDRAL>
0

>  <SCORE.SYSTEM.SOLV>
0

>  <SCORE.SYSTEM.norm>
0

>  <SCORE.heavy>
37

>  <SCORE.norm>
-0.325194

>  <RMSD>
14.451

$$$$
1yrj_lig
 OpenBabel11021811423D
libRbt.so/2013.1/901 2013/11/27
 37 40  0  0  0  0  0  0  0  0999 V2000
   35.7017    7.2250   15.0976 C   0  0  1  0  0  0  0  0  0  0  0  0
   34.9016    6.0372   14.5279 C   0  0  1  0  0  0  0  0  0  0  0  0
   33.3871    6.2960   14.5695 C   0  0  0  0  0  0  0  0  0  0  0  0
   32.9472    6.6483   16.0145 C   0  0  1  0  0  0  0  0  0  0  0  0
   33.7356    7.8700   16.5231 C   0  0  1  0  0  0  0  0  0  0  0  0
   33.2578    8.2166   17.9960 C   0  0  1  0  0  0  0  0  0  0  0  0
   31.7506    8.5197   17.9935 C   0  0  1  0  0  0  0  0  0  0  0  0
   31.0103    7.2826   17.4295 C   0  0  2  0  0  0  0  0  0  0  0  0
   30.1159    9.8033   19.4722 C   0  0  0  0  0  0  0  0  0  0  0  0
   35.3224    5.6971   13.1589 N   0  0  0  0  0  0  0  0  0  0  0  0
   31.3019    8.8966   19.3697 N   0  0  0  0  0  0  0  0  0  0  0  0
   35.7484    8.3645   14.2185 O   0  0  0  0  0  0  0  0  0  0  0  0
   35.1772    7.5610   16.4358 O   0  0  0  0  0  0  0  0  0  0  0  0
   31.4990    6.9451   16.1005 O   0  0  0  0  0  0  0  0  0  0  0  0
   33.4598    7.0956   18.8309 O   0  0  0  0  0  0  0  0  0  0  0  0
   29.6025    7.5023   17.3335 O   0  0  0  0  0  0  0  0  0  0  0  0
   28.8235    6.2932   17.4915 C   0  0  2  0  0  0  0  0  0  0  0  0
   27.3095    6.5495   17.5669 C   0  0  1  0  0  0  0  0  0  0  0  0
   26.9286    7.2689   18.8882 C   0  0  2  0  0  0  0  0  0  0  0  0
   27.3867    6.4476   20.0716 C   0  0  1  0  0  0  0  0  0  0  0  0
   28.9162    6.2324   19.9828 C   0  0  1  0  0  0  0  0  0  0  0  0
   29.4596    5.3678   21.1181 C   0  0  0  0  0  0  0  0  0  0  0  0
   27.0148    7.1591   21.3121 N   0  0  0  0  0  0  0  0  0  0  0  0
   29.2475    5.5659   18.7106 O   0  0  0  0  0  0  0  0  0  0  0  0
   26.9201    7.3010   16.4082 O   0  0  0  0  0  0  0  0  0  0  0  0
   25.5047    7.4245   18.9598 O   0  0  0  0  0  0  0  0  0  0  0  0
   29.2116    5.9998   22.3457 O   0  0  0  0  0  0  0  0  0  0  0  0
   36.3225    9.7172   14.6122 C   0  0  1  0  0  0  0  0  0  0  0  0
   35.4637   10.2541   15.7784 C   0  0  1  0  0  0  0  0  0  0  0  0
   36.0105   11.6051   16.3001 C   0  0  2  0  0  0  0  0  0  0  0  0
   37.4621   11.4383   16.7647 C   0  0  1  0  0  0  0  0  0  0  0  0
   38.3435   10.9346   15.5933 C   0  0  0  0  0  0  0  0  0  0  0  0
   37.7948    9.5903   15.1038 C   0  0  2  0  0  0  0  0  0  0  0  0
   37.9820   12.7356   17.2516 N   0  0  0  0  0  0  0  0  0  0  0  0
   38.6598    9.1420   14.0159 N   0  0  0  0  0  0  0  0  0  0  0  0
   34.1102   10.4520   15.3150 O   0  0  0  0  0  0  0  0  0  0  0  0
   35.1878   12.0467   17.4014 O   0  0  0  0  0  0  0  0  0  0  0  0
  1  2  1  0  0  0  0
  1 12  1  6  0  0  0
  1 13  1  0  0  0  0
  2  3  1  0  0  0  0
  2 10  1  6  0  0  0
  4  3  1  6  0  0  0
  4  5  1  0  0  0  0
  4 14  1  0  0  0  0
  5  6  1  0  0  0  0
  5 13  1  1  0  0  0
  6  7  1  0  0  0  0
  6 15  1  1  0  0  0
  7  8  1  0  0  0  0
  7 11  1  1  0  0  0
  8 14  1  0  0  0  0
  8 16  1  6  0  0  0
  9 11  1  0  0  0  0
 17 16  1  1  0  0  0
 17 18  1  0  0  0  0
 17 24  1  0  0  0  0
 18 19  1  0  0  0  0
 18 25  1  6  0  0  0
 19 20  1  0  0  0  0
 19 26  1  1  0  0  0
 20 21  1  0  0  0  0
 20 23  1  1  0  0  0
 21 22  1  1  0  0  0
 21 24  1  0  0  0  0
 22 27  1  0  0  0  0
 28 12  1  1  0  0  0
 28 29  1  0  0  0  0
 28 33  1  0  0  0  0
 29 30  1  0  0  0  0
 29 36  1  6  0  0  0
 30 31  1  0  0  0  0
 30 37  1  1  0  0  0
 31 32  1  0  0  0  0
 31 34  1  6  0  0  0
 32 33  1  0  0  0  0
 33 35  1  6  0  0  0
M  END
>  <CHROM.1>
172.11160585,152.25219318,-149.98153655,172.69463341,-61.34824952,-62.33025095
32.45722414,8.08772592,17.21434594,0.06975196,-0.51364839,-2.34898682

>  <Name>
1yrj_lig

>  <RI>
0

>  <Rbt.Current_Directory>
/home/itssahil/PROJECTS/Mol_Feturizer/New_Systems/rnas/1yrj

>  <Rbt.Executable>
rbdock ($Id: //depot/dev/client3/rdock/2013.1/src/exe/rbdock.cxx#4 $)

>  <Rbt.Library>
libRbt.so (2013.1, Build901 2013/11/27)

>  <Rbt.Parameter_File>
/export/apps/rDock/src/rDock_2013.1_src/data/scripts/dock_solv.prm

>  <Rbt.Receptor>
prm/blind_docking_100.prm

>  <SCORE>
-20.7058

>  <SCORE.INTER>
-14.9455

>  <SCORE.INTER.CONST>
1

>  <SCORE.INTER.POLAR>
-1.1257

>  <SCORE.INTER.ROT>
6

>  <SCORE.INTER.SOLV>
20.9781

>  <SCORE.INTER.VDW>
-20.804

>  <SCORE.INTER.norm>
-0.403931

>  <SCORE.INTRA>
-5.76038

>  <SCORE.INTRA.DIHEDRAL>
-10.8187

>  <SCORE.INTRA.DIHEDRAL.0>
15.6389

>  <SCORE.INTRA.POLAR>
0

>  <SCORE.INTRA.POLAR.0>
0

>  <SCORE.INTRA.REPUL>
0

>  <SCORE.INTRA.REPUL.0>
0

>  <SCORE.INTRA.SOLV>
0.064144

>  <SCORE.INTRA.SOLV.lig_0>
-90.9181

>  <SCORE.INTRA.VDW>
-0.383089

>  <SCORE.INTRA.VDW.0>
-3.14158

>  <SCORE.INTRA.norm>
-0.155686

>  <SCORE.RESTR>
0

>  <SCORE.RESTR.CAVITY>
0

>  <SCORE.RESTR.norm>
0

>  <SCORE.SYSTEM>
0

>  <SCORE.SYSTEM.CONST>
0

>  <SCORE.SYSTEM.DIHEDRAL>
0

>  <SCORE.SYSTEM.SOLV>
0

>  <SCORE.SYSTEM.norm>
0

>  <SCORE.heavy>
37

>  <SCORE.norm>
-0.559617

>  <RMSD>
14.456

$$$$
1yrj_lig
 OpenBabel11021811423D
libRbt.so/2013.1/901 2013/11/27
 37 40  0  0  0  0  0  0  0  0999 V2000
   37.0501    5.5207   18.7995 C   0  0  1  0  0  0  0  0  0  0  0  0
   36.0397    4.7814   19.6985 C   0  0  1  0  0  0  0  0  0  0  0  0
   34.6644    5.4677   19.6968 C   0  0  0  0  0  0  0  0  0  0  0  0
   34.8132    6.9580   20.1000 C   0  0  1  0  0  0  0  0  0  0  0  0
   35.7917    7.6678   19.1451 C   0  0  1  0  0  0  0  0  0  0  0  0
   35.9155    9.1914   19.5711 C   0  0  1  0  0  0  0  0  0  0  0  0
   34.5327    9.8603   19.5095 C   0  0  1  0  0  0  0  0  0  0  0  0
   33.5774    9.0815   20.4462 C   0  0  2  0  0  0  0  0  0  0  0  0
   35.1013   12.2365   18.7769 C   0  0  0  0  0  0  0  0  0  0  0  0
   35.9022    3.3651   19.3216 N   0  0  0  0  0  0  0  0  0  0  0  0
   34.6487   11.3095   19.8609 N   0  0  0  0  0  0  0  0  0  0  0  0
   36.8192    5.3279   17.3915 O   0  0  0  0  0  0  0  0  0  0  0  0
   37.0799    6.9464   19.1804 O   0  0  0  0  0  0  0  0  0  0  0  0
   33.5178    7.6750   20.0757 O   0  0  0  0  0  0  0  0  0  0  0  0
   36.3611    9.2699   20.9089 O   0  0  0  0  0  0  0  0  0  0  0  0
   32.2477    9.6005   20.4021 O   0  0  0  0  0  0  0  0  0  0  0  0
   31.7154    9.6949   19.0599 C   0  0  2  0  0  0  0  0  0  0  0  0
   30.3803   10.4536   18.9860 C   0  0  1  0  0  0  0  0  0  0  0  0
   29.2379    9.6426   19.6534 C   0  0  2  0  0  0  0  0  0  0  0  0
   29.1150    8.2882   18.9936 C   0  0  1  0  0  0  0  0  0  0  0  0
   30.4635    7.5388   19.1104 C   0  0  1  0  0  0  0  0  0  0  0  0
   30.4442    6.1744   18.4250 C   0  0  0  0  0  0  0  0  0  0  0  0
   28.0247    7.5394   19.6523 N   0  0  0  0  0  0  0  0  0  0  0  0
   31.5299    8.3419   18.4856 O   0  0  0  0  0  0  0  0  0  0  0  0
   30.5581   11.7414   19.5935 O   0  0  0  0  0  0  0  0  0  0  0  0
   27.9958   10.3431   19.5006 O   0  0  0  0  0  0  0  0  0  0  0  0
   31.6609    5.5169   18.6600 O   0  0  0  0  0  0  0  0  0  0  0  0
   36.3109    6.4162   16.4579 C   0  0  1  0  0  0  0  0  0  0  0  0
   37.5460    7.1886   15.9442 C   0  0  1  0  0  0  0  0  0  0  0  0
   37.1388    8.2826   14.9276 C   0  0  2  0  0  0  0  0  0  0  0  0
   36.4000    7.6481   13.7433 C   0  0  1  0  0  0  0  0  0  0  0  0
   35.1368    6.8999   14.2405 C   0  0  0  0  0  0  0  0  0  0  0  0
   35.5640    5.8124   15.2318 C   0  0  2  0  0  0  0  0  0  0  0  0
   36.0040    8.7005   12.7810 N   0  0  0  0  0  0  0  0  0  0  0  0
   34.3517    5.1209   15.6620 N   0  0  0  0  0  0  0  0  0  0  0  0
   38.2056    7.8206   17.0629 O   0  0  0  0  0  0  0  0  0  0  0  0
   38.3299    8.9539   14.4634 O   0  0  0  0  0  0  0  0  0  0  0  0
  1  2  1  0  0  0  0
  1 12  1  6  0  0  0
  1 13  1  0  0  0  0
  2  3  1  0  0  0  0
  2 10  1  6  0  0  0
  4  3  1  6  0  0  0
  4  5  1  0  0  0  0
  4 14  1  0  0  0  0
  5  6  1  0  0  0  0
  5 13  1  1  0  0  0
  6  7  1  0  0  0  0
  6 15  1  1  0  0  0
  7  8  1  0  0  0  0
  7 11  1  1  0  0  0
  8 14  1  0  0  0  0
  8 16  1  6  0  0  0
  9 11  1  0  0  0  0
 17 16  1  1  0  0  0
 17 18  1  0  0  0  0
 17 24  1  0  0  0  0
 18 19  1  0  0  0  0
 18 25  1  1  0  0  0
 19 20  1  0  0  0  0
 19 26  1  6  0  0  0
 20 21  1  0  0  0  0
 20 23  1  1  0  0  0
 21 22  1  6  0  0  0
 21 24  1  0  0  0  0
 22 27  1  0  0  0  0
 28 12  1  1  0  0  0
 28 29  1  0  0  0  0
 28 33  1  0  0  0  0
 29 30  1  0  0  0  0
 29 36  1  1  0  0  0
 30 31  1  0  0  0  0
 30 37  1  6  0  0  0
 31 32  1  0  0  0  0
 31 34  1  6  0  0  0
 32 33  1  0  0  0  0
 33 35  1  1  0  0  0
M  END
>  <CHROM.1>
109.85935815,81.16116822,52.88346543,-170.92070163,-175.55693299,87.51724077
34.05459938,7.92853677,18.22527199,0.30514396,-0.45228328,-3.14038544

>  <Name>
1yrj_lig

>  <RI>
0

>  <Rbt.Current_Directory>
/home/itssahil/PROJECTS/Mol_Feturizer/New_Systems/rnas/1yrj

>  <Rbt.Executable>
rbdock ($Id: //depot/dev/client3/rdock/2013.1/src/exe/rbdock.cxx#4 $)

>  <Rbt.Library>
libRbt.so (2013.1, Build901 2013/11/27)

>  <Rbt.Parameter_File>
/export/apps/rDock/src/rDock_2013.1_src/data/scripts/dock_solv.prm

>  <Rbt.Receptor>
prm/blind_docking_100.prm

>  <SCORE>
-14.0012

>  <SCORE.INTER>
-11.5607

>  <SCORE.INTER.CONST>
1

>  <SCORE.INTER.POLAR>
-0.857117

>  <SCORE.INTER.ROT>
6

>  <SCORE.INTER.SOLV>
16.0141

>  <SCORE.INTER.VDW>
-17.7881

>  <SCORE.INTER.norm>
-0.312451

>  <SCORE.INTRA>
-2.44056

>  <SCORE.INTRA.DIHEDRAL>
-4.77555

>  <SCORE.INTRA.DIHEDRAL.0>
15.6389

>  <SCORE.INTRA.POLAR>
0

>  <SCORE.INTRA.POLAR.0>
0

>  <SCORE.INTRA.REPUL>
0

>  <SCORE.INTRA.REPUL.0>
0

>  <SCORE.INTRA.SOLV>
-0.0405213

>  <SCORE.INTRA.SOLV.lig_0>
-90.9181

>  <SCORE.INTRA.VDW>
-0.0325298

>  <SCORE.INTRA.VDW.0>
-3.14158

>  <SCORE.INTRA.norm>
-0.0659612

>  <SCORE.RESTR>
0

>  <SCORE.RESTR.CAVITY>
0

>  <SCORE.RESTR.norm>
0

>  <SCORE.SYSTEM>
0

>  <SCORE.SYSTEM.CONST>
0

>  <SCORE.SYSTEM.DIHEDRAL>
0

>  <SCORE.SYSTEM.SOLV>
0

>  <SCORE.SYSTEM.norm>
0

>  <SCORE.heavy>
37

>  <SCORE.norm>
-0.378412

>  <RMSD>
14.479

$$$$
1yrj_lig
 OpenBabel11021811423D
libRbt.so/2013.1/901 2013/11/27
 37 40  0  0  0  0  0  0  0  0999 V2000
   35.8982    7.3456   15.1394 C   0  0  1  0  0  0  0  0  0  0  0  0
   35.1307    6.2073   14.4388 C   0  0  1  0  0  0  0  0  0  0  0  0
   33.6335    6.2299   14.7854 C   0  0  0  0  0  0  0  0  0  0  0  0
   33.4431    6.1926   16.3242 C   0  0  1  0  0  0  0  0  0  0  0  0
   34.1841    7.3753   16.9763 C   0  0  1  0  0  0  0  0  0  0  0  0
   33.9627    7.3210   18.5467 C   0  0  1  0  0  0  0  0  0  0  0  0
   32.4596    7.3969   18.8605 C   0  0  1  0  0  0  0  0  0  0  0  0
   31.7566    6.2185   18.1439 C   0  0  2  0  0  0  0  0  0  0  0  0
   32.8914    8.4992   21.1200 C   0  0  0  0  0  0  0  0  0  0  0  0
   35.3157    6.2369   12.9787 N   0  0  0  0  0  0  0  0  0  0  0  0
   32.2450    7.3972   20.3408 N   0  0  0  0  0  0  0  0  0  0  0  0
   35.6591    8.6433   14.5633 O   0  0  0  0  0  0  0  0  0  0  0  0
   35.6067    7.3036   16.5857 O   0  0  0  0  0  0  0  0  0  0  0  0
   32.0152    6.2518   16.7117 O   0  0  0  0  0  0  0  0  0  0  0  0
   34.4343    6.0865   19.0448 O   0  0  0  0  0  0  0  0  0  0  0  0
   30.3413    6.2485   18.3321 O   0  0  0  0  0  0  0  0  0  0  0  0
   29.7022    7.3719   17.6815 C   0  0  2  0  0  0  0  0  0  0  0  0
   29.1762    8.4280   18.6672 C   0  0  1  0  0  0  0  0  0  0  0  0
   27.9685    7.8858   19.4770 C   0  0  2  0  0  0  0  0  0  0  0  0
   26.8715    7.4482   18.5337 C   0  0  1  0  0  0  0  0  0  0  0  0
   27.4229    6.3658   17.5758 C   0  0  1  0  0  0  0  0  0  0  0  0
   26.3904    5.8991   16.5522 C   0  0  0  0  0  0  0  0  0  0  0  0
   25.7398    6.9336   19.3324 N   0  0  0  0  0  0  0  0  0  0  0  0
   28.5789    6.9039   16.8365 O   0  0  0  0  0  0  0  0  0  0  0  0
   30.2600    8.8340   19.5155 O   0  0  0  0  0  0  0  0  0  0  0  0
   27.4568    8.9187   20.3303 O   0  0  0  0  0  0  0  0  0  0  0  0
   25.3768    5.1821   17.2053 O   0  0  0  0  0  0  0  0  0  0  0  0
   36.1179    9.9495   15.1938 C   0  0  1  0  0  0  0  0  0  0  0  0
   35.2263   10.1957   16.4309 C   0  0  1  0  0  0  0  0  0  0  0  0
   35.6591   11.4752   17.1869 C   0  0  2  0  0  0  0  0  0  0  0  0
   37.1237   11.3548   17.6245 C   0  0  1  0  0  0  0  0  0  0  0  0
   38.0350   11.1442   16.3884 C   0  0  0  0  0  0  0  0  0  0  0  0
   37.6000    9.8653   15.6651 C   0  0  2  0  0  0  0  0  0  0  0  0
   37.5341   12.5856   18.3367 N   0  0  0  0  0  0  0  0  0  0  0  0
   38.4909    9.6928   14.5208 N   0  0  0  0  0  0  0  0  0  0  0  0
   33.8568   10.3547   16.0008 O   0  0  0  0  0  0  0  0  0  0  0  0
   34.8111   11.6423   18.3435 O   0  0  0  0  0  0  0  0  0  0  0  0
  1  2  1  0  0  0  0
  1 12  1  6  0  0  0
  1 13  1  0  0  0  0
  2  3  1  0  0  0  0
  2 10  1  6  0  0  0
  4  3  1  6  0  0  0
  4  5  1  0  0  0  0
  4 14  1  0  0  0  0
  5  6  1  0  0  0  0
  5 13  1  1  0  0  0
  6  7  1  0  0  0  0
  6 15  1  6  0  0  0
  7  8  1  0  0  0  0
  7 11  1  1  0  0  0
  8 14  1  0  0  0  0
  8 16  1  6  0  0  0
  9 11  1  0  0  0  0
 17 16  1  1  0  0  0
 17 18  1  0  0  0  0
 17 24  1  0  0  0  0
 18 19  1  0  0  0  0
 18 25  1  1  0  0  0
 19 20  1  0  0  0  0
 19 26  1  1  0  0  0
 20 21  1  0  0  0  0
 20 23  1  1  0  0  0
 21 22  1  6  0  0  0
 21 24  1  0  0  0  0
 22 27  1  0  0  0  0
 28 12  1  1  0  0  0
 28 29  1  0  0  0  0
 28 33  1  0  0  0  0
 29 30  1  0  0  0  0
 29 36  1  6  0  0  0
 30 31  1  0  0  0  0
 30 37  1  1  0  0  0
 31 32  1  0  0  0  0
 31 34  1  6  0  0  0
 32 33  1  0  0  0  0
 33 35  1  6  0  0  0
M  END
>  <CHROM.1>
170.12167250,58.71082194,67.25463810,-109.49792474,-68.58858646,-71.97583799
32.60955182,8.08064895,17.32754512,-0.02578686,-0.38638093,-2.32405180

>  <Name>
1yrj_lig

>  <RI>
0

>  <Rbt.Current_Directory>
/home/itssahil/PROJECTS/Mol_Feturizer/New_Systems/rnas/1yrj

>  <Rbt.Executable>
rbdock ($Id: //depot/dev/client3/rdock/2013.1/src/exe/rbdock.cxx#4 $)

>  <Rbt.Library>
libRbt.so (2013.1, Build901 2013/11/27)

>  <Rbt.Parameter_File>
/export/apps/rDock/src/rDock_2013.1_src/data/scripts/dock_solv.prm

>  <Rbt.Receptor>
prm/blind_docking_100.prm

>  <SCORE>
-15.6811

>  <SCORE.INTER>
-14.0297

>  <SCORE.INTER.CONST>
1

>  <SCORE.INTER.POLAR>
-1.36165

>  <SCORE.INTER.ROT>
6

>  <SCORE.INTER.SOLV>
15.3303

>  <SCORE.INTER.VDW>
-17.5244

>  <SCORE.INTER.norm>
-0.379182

>  <SCORE.INTRA>
-1.65138

>  <SCORE.INTRA.DIHEDRAL>
-7.22529

>  <SCORE.INTRA.DIHEDRAL.0>
15.6389

>  <SCORE.INTRA.POLAR>
0

>  <SCORE.INTRA.POLAR.0>
0

>  <SCORE.INTRA.REPUL>
0

>  <SCORE.INTRA.REPUL.0>
0

>  <SCORE.INTRA.SOLV>
0.958927

>  <SCORE.INTRA.SOLV.lig_0>
-90.9181

>  <SCORE.INTRA.VDW>
1.4818

>  <SCORE.INTRA.VDW.0>
-3.14158

>  <SCORE.INTRA.norm>
-0.0446319

>  <SCORE.RESTR>
0

>  <SCORE.RESTR.CAVITY>
0

>  <SCORE.RESTR.norm>
0

>  <SCORE.SYSTEM>
0

>  <SCORE.SYSTEM.CONST>
0

>  <SCORE.SYSTEM.DIHEDRAL>
0

>  <SCORE.SYSTEM.SOLV>
0

>  <SCORE.SYSTEM.norm>
0

>  <SCORE.heavy>
37

>  <SCORE.norm>
-0.423813

>  <RMSD>
14.497

$$$$
1yrj_lig
 OpenBabel11021811423D
libRbt.so/2013.1/901 2013/11/27
 37 40  0  0  0  0  0  0  0  0999 V2000
   31.8314    7.2863   20.2948 C   0  0  1  0  0  0  0  0  0  0  0  0
   32.6793    8.3266   21.0526 C   0  0  1  0  0  0  0  0  0  0  0  0
   33.2590    9.3900   20.1062 C   0  0  0  0  0  0  0  0  0  0  0  0
   34.0631    8.7079   18.9687 C   0  0  1  0  0  0  0  0  0  0  0  0
   33.1632    7.7157   18.2080 C   0  0  1  0  0  0  0  0  0  0  0  0
   34.0053    7.0427   17.0435 C   0  0  1  0  0  0  0  0  0  0  0  0
   34.5269    8.1281   16.0879 C   0  0  1  0  0  0  0  0  0  0  0  0
   35.3821    9.1238   16.9087 C   0  0  2  0  0  0  0  0  0  0  0  0
   34.5488    6.4802   14.1410 C   0  0  0  0  0  0  0  0  0  0  0  0
   31.9198    8.9701   22.1371 N   0  0  0  0  0  0  0  0  0  0  0  0
   35.2794    7.4980   14.9592 N   0  0  0  0  0  0  0  0  0  0  0  0
   30.5488    7.7848   19.8711 O   0  0  0  0  0  0  0  0  0  0  0  0
   32.6258    6.7396   19.1774 O   0  0  0  0  0  0  0  0  0  0  0  0
   34.6111    9.6904   18.0058 O   0  0  0  0  0  0  0  0  0  0  0  0
   35.1309    6.3914   17.5943 O   0  0  0  0  0  0  0  0  0  0  0  0
   35.8578   10.2051   16.1062 O   0  0  0  0  0  0  0  0  0  0  0  0
   36.5690   11.2104   16.8658 C   0  0  2  0  0  0  0  0  0  0  0  0
   37.2931   12.2410   15.9842 C   0  0  1  0  0  0  0  0  0  0  0  0
   38.4907   11.5957   15.2374 C   0  0  2  0  0  0  0  0  0  0  0  0
   39.4490   10.9840   16.2335 C   0  0  1  0  0  0  0  0  0  0  0  0
   38.6988    9.9318   17.0841 C   0  0  1  0  0  0  0  0  0  0  0  0
   39.5832    9.2951   18.1538 C   0  0  0  0  0  0  0  0  0  0  0  0
   40.5737   10.3749   15.4936 N   0  0  0  0  0  0  0  0  0  0  0  0
   37.5576   10.5700   17.7644 O   0  0  0  0  0  0  0  0  0  0  0  0
   36.3366   12.8153   15.0818 O   0  0  0  0  0  0  0  0  0  0  0  0
   39.1873   12.5987   14.4851 O   0  0  0  0  0  0  0  0  0  0  0  0
   38.8669    8.2830   18.8099 O   0  0  0  0  0  0  0  0  0  0  0  0
   29.5491    6.9747   19.0594 C   0  0  1  0  0  0  0  0  0  0  0  0
   29.2847    5.6668   19.8375 C   0  0  1  0  0  0  0  0  0  0  0  0
   28.2225    4.7960   19.1236 C   0  0  2  0  0  0  0  0  0  0  0  0
   26.9136    5.5812   18.9778 C   0  0  1  0  0  0  0  0  0  0  0  0
   27.1569    6.8793   18.1664 C   0  0  0  0  0  0  0  0  0  0  0  0
   28.1981    7.7325   18.8985 C   0  0  2  0  0  0  0  0  0  0  0  0
   25.9064    4.7471   18.2848 N   0  0  0  0  0  0  0  0  0  0  0  0
   28.3858    8.9504   18.1147 N   0  0  0  0  0  0  0  0  0  0  0  0
   30.5143    4.9144   19.9266 O   0  0  0  0  0  0  0  0  0  0  0  0
   27.9972    3.6025   19.9043 O   0  0  0  0  0  0  0  0  0  0  0  0
  1  2  1  0  0  0  0
  1 12  1  6  0  0  0
  1 13  1  0  0  0  0
  2  3  1  0  0  0  0
  2 10  1  1  0  0  0
  4  3  1  1  0  0  0
  4  5  1  0  0  0  0
  4 14  1  0  0  0  0
  5  6  1  0  0  0  0
  5 13  1  1  0  0  0
  6  7  1  0  0  0  0
  6 15  1  1  0  0  0
  7  8  1  0  0  0  0
  7 11  1  6  0  0  0
  8 14  1  0  0  0  0
  8 16  1  6  0  0  0
  9 11  1  0  0  0  0
 17 16  1  6  0  0  0
 17 18  1  0  0  0  0
 17 24  1  0  0  0  0
 18 19  1  0  0  0  0
 18 25  1  6  0  0  0
 19 20  1  0  0  0  0
 19 26  1  1  0  0  0
 20 21  1  0  0  0  0
 20 23  1  6  0  0  0
 21 22  1  1  0  0  0
 21 24  1  0  0  0  0
 22 27  1  0  0  0  0
 28 12  1  1  0  0  0
 28 29  1  0  0  0  0
 28 33  1  0  0  0  0
 29 30  1  0  0  0  0
 29 36  1  6  0  0  0
 30 31  1  0  0  0  0
 30 37  1  1  0  0  0
 31 32  1  0  0  0  0
 31 34  1  6  0  0  0
 32 33  1  0  0  0  0
 33 35  1  6  0  0  0
M  END
>  <CHROM.1>
177.50714539,56.57773271,175.25464083,169.79555220,-175.39518360,55.13832473
33.66970186,8.35827927,17.88511798,-2.75259884,-0.36660450,-1.30357272

>  <Name>
1yrj_lig

>  <RI>
0

>  <Rbt.Current_Directory>
/home/itssahil/PROJECTS/Mol_Feturizer/New_Systems/rnas/1yrj

>  <Rbt.Executable>
rbdock ($Id: //depot/dev/client3/rdock/2013.1/src/exe/rbdock.cxx#4 $)

>  <Rbt.Library>
libRbt.so (2013.1, Build901 2013/11/27)

>  <Rbt.Parameter_File>
/export/apps/rDock/src/rDock_2013.1_src/data/scripts/dock_solv.prm

>  <Rbt.Receptor>
prm/blind_docking_100.prm

>  <SCORE>
-12.6214

>  <SCORE.INTER>
-6.24366

>  <SCORE.INTER.CONST>
1

>  <SCORE.INTER.POLAR>
0

>  <SCORE.INTER.ROT>
6

>  <SCORE.INTER.SOLV>
11.6562

>  <SCORE.INTER.VDW>
-15.6478

>  <SCORE.INTER.norm>
-0.168748

>  <SCORE.INTRA>
-6.37777

>  <SCORE.INTRA.DIHEDRAL>
-14.6805

>  <SCORE.INTRA.DIHEDRAL.0>
15.6389

>  <SCORE.INTRA.POLAR>
0

>  <SCORE.INTRA.POLAR.0>
0

>  <SCORE.INTRA.REPUL>
0.00270301

>  <SCORE.INTRA.REPUL.0>
0

>  <SCORE.INTRA.SOLV>
-2.70997

>  <SCORE.INTRA.SOLV.lig_0>
-90.9181

>  <SCORE.INTRA.VDW>
2.30395

>  <SCORE.INTRA.VDW.0>
-3.14158

>  <SCORE.INTRA.norm>
-0.172372

>  <SCORE.RESTR>
0

>  <SCORE.RESTR.CAVITY>
0

>  <SCORE.RESTR.norm>
0

>  <SCORE.SYSTEM>
0

>  <SCORE.SYSTEM.CONST>
0

>  <SCORE.SYSTEM.DIHEDRAL>
0

>  <SCORE.SYSTEM.SOLV>
0

>  <SCORE.SYSTEM.norm>
0

>  <SCORE.heavy>
37

>  <SCORE.norm>
-0.34112

>  <RMSD>
14.541

$$$$
1yrj_lig
 OpenBabel11021811423D
libRbt.so/2013.1/901 2013/11/27
 37 40  0  0  0  0  0  0  0  0999 V2000
   35.8781    4.7137   17.7738 C   0  0  1  0  0  0  0  0  0  0  0  0
   34.9428    3.5038   17.9653 C   0  0  1  0  0  0  0  0  0  0  0  0
   33.5116    3.8077   17.4944 C   0  0  0  0  0  0  0  0  0  0  0  0
   32.9730    5.0729   18.2120 C   0  0  1  0  0  0  0  0  0  0  0  0
   33.9109    6.2668   17.9515 C   0  0  1  0  0  0  0  0  0  0  0  0
   33.3309    7.5490   18.6847 C   0  0  1  0  0  0  0  0  0  0  0  0
   31.9206    7.8549   18.1546 C   0  0  1  0  0  0  0  0  0  0  0  0
   31.0335    6.6094   18.3955 C   0  0  2  0  0  0  0  0  0  0  0  0
   31.5098   10.3696   18.0352 C   0  0  0  0  0  0  0  0  0  0  0  0
   35.4558    2.3002   17.2906 N   0  0  0  0  0  0  0  0  0  0  0  0
   31.3865    9.0919   18.8042 N   0  0  0  0  0  0  0  0  0  0  0  0
   36.2478    4.9463   16.4018 O   0  0  0  0  0  0  0  0  0  0  0  0
   35.2671    5.8992   18.4064 O   0  0  0  0  0  0  0  0  0  0  0  0
   31.6082    5.4311   17.7628 O   0  0  0  0  0  0  0  0  0  0  0  0
   33.2122    7.2856   20.0672 O   0  0  0  0  0  0  0  0  0  0  0  0
   29.7156    6.7850   17.8741 O   0  0  0  0  0  0  0  0  0  0  0  0
   28.7993    5.7385   18.2727 C   0  0  2  0  0  0  0  0  0  0  0  0
   27.3212    6.1388   18.1368 C   0  0  1  0  0  0  0  0  0  0  0  0
   26.9361    7.2214   19.1800 C   0  0  2  0  0  0  0  0  0  0  0  0
   27.2222    6.7159   20.5755 C   0  0  1  0  0  0  0  0  0  0  0  0
   28.7211    6.3499   20.6890 C   0  0  1  0  0  0  0  0  0  0  0  0
   29.0902    5.7823   22.0578 C   0  0  0  0  0  0  0  0  0  0  0  0
   26.8505    7.7681   21.5440 N   0  0  0  0  0  0  0  0  0  0  0  0
   29.0595    5.3358   19.6745 O   0  0  0  0  0  0  0  0  0  0  0  0
   27.0939    6.5781   16.7898 O   0  0  0  0  0  0  0  0  0  0  0  0
   25.5365    7.5162   19.0754 O   0  0  0  0  0  0  0  0  0  0  0  0
   30.4351    5.3834   22.0503 O   0  0  0  0  0  0  0  0  0  0  0  0
   36.4278    6.3293   15.7940 C   0  0  1  0  0  0  0  0  0  0  0  0
   37.6525    6.9726   16.4813 C   0  0  1  0  0  0  0  0  0  0  0  0
   37.9627    8.3657   15.8820 C   0  0  2  0  0  0  0  0  0  0  0  0
   38.2243    8.2416   14.3763 C   0  0  1  0  0  0  0  0  0  0  0  0
   36.9882    7.6310   13.6678 C   0  0  0  0  0  0  0  0  0  0  0  0
   36.7093    6.2475   14.2644 C   0  0  2  0  0  0  0  0  0  0  0  0
   38.5092    9.5781   13.8079 N   0  0  0  0  0  0  0  0  0  0  0  0
   35.5527    5.6997   13.5608 N   0  0  0  0  0  0  0  0  0  0  0  0
   37.3750    7.1277   17.8901 O   0  0  0  0  0  0  0  0  0  0  0  0
   39.1269    8.9080   16.5417 O   0  0  0  0  0  0  0  0  0  0  0  0
  1  2  1  0  0  0  0
  1 12  1  6  0  0  0
  1 13  1  0  0  0  0
  2  3  1  0  0  0  0
  2 10  1  6  0  0  0
  4  3  1  6  0  0  0
  4  5  1  0  0  0  0
  4 14  1  0  0  0  0
  5  6  1  0  0  0  0
  5 13  1  1  0  0  0
  6  7  1  0  0  0  0
  6 15  1  1  0  0  0
  7  8  1  0  0  0  0
  7 11  1  1  0  0  0
  8 14  1  0  0  0  0
  8 16  1  6  0  0  0
  9 11  1  0  0  0  0
 17 16  1  1  0  0  0
 17 18  1  0  0  0  0
 17 24  1  0  0  0  0
 18 19  1  0  0  0  0
 18 25  1  6  0  0  0
 19 20  1  0  0  0  0
 19 26  1  1  0  0  0
 20 21  1  0  0  0  0
 20 23  1  1  0  0  0
 21 22  1  1  0  0  0
 21 24  1  0  0  0  0
 22 27  1  0  0  0  0
 28 12  1  1  0  0  0
 28 29  1  0  0  0  0
 28 33  1  0  0  0  0
 29 30  1  0  0  0  0
 29 36  1  1  0  0  0
 30 31  1  0  0  0  0
 30 37  1  1  0  0  0
 31 32  1  0  0  0  0
 31 34  1  6  0  0  0
 32 33  1  0  0  0  0
 33 35  1  6  0  0  0
M  END
>  <CHROM.1>
143.52776384,97.98517121,-170.36365618,160.48298839,175.62032196,66.40186354
32.76709053,6.57736987,17.85579615,-0.20197754,-0.36027897,2.69681585

>  <Name>
1yrj_lig

>  <RI>
0

>  <Rbt.Current_Directory>
/home/itssahil/PROJECTS/Mol_Feturizer/New_Systems/rnas/1yrj

>  <Rbt.Executable>
rbdock ($Id: //depot/dev/client3/rdock/2013.1/src/exe/rbdock.cxx#4 $)

>  <Rbt.Library>
libRbt.so (2013.1, Build901 2013/11/27)

>  <Rbt.Parameter_File>
/export/apps/rDock/src/rDock_2013.1_src/data/scripts/dock_solv.prm

>  <Rbt.Receptor>
prm/blind_docking_100.prm

>  <SCORE>
-17.2305

>  <SCORE.INTER>
-13.4729

>  <SCORE.INTER.CONST>
1

>  <SCORE.INTER.POLAR>
-2.0255

>  <SCORE.INTER.ROT>
6

>  <SCORE.INTER.SOLV>
25.1951

>  <SCORE.INTER.VDW>
-18.2286

>  <SCORE.INTER.norm>
-0.364131

>  <SCORE.INTRA>
-3.75761

>  <SCORE.INTRA.DIHEDRAL>
-7.54986

>  <SCORE.INTRA.DIHEDRAL.0>
15.6389

>  <SCORE.INTRA.POLAR>
0

>  <SCORE.INTRA.POLAR.0>
0

>  <SCORE.INTRA.REPUL>
0.0205072

>  <SCORE.INTRA.REPUL.0>
0

>  <SCORE.INTRA.SOLV>
-2.24876

>  <SCORE.INTRA.SOLV.lig_0>
-90.9181

>  <SCORE.INTRA.VDW>
1.03916

>  <SCORE.INTRA.VDW.0>
-3.14158

>  <SCORE.INTRA.norm>
-0.101557

>  <SCORE.RESTR>
0

>  <SCORE.RESTR.CAVITY>
0

>  <SCORE.RESTR.norm>
0

>  <SCORE.SYSTEM>
0

>  <SCORE.SYSTEM.CONST>
0

>  <SCORE.SYSTEM.DIHEDRAL>
0

>  <SCORE.SYSTEM.SOLV>
0

>  <SCORE.SYSTEM.norm>
0

>  <SCORE.heavy>
37

>  <SCORE.norm>
-0.465688

>  <RMSD>
14.549

$$$$
1yrj_lig
 OpenBabel11021811423D
libRbt.so/2013.1/901 2013/11/27
 37 40  0  0  0  0  0  0  0  0999 V2000
   36.0816    6.6098   15.5455 C   0  0  1  0  0  0  0  0  0  0  0  0
   35.1311    5.9695   14.5150 C   0  0  1  0  0  0  0  0  0  0  0  0
   33.6914    6.4857   14.6676 C   0  0  0  0  0  0  0  0  0  0  0  0
   33.1989    6.2658   16.1218 C   0  0  1  0  0  0  0  0  0  0  0  0
   34.1496    6.9645   17.1122 C   0  0  1  0  0  0  0  0  0  0  0  0
   33.6164    6.7353   18.5891 C   0  0  1  0  0  0  0  0  0  0  0  0
   32.1958    7.3078   18.7214 C   0  0  1  0  0  0  0  0  0  0  0  0
   31.2944    6.6096   17.6744 C   0  0  2  0  0  0  0  0  0  0  0  0
   32.1771    8.1417   21.1320 C   0  0  0  0  0  0  0  0  0  0  0  0
   35.6006    6.1713   13.1344 N   0  0  0  0  0  0  0  0  0  0  0  0
   31.7052    7.1410   20.1246 N   0  0  0  0  0  0  0  0  0  0  0  0
   36.4117    7.9805   15.2530 O   0  0  0  0  0  0  0  0  0  0  0  0
   35.5127    6.4384   16.8966 O   0  0  0  0  0  0  0  0  0  0  0  0
   31.8273    6.7830   16.3309 O   0  0  0  0  0  0  0  0  0  0  0  0
   33.5371    5.3495   18.8496 O   0  0  0  0  0  0  0  0  0  0  0  0
   29.9640    7.1287   17.6859 O   0  0  0  0  0  0  0  0  0  0  0  0
   28.9569    6.1144   17.9106 C   0  0  2  0  0  0  0  0  0  0  0  0
   27.5197    6.6392   17.7603 C   0  0  1  0  0  0  0  0  0  0  0  0
   27.1563    7.6141   18.9117 C   0  0  2  0  0  0  0  0  0  0  0  0
   27.3317    6.9237   20.2449 C   0  0  1  0  0  0  0  0  0  0  0  0
   28.7931    6.4340   20.3783 C   0  0  1  0  0  0  0  0  0  0  0  0
   29.0483    5.6791   21.6809 C   0  0  0  0  0  0  0  0  0  0  0  0
   26.9834    7.8766   21.3192 N   0  0  0  0  0  0  0  0  0  0  0  0
   29.1134    5.5269   19.2617 O   0  0  0  0  0  0  0  0  0  0  0  0
   27.3956    7.2537   16.4695 O   0  0  0  0  0  0  0  0  0  0  0  0
   25.7882    8.0247   18.7827 O   0  0  0  0  0  0  0  0  0  0  0  0
   30.3927    5.2822   21.7346 O   0  0  0  0  0  0  0  0  0  0  0  0
   36.8559    8.9890   16.3018 C   0  0  1  0  0  0  0  0  0  0  0  0
   38.2292    8.5201   16.8313 C   0  0  1  0  0  0  0  0  0  0  0  0
   38.8029    9.5217   17.8626 C   0  0  2  0  0  0  0  0  0  0  0  0
   38.9445   10.9082   17.2233 C   0  0  1  0  0  0  0  0  0  0  0  0
   37.5661   11.4077   16.7201 C   0  0  0  0  0  0  0  0  0  0  0  0
   37.0248   10.4111   15.6897 C   0  0  2  0  0  0  0  0  0  0  0  0
   39.4829   11.8631   18.2177 N   0  0  0  0  0  0  0  0  0  0  0  0
   35.7379   10.9245   15.2280 N   0  0  0  0  0  0  0  0  0  0  0  0
   38.0735    7.2355   17.4728 O   0  0  0  0  0  0  0  0  0  0  0  0
   40.0935    9.0481   18.3039 O   0  0  0  0  0  0  0  0  0  0  0  0
  1  2  1  0  0  0  0
  1 12  1  6  0  0  0
  1 13  1  0  0  0  0
  2  3  1  0  0  0  0
  2 10  1  6  0  0  0
  4  3  1  6  0  0  0
  4  5  1  0  0  0  0
  4 14  1  0  0  0  0
  5  6  1  0  0  0  0
  5 13  1  1  0  0  0
  6  7  1  0  0  0  0
  6 15  1  6  0  0  0
  7  8  1  0  0  0  0
  7 11  1  1  0  0  0
  8 14  1  0  0  0  0
  8 16  1  6  0  0  0
  9 11  1  0  0  0  0
 17 16  1  1  0  0  0
 17 18  1  0  0  0  0
 17 24  1  0  0  0  0
 18 19  1  0  0  0  0
 18 25  1  6  0  0  0
 19 20  1  0  0  0  0
 19 26  1  6  0  0  0
 20 21  1  0  0  0  0
 20 23  1  1  0  0  0
 21 22  1  1  0  0  0
 21 24  1  0  0  0  0
 22 27  1  0  0  0  0
 28 12  1  6  0  0  0
 28 29  1  0  0  0  0
 28 33  1  0  0  0  0
 29 30  1  0  0  0  0
 29 36  1  1  0  0  0
 30 31  1  0  0  0  0
 30 37  1  6  0  0  0
 31 32  1  0  0  0  0
 31 34  1  1  0  0  0
 32 33  1  0  0  0  0
 33 35  1  1  0  0  0
M  END
>  <CHROM.1>
155.66556090,80.39822312,-123.39333968,-173.24366198,-179.35078001,66.26688190
33.08890531,7.54906928,17.76922373,0.19834852,-0.31006064,-1.85843247

>  <Name>
1yrj_lig

>  <RI>
224

>  <Rbt.Current_Directory>
/home/itssahil/PROJECTS/Mol_Feturizer/New_Systems/rnas/1yrj

>  <Rbt.Executable>
rbdock ($Id: //depot/dev/client3/rdock/2013.1/src/exe/rbdock.cxx#4 $)

>  <Rbt.Library>
libRbt.so (2013.1, Build901 2013/11/27)

>  <Rbt.Parameter_File>
/export/apps/rDock/src/rDock_2013.1_src/data/scripts/dock_solv.prm

>  <Rbt.Receptor>
prm/blind_docking_80.prm

>  <SCORE>
-19.1448

>  <SCORE.INTER>
-15.7539

>  <SCORE.INTER.CONST>
1

>  <SCORE.INTER.POLAR>
-1.40965

>  <SCORE.INTER.ROT>
6

>  <SCORE.INTER.SOLV>
24.8244

>  <SCORE.INTER.VDW>
-21.6785

>  <SCORE.INTER.norm>
-0.42578

>  <SCORE.INTRA>
-3.39092

>  <SCORE.INTRA.DIHEDRAL>
-5.18843

>  <SCORE.INTRA.DIHEDRAL.0>
15.6389

>  <SCORE.INTRA.POLAR>
0

>  <SCORE.INTRA.POLAR.0>
0

>  <SCORE.INTRA.REPUL>
0

>  <SCORE.INTRA.REPUL.0>
0

>  <SCORE.INTRA.SOLV>
-0.544134

>  <SCORE.INTRA.SOLV.lig_0>
-90.9181

>  <SCORE.INTRA.VDW>
-0.524636

>  <SCORE.INTRA.VDW.0>
-3.14158

>  <SCORE.INTRA.norm>
-0.0916464

>  <SCORE.RESTR>
0

>  <SCORE.RESTR.CAVITY>
0

>  <SCORE.RESTR.norm>
0

>  <SCORE.SYSTEM>
0

>  <SCORE.SYSTEM.CONST>
0

>  <SCORE.SYSTEM.DIHEDRAL>
0

>  <SCORE.SYSTEM.SOLV>
0

>  <SCORE.SYSTEM.norm>
0

>  <SCORE.heavy>
37

>  <SCORE.norm>
-0.517427

>  <RMSD>
14.557

$$$$
1yrj_lig
 OpenBabel11021811423D
libRbt.so/2013.1/901 2013/11/27
 37 40  0  0  0  0  0  0  0  0999 V2000
   32.2054    6.9244   21.0993 C   0  0  1  0  0  0  0  0  0  0  0  0
   32.9200    7.9169   22.0373 C   0  0  1  0  0  0  0  0  0  0  0  0
   33.9158    8.8065   21.2762 C   0  0  0  0  0  0  0  0  0  0  0  0
   34.9234    7.9262   20.4917 C   0  0  1  0  0  0  0  0  0  0  0  0
   34.1681    6.9874   19.5319 C   0  0  1  0  0  0  0  0  0  0  0  0
   35.2211    6.1088   18.7336 C   0  0  1  0  0  0  0  0  0  0  0  0
   36.1686    7.0266   17.9440 C   0  0  1  0  0  0  0  0  0  0  0  0
   36.8637    7.9799   18.9462 C   0  0  2  0  0  0  0  0  0  0  0  0
   36.8723    6.0857   15.6799 C   0  0  0  0  0  0  0  0  0  0  0  0
   31.9651    8.7487   22.7879 N   0  0  0  0  0  0  0  0  0  0  0  0
   37.1326    6.2048   17.1487 N   0  0  0  0  0  0  0  0  0  0  0  0
   31.2068    7.5375   20.2626 O   0  0  0  0  0  0  0  0  0  0  0  0
   33.2177    6.1809   20.3240 O   0  0  0  0  0  0  0  0  0  0  0  0
   35.8827    8.7383   19.7087 O   0  0  0  0  0  0  0  0  0  0  0  0
   36.0102    5.3764   19.6476 O   0  0  0  0  0  0  0  0  0  0  0  0
   37.7199    8.9137   18.2870 O   0  0  0  0  0  0  0  0  0  0  0  0
   37.0495   10.1419   17.9185 C   0  0  2  0  0  0  0  0  0  0  0  0
   36.5041   10.1305   16.4811 C   0  0  1  0  0  0  0  0  0  0  0  0
   37.6583   10.1528   15.4441 C   0  0  2  0  0  0  0  0  0  0  0  0
   38.5300   11.3668   15.6705 C   0  0  1  0  0  0  0  0  0  0  0  0
   39.0866   11.3340   17.1136 C   0  0  1  0  0  0  0  0  0  0  0  0
   39.9431   12.5537   17.4460 C   0  0  0  0  0  0  0  0  0  0  0  0
   39.6202   11.3576   14.6732 N   0  0  0  0  0  0  0  0  0  0  0  0
   37.9683   11.2938   18.0729 O   0  0  0  0  0  0  0  0  0  0  0  0
   35.6588    8.9811   16.3276 O   0  0  0  0  0  0  0  0  0  0  0  0
   37.1149   10.2175   14.1184 O   0  0  0  0  0  0  0  0  0  0  0  0
   41.0503   12.5949   16.5856 O   0  0  0  0  0  0  0  0  0  0  0  0
   30.2928    6.7627   19.3252 C   0  0  1  0  0  0  0  0  0  0  0  0
   29.0728    6.3047   20.1546 C   0  0  1  0  0  0  0  0  0  0  0  0
   28.0432    5.5598   19.2707 C   0  0  2  0  0  0  0  0  0  0  0  0
   27.5762    6.4711   18.1295 C   0  0  1  0  0  0  0  0  0  0  0  0
   28.7868    6.9090   17.2661 C   0  0  0  0  0  0  0  0  0  0  0  0
   29.7844    7.6575   18.1562 C   0  0  2  0  0  0  0  0  0  0  0  0
   26.6008    5.7491   17.2823 N   0  0  0  0  0  0  0  0  0  0  0  0
   30.8981    8.0677   17.3053 N   0  0  0  0  0  0  0  0  0  0  0  0
   29.5200    5.4098   21.1962 O   0  0  0  0  0  0  0  0  0  0  0  0
   26.9167    5.1777   20.0891 O   0  0  0  0  0  0  0  0  0  0  0  0
  1  2  1  0  0  0  0
  1 12  1  6  0  0  0
  1 13  1  0  0  0  0
  2  3  1  0  0  0  0
  2 10  1  6  0  0  0
  4  3  1  6  0  0  0
  4  5  1  0  0  0  0
  4 14  1  0  0  0  0
  5  6  1  0  0  0  0
  5 13  1  1  0  0  0
  6  7  1  0  0  0  0
  6 15  1  1  0  0  0
  7  8  1  0  0  0  0
  7 11  1  1  0  0  0
  8 14  1  0  0  0  0
  8 16  1  6  0  0  0
  9 11  1  0  0  0  0
 17 16  1  6  0  0  0
 17 18  1  0  0  0  0
 17 24  1  0  0  0  0
 18 19  1  0  0  0  0
 18 25  1  1  0  0  0
 19 20  1  0  0  0  0
 19 26  1  6  0  0  0
 20 21  1  0  0  0  0
 20 23  1  6  0  0  0
 21 22  1  1  0  0  0
 21 24  1  0  0  0  0
 22 27  1  0  0  0  0
 28 12  1  1  0  0  0
 28 29  1  0  0  0  0
 28 33  1  0  0  0  0
 29 30  1  0  0  0  0
 29 36  1  1  0  0  0
 30 31  1  0  0  0  0
 30 37  1  1  0  0  0
 31 32  1  0  0  0  0
 31 34  1  6  0  0  0
 32 33  1  0  0  0  0
 33 35  1  6  0  0  0
M  END
>  <CHROM.1>
-175.36805510,103.40735535,90.17133104,-93.91273448,-61.26945353,86.03208484
34.20279487,8.15526060,18.42652444,-2.77944179,-0.35589405,-1.34889669

>  <Name>
1yrj_lig

>  <RI>
0

>  <Rbt.Current_Directory>
/home/itssahil/PROJECTS/Mol_Feturizer/New_Systems/rnas/1yrj

>  <Rbt.Executable>
rbdock ($Id: //depot/dev/client3/rdock/2013.1/src/exe/rbdock.cxx#4 $)

>  <Rbt.Library>
libRbt.so (2013.1, Build901 2013/11/27)

>  <Rbt.Parameter_File>
/export/apps/rDock/src/rDock_2013.1_src/data/scripts/dock_solv.prm

>  <Rbt.Receptor>
prm/blind_docking_60.prm

>  <SCORE>
-6.85194

>  <SCORE.INTER>
-7.23939

>  <SCORE.INTER.CONST>
1

>  <SCORE.INTER.POLAR>
0

>  <SCORE.INTER.ROT>
6

>  <SCORE.INTER.SOLV>
19.6164

>  <SCORE.INTER.VDW>
-18.965

>  <SCORE.INTER.norm>
-0.195659

>  <SCORE.INTRA>
0.384871

>  <SCORE.INTRA.DIHEDRAL>
-3.65007

>  <SCORE.INTRA.DIHEDRAL.0>
15.6389

>  <SCORE.INTRA.POLAR>
0

>  <SCORE.INTRA.POLAR.0>
0

>  <SCORE.INTRA.REPUL>
0

>  <SCORE.INTRA.REPUL.0>
0

>  <SCORE.INTRA.SOLV>
0.156279

>  <SCORE.INTRA.SOLV.lig_0>
-90.9181

>  <SCORE.INTRA.VDW>
2.13176

>  <SCORE.INTRA.VDW.0>
-3.14158

>  <SCORE.INTRA.norm>
0.0104019

>  <SCORE.RESTR>
0.00257753

>  <SCORE.RESTR.CAVITY>
0.00257753

>  <SCORE.RESTR.norm>
6.96631e-05

>  <SCORE.SYSTEM>
0

>  <SCORE.SYSTEM.CONST>
0

>  <SCORE.SYSTEM.DIHEDRAL>
0

>  <SCORE.SYSTEM.SOLV>
0

>  <SCORE.SYSTEM.norm>
0

>  <SCORE.heavy>
37

>  <SCORE.norm>
-0.185187

>  <RMSD>
14.563

$$$$
1yrj_lig
 OpenBabel11021811423D
libRbt.so/2013.1/901 2013/11/27
 37 40  0  0  0  0  0  0  0  0999 V2000
   30.6499    9.5818   20.1276 C   0  0  1  0  0  0  0  0  0  0  0  0
   31.3005   10.9276   19.7521 C   0  0  1  0  0  0  0  0  0  0  0  0
   32.3617   10.7622   18.6526 C   0  0  0  0  0  0  0  0  0  0  0  0
   33.4173    9.7118   19.0859 C   0  0  1  0  0  0  0  0  0  0  0  0
   32.7284    8.3707   19.4020 C   0  0  1  0  0  0  0  0  0  0  0  0
   33.8304    7.3119   19.8294 C   0  0  1  0  0  0  0  0  0  0  0  0
   34.8457    7.1325   18.6891 C   0  0  1  0  0  0  0  0  0  0  0  0
   35.4716    8.5138   18.3781 C   0  0  2  0  0  0  0  0  0  0  0  0
   36.0258    4.9412   18.1304 C   0  0  0  0  0  0  0  0  0  0  0  0
   30.2995   11.9280   19.3471 N   0  0  0  0  0  0  0  0  0  0  0  0
   35.8595    6.0986   19.0641 N   0  0  0  0  0  0  0  0  0  0  0  0
   29.7255    9.0915   19.1385 O   0  0  0  0  0  0  0  0  0  0  0  0
   31.7110    8.6066   20.4464 O   0  0  0  0  0  0  0  0  0  0  0  0
   34.4428    9.4872   18.0416 O   0  0  0  0  0  0  0  0  0  0  0  0
   34.5386    7.7981   20.9503 O   0  0  0  0  0  0  0  0  0  0  0  0
   36.3861    8.4500   17.2830 O   0  0  0  0  0  0  0  0  0  0  0  0
   37.6226    7.7735   17.6101 C   0  0  2  0  0  0  0  0  0  0  0  0
   38.4993    8.5534   18.6035 C   0  0  1  0  0  0  0  0  0  0  0  0
   39.0793    9.8363   17.9508 C   0  0  2  0  0  0  0  0  0  0  0  0
   39.8723    9.4723   16.7165 C   0  0  1  0  0  0  0  0  0  0  0  0
   38.9563    8.7159   15.7255 C   0  0  1  0  0  0  0  0  0  0  0  0
   39.6914    8.2655   14.4651 C   0  0  0  0  0  0  0  0  0  0  0  0
   40.4066   10.7122   16.1161 N   0  0  0  0  0  0  0  0  0  0  0  0
   38.4066    7.5151   16.3799 O   0  0  0  0  0  0  0  0  0  0  0  0
   37.7132    8.8448   19.7680 O   0  0  0  0  0  0  0  0  0  0  0  0
   39.9501   10.4983   18.8784 O   0  0  0  0  0  0  0  0  0  0  0  0
   40.8038    7.4905   14.8254 O   0  0  0  0  0  0  0  0  0  0  0  0
   28.8867    7.8339   19.3102 C   0  0  1  0  0  0  0  0  0  0  0  0
   27.4291    8.2876   19.5458 C   0  0  1  0  0  0  0  0  0  0  0  0
   26.4775    7.0727   19.6667 C   0  0  2  0  0  0  0  0  0  0  0  0
   26.5515    6.2209   18.3940 C   0  0  1  0  0  0  0  0  0  0  0  0
   28.0031    5.7275   18.1650 C   0  0  0  0  0  0  0  0  0  0  0  0
   28.9242    6.9448   18.0320 C   0  0  2  0  0  0  0  0  0  0  0  0
   25.6480    5.0555   18.5208 N   0  0  0  0  0  0  0  0  0  0  0  0
   30.2749    6.4401   17.8003 N   0  0  0  0  0  0  0  0  0  0  0  0
   27.3645    9.0483   20.7718 O   0  0  0  0  0  0  0  0  0  0  0  0
   25.1301    7.5538   19.8604 O   0  0  0  0  0  0  0  0  0  0  0  0
  1  2  1  0  0  0  0
  1 12  1  6  0  0  0
  1 13  1  0  0  0  0
  2  3  1  0  0  0  0
  2 10  1  6  0  0  0
  4  3  1  6  0  0  0
  4  5  1  0  0  0  0
  4 14  1  0  0  0  0
  5  6  1  0  0  0  0
  5 13  1  1  0  0  0
  6  7  1  0  0  0  0
  6 15  1  1  0  0  0
  7  8  1  0  0  0  0
  7 11  1  1  0  0  0
  8 14  1  0  0  0  0
  8 16  1  6  0  0  0
  9 11  1  0  0  0  0
 17 16  1  6  0  0  0
 17 18  1  0  0  0  0
 17 24  1  0  0  0  0
 18 19  1  0  0  0  0
 18 25  1  1  0  0  0
 19 20  1  0  0  0  0
 19 26  1  1  0  0  0
 20 21  1  0  0  0  0
 20 23  1  6  0  0  0
 21 22  1  6  0  0  0
 21 24  1  0  0  0  0
 22 27  1  0  0  0  0
 28 12  1  6  0  0  0
 28 29  1  0  0  0  0
 28 33  1  0  0  0  0
 29 30  1  0  0  0  0
 29 36  1  1  0  0  0
 30 31  1  0  0  0  0
 30 37  1  6  0  0  0
 31 32  1  0  0  0  0
 31 34  1  1  0  0  0
 32 33  1  0  0  0  0
 33 35  1  1  0  0  0
M  END
>  <CHROM.1>
-175.88893952,124.24606778,-71.93199796,-68.48447021,55.44475940,107.36083348
33.53770143,8.28897386,18.47682718,-3.13599845,-0.22202354,-2.68518051

>  <Name>
1yrj_lig

>  <RI>
0

>  <Rbt.Current_Directory>
/home/itssahil/PROJECTS/Mol_Feturizer/New_Systems/rnas/1yrj

>  <Rbt.Executable>
rbdock ($Id: //depot/dev/client3/rdock/2013.1/src/exe/rbdock.cxx#4 $)

>  <Rbt.Library>
libRbt.so (2013.1, Build901 2013/11/27)

>  <Rbt.Parameter_File>
/export/apps/rDock/src/rDock_2013.1_src/data/scripts/dock_solv.prm

>  <Rbt.Receptor>
prm/blind_docking_100.prm

>  <SCORE>
-13.0012

>  <SCORE.INTER>
-10.852

>  <SCORE.INTER.CONST>
1

>  <SCORE.INTER.POLAR>
0

>  <SCORE.INTER.ROT>
6

>  <SCORE.INTER.SOLV>
10.98

>  <SCORE.INTER.VDW>
-18.4947

>  <SCORE.INTER.norm>
-0.293297

>  <SCORE.INTRA>
-2.15245

>  <SCORE.INTRA.DIHEDRAL>
-6.73462

>  <SCORE.INTRA.DIHEDRAL.0>
15.6389

>  <SCORE.INTRA.POLAR>
0

>  <SCORE.INTRA.POLAR.0>
0

>  <SCORE.INTRA.REPUL>
0

>  <SCORE.INTRA.REPUL.0>
0

>  <SCORE.INTRA.SOLV>
0.849339

>  <SCORE.INTRA.SOLV.lig_0>
-90.9181

>  <SCORE.INTRA.VDW>
0.790187

>  <SCORE.INTRA.VDW.0>
-3.14158

>  <SCORE.INTRA.norm>
-0.0581744

>  <SCORE.RESTR>
0.00326994

>  <SCORE.RESTR.CAVITY>
0.00326994

>  <SCORE.RESTR.norm>
8.83767e-05

>  <SCORE.SYSTEM>
0

>  <SCORE.SYSTEM.CONST>
0

>  <SCORE.SYSTEM.DIHEDRAL>
0

>  <SCORE.SYSTEM.SOLV>
0

>  <SCORE.SYSTEM.norm>
0

>  <SCORE.heavy>
37

>  <SCORE.norm>
-0.351383

>  <RMSD>
14.570

$$$$
1yrj_lig
 OpenBabel11021811423D
libRbt.so/2013.1/901 2013/11/27
 37 40  0  0  0  0  0  0  0  0999 V2000
   36.2966    4.5330   18.5564 C   0  0  1  0  0  0  0  0  0  0  0  0
   35.2702    3.4134   18.8176 C   0  0  1  0  0  0  0  0  0  0  0  0
   33.8259    3.9118   18.6501 C   0  0  0  0  0  0  0  0  0  0  0  0
   33.5798    5.1441   19.5593 C   0  0  1  0  0  0  0  0  0  0  0  0
   34.5947    6.2548   19.2288 C   0  0  1  0  0  0  0  0  0  0  0  0
   34.3129    7.5065   20.1625 C   0  0  1  0  0  0  0  0  0  0  0  0
   32.8788    8.0110   19.9332 C   0  0  1  0  0  0  0  0  0  0  0  0
   31.9038    6.8460   20.2308 C   0  0  2  0  0  0  0  0  0  0  0  0
   31.4053   10.0294   20.4445 C   0  0  0  0  0  0  0  0  0  0  0  0
   35.5064    2.2402   17.9603 N   0  0  0  0  0  0  0  0  0  0  0  0
   32.6217    9.2220   20.7727 N   0  0  0  0  0  0  0  0  0  0  0  0
   36.4439    4.8681   17.1639 O   0  0  0  0  0  0  0  0  0  0  0  0
   35.9551    5.7028   19.3893 O   0  0  0  0  0  0  0  0  0  0  0  0
   32.2108    5.6870   19.4052 O   0  0  0  0  0  0  0  0  0  0  0  0
   34.4091    7.1138   21.5157 O   0  0  0  0  0  0  0  0  0  0  0  0
   30.5458    7.2110   19.9819 O   0  0  0  0  0  0  0  0  0  0  0  0
   30.1434    7.0114   18.6064 C   0  0  2  0  0  0  0  0  0  0  0  0
   29.1175    8.0459   18.1156 C   0  0  1  0  0  0  0  0  0  0  0  0
   27.7446    7.8463   18.8109 C   0  0  2  0  0  0  0  0  0  0  0  0
   27.2418    6.4425   18.5633 C   0  0  1  0  0  0  0  0  0  0  0  0
   28.2809    5.4266   19.0940 C   0  0  1  0  0  0  0  0  0  0  0  0
   27.8745    3.9766   18.8406 C   0  0  0  0  0  0  0  0  0  0  0  0
   25.9382    6.2819   19.2402 N   0  0  0  0  0  0  0  0  0  0  0  0
   29.5768    5.6540   18.4298 O   0  0  0  0  0  0  0  0  0  0  0  0
   29.6546    9.3573   18.3414 O   0  0  0  0  0  0  0  0  0  0  0  0
   26.7931    8.7768   18.2764 O   0  0  0  0  0  0  0  0  0  0  0  0
   28.9867    3.1415   19.0234 O   0  0  0  0  0  0  0  0  0  0  0  0
   36.2137    6.2610   16.5971 C   0  0  1  0  0  0  0  0  0  0  0  0
   37.5224    7.0565   16.7989 C   0  0  1  0  0  0  0  0  0  0  0  0
   37.4137    8.4760   16.1912 C   0  0  2  0  0  0  0  0  0  0  0  0
   37.0947    8.3819   14.6944 C   0  0  1  0  0  0  0  0  0  0  0  0
   35.7636    7.6173   14.4788 C   0  0  0  0  0  0  0  0  0  0  0  0
   35.8989    6.2113   15.0726 C   0  0  2  0  0  0  0  0  0  0  0  0
   36.9813    9.7421   14.1223 N   0  0  0  0  0  0  0  0  0  0  0  0
   34.6351    5.5192   14.8343 N   0  0  0  0  0  0  0  0  0  0  0  0
   37.7862    7.1790   18.2135 O   0  0  0  0  0  0  0  0  0  0  0  0
   38.6684    9.1634   16.3857 O   0  0  0  0  0  0  0  0  0  0  0  0
  1  2  1  0  0  0  0
  1 12  1  6  0  0  0
  1 13  1  0  0  0  0
  2  3  1  0  0  0  0
  2 10  1  6  0  0  0
  4  3  1  6  0  0  0
  4  5  1  0  0  0  0
  4 14  1  0  0  0  0
  5  6  1  0  0  0  0
  5 13  1  1  0  0  0
  6  7  1  0  0  0  0
  6 15  1  1  0  0  0
  7  8  1  0  0  0  0
  7 11  1  1  0  0  0
  8 14  1  0  0  0  0
  8 16  1  6  0  0  0
  9 11  1  0  0  0  0
 17 16  1  1  0  0  0
 17 18  1  0  0  0  0
 17 24  1  0  0  0  0
 18 19  1  0  0  0  0
 18 25  1  1  0  0  0
 19 20  1  0  0  0  0
 19 26  1  6  0  0  0
 20 21  1  0  0  0  0
 20 23  1  1  0  0  0
 21 22  1  6  0  0  0
 21 24  1  0  0  0  0
 22 27  1  0  0  0  0
 28 12  1  6  0  0  0
 28 29  1  0  0  0  0
 28 33  1  0  0  0  0
 29 30  1  0  0  0  0
 29 36  1  1  0  0  0
 30 31  1  0  0  0  0
 30 37  1  6  0  0  0
 31 32  1  0  0  0  0
 31 34  1  1  0  0  0
 32 33  1  0  0  0  0
 33 35  1  1  0  0  0
M  END
>  <CHROM.1>
122.07901261,166.05713815,86.56818665,-146.78836619,164.87679326,83.90259638
32.98325949,6.63846865,18.25696078,-0.09664103,-0.26107343,2.88461598

>  <Name>
1yrj_lig

>  <RI>
224

>  <Rbt.Current_Directory>
/home/itssahil/PROJECTS/Mol_Feturizer/New_Systems/rnas/1yrj

>  <Rbt.Executable>
rbdock ($Id: //depot/dev/client3/rdock/2013.1/src/exe/rbdock.cxx#4 $)

>  <Rbt.Library>
libRbt.so (2013.1, Build901 2013/11/27)

>  <Rbt.Parameter_File>
/export/apps/rDock/src/rDock_2013.1_src/data/scripts/dock_solv.prm

>  <Rbt.Receptor>
prm/blind_docking_80.prm

>  <SCORE>
-7.91037

>  <SCORE.INTER>
-10.6656

>  <SCORE.INTER.CONST>
1

>  <SCORE.INTER.POLAR>
-1.41828

>  <SCORE.INTER.ROT>
6

>  <SCORE.INTER.SOLV>
17.2902

>  <SCORE.INTER.VDW>
-15.7462

>  <SCORE.INTER.norm>
-0.28826

>  <SCORE.INTRA>
2.48356

>  <SCORE.INTRA.DIHEDRAL>
2.03779

>  <SCORE.INTRA.DIHEDRAL.0>
15.6389

>  <SCORE.INTRA.POLAR>
0

>  <SCORE.INTRA.POLAR.0>
0

>  <SCORE.INTRA.REPUL>
0

>  <SCORE.INTRA.REPUL.0>
0

>  <SCORE.INTRA.SOLV>
-1.05327

>  <SCORE.INTRA.SOLV.lig_0>
-90.9181

>  <SCORE.INTRA.VDW>
1.9913

>  <SCORE.INTRA.VDW.0>
-3.14158

>  <SCORE.INTRA.norm>
0.0671232

>  <SCORE.RESTR>
0.271679

>  <SCORE.RESTR.CAVITY>
0.271679

>  <SCORE.RESTR.norm>
0.00734268

>  <SCORE.SYSTEM>
0

>  <SCORE.SYSTEM.CONST>
0

>  <SCORE.SYSTEM.DIHEDRAL>
0

>  <SCORE.SYSTEM.SOLV>
0

>  <SCORE.SYSTEM.norm>
0

>  <SCORE.heavy>
37

>  <SCORE.norm>
-0.213794

>  <RMSD>
14.576

$$$$
1yrj_lig
 OpenBabel11021811423D
libRbt.so/2013.1/901 2013/11/27
 37 40  0  0  0  0  0  0  0  0999 V2000
   30.6533    9.2308   20.3799 C   0  0  1  0  0  0  0  0  0  0  0  0
   31.2185   10.5885   19.9188 C   0  0  1  0  0  0  0  0  0  0  0  0
   32.2677   10.4232   18.8079 C   0  0  0  0  0  0  0  0  0  0  0  0
   33.3897    9.4597   19.2753 C   0  0  1  0  0  0  0  0  0  0  0  0
   32.7850    8.1012   19.6777 C   0  0  1  0  0  0  0  0  0  0  0  0
   33.9536    7.1317   20.1386 C   0  0  1  0  0  0  0  0  0  0  0  0
   34.9573    6.9475   18.9888 C   0  0  1  0  0  0  0  0  0  0  0  0
   35.4968    8.3428   18.5906 C   0  0  2  0  0  0  0  0  0  0  0  0
   36.1103    4.6963   18.6582 C   0  0  0  0  0  0  0  0  0  0  0  0
   30.1543   11.5068   19.4812 N   0  0  0  0  0  0  0  0  0  0  0  0
   36.0355    5.9949   19.3979 N   0  0  0  0  0  0  0  0  0  0  0  0
   29.7413    8.6351   19.4384 O   0  0  0  0  0  0  0  0  0  0  0  0
   31.7744    8.3363   20.7288 O   0  0  0  0  0  0  0  0  0  0  0  0
   34.4078    9.2363   18.2235 O   0  0  0  0  0  0  0  0  0  0  0  0
   34.6525    7.7184   21.2166 O   0  0  0  0  0  0  0  0  0  0  0  0
   36.3939    8.2706   17.4817 O   0  0  0  0  0  0  0  0  0  0  0  0
   37.6700    7.6767   17.8171 C   0  0  2  0  0  0  0  0  0  0  0  0
   38.5501    8.5802   18.6962 C   0  0  1  0  0  0  0  0  0  0  0  0
   39.0489    9.8179   17.9039 C   0  0  2  0  0  0  0  0  0  0  0  0
   39.8086    9.3708   16.6760 C   0  0  1  0  0  0  0  0  0  0  0  0
   38.8883    8.4894   15.7987 C   0  0  1  0  0  0  0  0  0  0  0  0
   39.5929    7.9517   14.5552 C   0  0  0  0  0  0  0  0  0  0  0  0
   40.2656   10.5687   15.9416 N   0  0  0  0  0  0  0  0  0  0  0  0
   38.4164    7.3347   16.5838 O   0  0  0  0  0  0  0  0  0  0  0  0
   37.7976    8.9488   19.8611 O   0  0  0  0  0  0  0  0  0  0  0  0
   39.9255   10.5977   18.7287 O   0  0  0  0  0  0  0  0  0  0  0  0
   38.7026    7.1519   13.8235 O   0  0  0  0  0  0  0  0  0  0  0  0
   29.0577    7.2929   19.6517 C   0  0  1  0  0  0  0  0  0  0  0  0
   27.5378    7.5285   19.5087 C   0  0  1  0  0  0  0  0  0  0  0  0
   26.7509    6.2023   19.6431 C   0  0  2  0  0  0  0  0  0  0  0  0
   27.2192    5.2051   18.5767 C   0  0  1  0  0  0  0  0  0  0  0  0
   28.7370    4.9308   18.7316 C   0  0  0  0  0  0  0  0  0  0  0  0
   29.4968    6.2526   18.5791 C   0  0  2  0  0  0  0  0  0  0  0  0
   26.4710    3.9360   18.7179 N   0  0  0  0  0  0  0  0  0  0  0  0
   30.9193    5.9502   18.7131 N   0  0  0  0  0  0  0  0  0  0  0  0
   27.1009    8.4317   20.5477 O   0  0  0  0  0  0  0  0  0  0  0  0
   25.3432    6.4769   19.4771 O   0  0  0  0  0  0  0  0  0  0  0  0
  1  2  1  0  0  0  0
  1 12  1  6  0  0  0
  1 13  1  0  0  0  0
  2  3  1  0  0  0  0
  2 10  1  6  0  0  0
  4  3  1  6  0  0  0
  4  5  1  0  0  0  0
  4 14  1  0  0  0  0
  5  6  1  0  0  0  0
  5 13  1  1  0  0  0
  6  7  1  0  0  0  0
  6 15  1  1  0  0  0
  7  8  1  0  0  0  0
  7 11  1  1  0  0  0
  8 14  1  0  0  0  0
  8 16  1  6  0  0  0
  9 11  1  0  0  0  0
 17 16  1  6  0  0  0
 17 18  1  0  0  0  0
 17 24  1  0  0  0  0
 18 19  1  0  0  0  0
 18 25  1  1  0  0  0
 19 20  1  0  0  0  0
 19 26  1  1  0  0  0
 20 21  1  0  0  0  0
 20 23  1  6  0  0  0
 21 22  1  6  0  0  0
 21 24  1  0  0  0  0
 22 27  1  0  0  0  0
 28 12  1  6  0  0  0
 28 29  1  0  0  0  0
 28 33  1  0  0  0  0
 29 30  1  0  0  0  0
 29 36  1  1  0  0  0
 30 31  1  0  0  0  0
 30 37  1  6  0  0  0
 31 32  1  0  0  0  0
 31 34  1  1  0  0  0
 32 33  1  0  0  0  0
 33 35  1  1  0  0  0
M  END
>  <CHROM.1>
179.45435652,114.79026127,-71.57390870,-71.29471016,179.25858412,125.12305331
33.58054316,7.93331685,18.61856507,3.10312741,-0.26817953,-2.67358770

>  <Name>
1yrj_lig

>  <RI>
0

>  <Rbt.Current_Directory>
/home/itssahil/PROJECTS/Mol_Feturizer/New_Systems/rnas/1yrj

>  <Rbt.Executable>
rbdock ($Id: //depot/dev/client3/rdock/2013.1/src/exe/rbdock.cxx#4 $)

>  <Rbt.Library>
libRbt.so (2013.1, Build901 2013/11/27)

>  <Rbt.Parameter_File>
/export/apps/rDock/src/rDock_2013.1_src/data/scripts/dock_solv.prm

>  <Rbt.Receptor>
prm/blind_docking_100.prm

>  <SCORE>
-12.8829

>  <SCORE.INTER>
-10.9288

>  <SCORE.INTER.CONST>
1

>  <SCORE.INTER.POLAR>
0

>  <SCORE.INTER.ROT>
6

>  <SCORE.INTER.SOLV>
11.0529

>  <SCORE.INTER.VDW>
-18.5701

>  <SCORE.INTER.norm>
-0.295372

>  <SCORE.INTRA>
-1.95756

>  <SCORE.INTRA.DIHEDRAL>
-6.04164

>  <SCORE.INTRA.DIHEDRAL.0>
15.6389

>  <SCORE.INTRA.POLAR>
0

>  <SCORE.INTRA.POLAR.0>
0

>  <SCORE.INTRA.REPUL>
0

>  <SCORE.INTRA.REPUL.0>
0

>  <SCORE.INTRA.SOLV>
1.45233

>  <SCORE.INTRA.SOLV.lig_0>
-90.9181

>  <SCORE.INTRA.VDW>
0.337099

>  <SCORE.INTRA.VDW.0>
-3.14158

>  <SCORE.INTRA.norm>
-0.0529069

>  <SCORE.RESTR>
0.00343321

>  <SCORE.RESTR.CAVITY>
0.00343321

>  <SCORE.RESTR.norm>
9.27895e-05

>  <SCORE.SYSTEM>
0

>  <SCORE.SYSTEM.CONST>
0

>  <SCORE.SYSTEM.DIHEDRAL>
0

>  <SCORE.SYSTEM.SOLV>
0

>  <SCORE.SYSTEM.norm>
0

>  <SCORE.heavy>
37

>  <SCORE.norm>
-0.348186

>  <RMSD>
14.607

$$$$
1yrj_lig
 OpenBabel11021811423D
libRbt.so/2013.1/901 2013/11/27
 37 40  0  0  0  0  0  0  0  0999 V2000
   35.0150    5.6643   16.9857 C   0  0  1  0  0  0  0  0  0  0  0  0
   34.4004    4.8988   18.1739 C   0  0  1  0  0  0  0  0  0  0  0  0
   32.9641    5.3598   18.4691 C   0  0  0  0  0  0  0  0  0  0  0  0
   32.9335    6.8942   18.6930 C   0  0  1  0  0  0  0  0  0  0  0  0
   33.5095    7.6188   17.4617 C   0  0  1  0  0  0  0  0  0  0  0  0
   33.4545    9.1849   17.7112 C   0  0  1  0  0  0  0  0  0  0  0  0
   31.9998    9.6200   17.9522 C   0  0  1  0  0  0  0  0  0  0  0  0
   31.4540    8.8291   19.1658 C   0  0  2  0  0  0  0  0  0  0  0  0
   31.6851   11.9295   16.9159 C   0  0  0  0  0  0  0  0  0  0  0  0
   34.4348    3.4419   17.9662 N   0  0  0  0  0  0  0  0  0  0  0  0
   31.9329   11.1027   18.1382 N   0  0  0  0  0  0  0  0  0  0  0  0
   34.4919    5.2609   15.7063 O   0  0  0  0  0  0  0  0  0  0  0  0
   34.8772    7.1144   17.2243 O   0  0  0  0  0  0  0  0  0  0  0  0
   31.5625    7.3946   18.9433 O   0  0  0  0  0  0  0  0  0  0  0  0
   34.1862    9.5004   18.8773 O   0  0  0  0  0  0  0  0  0  0  0  0
   30.0813    9.1277   19.4227 O   0  0  0  0  0  0  0  0  0  0  0  0
   29.2097    8.8076   18.3129 C   0  0  2  0  0  0  0  0  0  0  0  0
   27.7340    9.1462   18.5801 C   0  0  1  0  0  0  0  0  0  0  0  0
   27.1292    8.2043   19.6549 C   0  0  2  0  0  0  0  0  0  0  0  0
   27.2718    6.7648   19.2165 C   0  0  1  0  0  0  0  0  0  0  0  0
   28.7680    6.4471   18.9847 C   0  0  1  0  0  0  0  0  0  0  0  0
   29.0012    5.0211   18.4907 C   0  0  0  0  0  0  0  0  0  0  0  0
   26.6924    5.8939   20.2602 N   0  0  0  0  0  0  0  0  0  0  0  0
   29.3174    7.3693   17.9747 O   0  0  0  0  0  0  0  0  0  0  0  0
   27.6487   10.5275   18.9591 O   0  0  0  0  0  0  0  0  0  0  0  0
   25.7357    8.4977   19.8247 O   0  0  0  0  0  0  0  0  0  0  0  0
   28.3369    4.1199   19.3360 O   0  0  0  0  0  0  0  0  0  0  0  0
   34.8381    5.9469   14.3933 C   0  0  1  0  0  0  0  0  0  0  0  0
   34.1090    7.3086   14.3851 C   0  0  1  0  0  0  0  0  0  0  0  0
   34.4519    8.1193   13.1118 C   0  0  2  0  0  0  0  0  0  0  0  0
   35.9660    8.3462   13.0274 C   0  0  1  0  0  0  0  0  0  0  0  0
   36.7092    6.9862   12.9975 C   0  0  0  0  0  0  0  0  0  0  0  0
   36.3688    6.2083   14.2729 C   0  0  2  0  0  0  0  0  0  0  0  0
   36.2878    9.1120   11.8024 N   0  0  0  0  0  0  0  0  0  0  0  0
   37.0997    4.9452   14.2155 N   0  0  0  0  0  0  0  0  0  0  0  0
   32.6833    7.0801   14.4168 O   0  0  0  0  0  0  0  0  0  0  0  0
   33.7655    9.3883   13.1684 O   0  0  0  0  0  0  0  0  0  0  0  0
  1  2  1  0  0  0  0
  1 12  1  6  0  0  0
  1 13  1  0  0  0  0
  2  3  1  0  0  0  0
  2 10  1  6  0  0  0
  4  3  1  6  0  0  0
  4  5  1  0  0  0  0
  4 14  1  0  0  0  0
  5  6  1  0  0  0  0
  5 13  1  1  0  0  0
  6  7  1  0  0  0  0
  6 15  1  1  0  0  0
  7  8  1  0  0  0  0
  7 11  1  1  0  0  0
  8 14  1  0  0  0  0
  8 16  1  6  0  0  0
  9 11  1  0  0  0  0
 17 16  1  1  0  0  0
 17 18  1  0  0  0  0
 17 24  1  0  0  0  0
 18 19  1  0  0  0  0
 18 25  1  1  0  0  0
 19 20  1  0  0  0  0
 19 26  1  6  0  0  0
 20 21  1  0  0  0  0
 20 23  1  1  0  0  0
 21 22  1  6  0  0  0
 21 24  1  0  0  0  0
 22 27  1  0  0  0  0
 28 12  1  1  0  0  0
 28 29  1  0  0  0  0
 28 33  1  0  0  0  0
 29 30  1  0  0  0  0
 29 36  1  6  0  0  0
 30 31  1  0  0  0  0
 30 37  1  1  0  0  0
 31 32  1  0  0  0  0
 31 34  1  6  0  0  0
 32 33  1  0  0  0  0
 33 35  1  6  0  0  0
M  END
>  <CHROM.1>
174.17188283,92.04070084,60.23743160,-179.21174830,-51.13757843,-72.74854702
32.06508323,7.50998647,17.13575728,-0.08229461,-0.58969617,2.84247053

>  <Name>
1yrj_lig

>  <RI>
0

>  <Rbt.Current_Directory>
/home/itssahil/PROJECTS/Mol_Feturizer/New_Systems/rnas/1yrj

>  <Rbt.Executable>
rbdock ($Id: //depot/dev/client3/rdock/2013.1/src/exe/rbdock.cxx#4 $)

>  <Rbt.Library>
libRbt.so (2013.1, Build901 2013/11/27)

>  <Rbt.Parameter_File>
/export/apps/rDock/src/rDock_2013.1_src/data/scripts/dock_solv.prm

>  <Rbt.Receptor>
prm/blind_docking_40.prm

>  <SCORE>
16.8399

>  <SCORE.INTER>
17.1871

>  <SCORE.INTER.CONST>
1

>  <SCORE.INTER.POLAR>
-1.20969

>  <SCORE.INTER.ROT>
6

>  <SCORE.INTER.SOLV>
20.0654

>  <SCORE.INTER.VDW>
1.20193

>  <SCORE.INTER.norm>
0.464517

>  <SCORE.INTRA>
-6.0613

>  <SCORE.INTRA.DIHEDRAL>
-13.6407

>  <SCORE.INTRA.DIHEDRAL.0>
15.6389

>  <SCORE.INTRA.POLAR>
0

>  <SCORE.INTRA.POLAR.0>
0

>  <SCORE.INTRA.REPUL>
0

>  <SCORE.INTRA.REPUL.0>
0

>  <SCORE.INTRA.SOLV>
-0.0980307

>  <SCORE.INTRA.SOLV.lig_0>
-90.9181

>  <SCORE.INTRA.VDW>
0.808038

>  <SCORE.INTRA.VDW.0>
-3.14158

>  <SCORE.INTRA.norm>
-0.163819

>  <SCORE.RESTR>
5.71412

>  <SCORE.RESTR.CAVITY>
5.71412

>  <SCORE.RESTR.norm>
0.154436

>  <SCORE.SYSTEM>
0

>  <SCORE.SYSTEM.CONST>
0

>  <SCORE.SYSTEM.DIHEDRAL>
0

>  <SCORE.SYSTEM.SOLV>
0

>  <SCORE.SYSTEM.norm>
0

>  <SCORE.heavy>
37

>  <SCORE.norm>
0.455133

>  <RMSD>
14.609

$$$$
1yrj_lig
 OpenBabel11021811423D
libRbt.so/2013.1/901 2013/11/27
 37 40  0  0  0  0  0  0  0  0999 V2000
   35.3812    7.2311   15.1786 C   0  0  1  0  0  0  0  0  0  0  0  0
   34.5640    6.0357   14.6507 C   0  0  1  0  0  0  0  0  0  0  0  0
   33.0611    6.2057   14.9241 C   0  0  0  0  0  0  0  0  0  0  0  0
   32.8197    6.4468   16.4371 C   0  0  1  0  0  0  0  0  0  0  0  0
   33.6150    7.6789   16.9086 C   0  0  1  0  0  0  0  0  0  0  0  0
   33.3404    7.9105   18.4543 C   0  0  1  0  0  0  0  0  0  0  0  0
   31.8362    8.1276   18.6861 C   0  0  1  0  0  0  0  0  0  0  0  0
   31.0812    6.8862   18.1520 C   0  0  2  0  0  0  0  0  0  0  0  0
   31.0463    9.7513   20.4878 C   0  0  0  0  0  0  0  0  0  0  0  0
   34.7971    5.8012   13.2162 N   0  0  0  0  0  0  0  0  0  0  0  0
   31.5749    8.3969   20.1341 N   0  0  0  0  0  0  0  0  0  0  0  0
   35.2457    8.4212   14.3796 O   0  0  0  0  0  0  0  0  0  0  0  0
   35.0416    7.4573   16.5971 O   0  0  0  0  0  0  0  0  0  0  0  0
   31.3870    6.6558   16.7475 O   0  0  0  0  0  0  0  0  0  0  0  0
   33.7144    6.7553   19.1756 O   0  0  0  0  0  0  0  0  0  0  0  0
   29.6655    7.0314   18.2717 O   0  0  0  0  0  0  0  0  0  0  0  0
   29.1691    6.7192   19.5944 C   0  0  2  0  0  0  0  0  0  0  0  0
   28.9030    5.2200   19.8070 C   0  0  1  0  0  0  0  0  0  0  0  0
   27.6912    4.7415   18.9639 C   0  0  2  0  0  0  0  0  0  0  0  0
   26.4658    5.5526   19.3178 C   0  0  1  0  0  0  0  0  0  0  0  0
   26.7549    7.0514   19.0655 C   0  0  1  0  0  0  0  0  0  0  0  0
   25.5818    7.9528   19.4439 C   0  0  0  0  0  0  0  0  0  0  0  0
   25.3324    5.0779   18.4973 N   0  0  0  0  0  0  0  0  0  0  0  0
   27.9208    7.4701   19.8641 O   0  0  0  0  0  0  0  0  0  0  0  0
   30.1026    4.4988   19.4909 O   0  0  0  0  0  0  0  0  0  0  0  0
   27.4247    3.3601   19.2427 O   0  0  0  0  0  0  0  0  0  0  0  0
   25.9447    9.2947   19.2556 O   0  0  0  0  0  0  0  0  0  0  0  0
   35.8828    9.7570   14.7317 C   0  0  1  0  0  0  0  0  0  0  0  0
   35.1945   10.2645   16.0181 C   0  0  1  0  0  0  0  0  0  0  0  0
   35.8215   11.5950   16.5006 C   0  0  2  0  0  0  0  0  0  0  0  0
   37.3204   11.4034   16.7608 C   0  0  1  0  0  0  0  0  0  0  0  0
   38.0308   10.9292   15.4673 C   0  0  0  0  0  0  0  0  0  0  0  0
   37.4063    9.6045   15.0170 C   0  0  2  0  0  0  0  0  0  0  0  0
   37.9156   12.6815   17.2110 N   0  0  0  0  0  0  0  0  0  0  0  0
   38.1123    9.1832   13.8099 N   0  0  0  0  0  0  0  0  0  0  0  0
   33.7933   10.4863   15.7469 O   0  0  0  0  0  0  0  0  0  0  0  0
   35.1592   12.0088   17.7150 O   0  0  0  0  0  0  0  0  0  0  0  0
  1  2  1  0  0  0  0
  1 12  1  6  0  0  0
  1 13  1  0  0  0  0
  2  3  1  0  0  0  0
  2 10  1  6  0  0  0
  4  3  1  6  0  0  0
  4  5  1  0  0  0  0
  4 14  1  0  0  0  0
  5  6  1  0  0  0  0
  5 13  1  1  0  0  0
  6  7  1  0  0  0  0
  6 15  1  1  0  0  0
  7  8  1  0  0  0  0
  7 11  1  1  0  0  0
  8 14  1  0  0  0  0
  8 16  1  6  0  0  0
  9 11  1  0  0  0  0
 17 16  1  6  0  0  0
 17 18  1  0  0  0  0
 17 24  1  0  0  0  0
 18 19  1  0  0  0  0
 18 25  1  6  0  0  0
 19 20  1  0  0  0  0
 19 26  1  1  0  0  0
 20 21  1  0  0  0  0
 20 23  1  6  0  0  0
 21 22  1  1  0  0  0
 21 24  1  0  0  0  0
 22 27  1  0  0  0  0
 28 12  1  1  0  0  0
 28 29  1  0  0  0  0
 28 33  1  0  0  0  0
 29 30  1  0  0  0  0
 29 36  1  6  0  0  0
 30 31  1  0  0  0  0
 30 37  1  1  0  0  0
 31 32  1  0  0  0  0
 31 34  1  6  0  0  0
 32 33  1  0  0  0  0
 33 35  1  6  0  0  0
M  END
>  <CHROM.1>
176.25764844,114.99899643,-81.74892779,-85.07825266,176.84273022,-66.75260083
32.22536257,7.87695607,17.43149537,-0.14825517,-0.50742538,-2.65831994

>  <Name>
1yrj_lig

>  <RI>
0

>  <Rbt.Current_Directory>
/home/itssahil/PROJECTS/Mol_Feturizer/New_Systems/rnas/1yrj

>  <Rbt.Executable>
rbdock ($Id: //depot/dev/client3/rdock/2013.1/src/exe/rbdock.cxx#4 $)

>  <Rbt.Library>
libRbt.so (2013.1, Build901 2013/11/27)

>  <Rbt.Parameter_File>
/export/apps/rDock/src/rDock_2013.1_src/data/scripts/dock_solv.prm

>  <Rbt.Receptor>
prm/blind_docking_100.prm

>  <SCORE>
-17.9692

>  <SCORE.INTER>
-12.3775

>  <SCORE.INTER.CONST>
1

>  <SCORE.INTER.POLAR>
-1.05857

>  <SCORE.INTER.ROT>
6

>  <SCORE.INTER.SOLV>
12.8052

>  <SCORE.INTER.VDW>
-16.5915

>  <SCORE.INTER.norm>
-0.334528

>  <SCORE.INTRA>
-5.59343

>  <SCORE.INTRA.DIHEDRAL>
-9.26784

>  <SCORE.INTRA.DIHEDRAL.0>
15.6389

>  <SCORE.INTRA.POLAR>
0

>  <SCORE.INTRA.POLAR.0>
0

>  <SCORE.INTRA.REPUL>
0

>  <SCORE.INTRA.REPUL.0>
0

>  <SCORE.INTRA.SOLV>
-1.04957

>  <SCORE.INTRA.SOLV.lig_0>
-90.9181

>  <SCORE.INTRA.VDW>
-0.434722

>  <SCORE.INTRA.VDW.0>
-3.14158

>  <SCORE.INTRA.norm>
-0.151174

>  <SCORE.RESTR>
0.00178416

>  <SCORE.RESTR.CAVITY>
0.00178416

>  <SCORE.RESTR.norm>
4.82205e-05

>  <SCORE.SYSTEM>
0

>  <SCORE.SYSTEM.CONST>
0

>  <SCORE.SYSTEM.DIHEDRAL>
0

>  <SCORE.SYSTEM.SOLV>
0

>  <SCORE.SYSTEM.norm>
0

>  <SCORE.heavy>
37

>  <SCORE.norm>
-0.485653

>  <RMSD>
14.620

$$$$
1yrj_lig
 OpenBabel11021811423D
libRbt.so/2013.1/901 2013/11/27
 37 40  0  0  0  0  0  0  0  0999 V2000
   35.1719    5.6025   16.9660 C   0  0  1  0  0  0  0  0  0  0  0  0
   34.4971    4.9645   18.1961 C   0  0  1  0  0  0  0  0  0  0  0  0
   33.1619    5.6469   18.5335 C   0  0  0  0  0  0  0  0  0  0  0  0
   33.3758    7.1719   18.7185 C   0  0  1  0  0  0  0  0  0  0  0  0
   34.0044    7.7746   17.4478 C   0  0  1  0  0  0  0  0  0  0  0  0
   34.2001    9.3351   17.6586 C   0  0  1  0  0  0  0  0  0  0  0  0
   32.8405    9.9937   17.9432 C   0  0  1  0  0  0  0  0  0  0  0  0
   32.2308    9.3205   19.1968 C   0  0  2  0  0  0  0  0  0  0  0  0
   32.2550   12.3418   17.1367 C   0  0  0  0  0  0  0  0  0  0  0  0
   34.2995    3.5158   18.0251 N   0  0  0  0  0  0  0  0  0  0  0  0
   33.0091   11.4724   18.0931 N   0  0  0  0  0  0  0  0  0  0  0  0
   34.5407    5.2592   15.7182 O   0  0  0  0  0  0  0  0  0  0  0  0
   35.2677    7.0609   17.1719 O   0  0  0  0  0  0  0  0  0  0  0  0
   32.1091    7.8823   19.0076 O   0  0  0  0  0  0  0  0  0  0  0  0
   35.0192    9.5572   18.7875 O   0  0  0  0  0  0  0  0  0  0  0  0
   30.9318    9.8320   19.4976 O   0  0  0  0  0  0  0  0  0  0  0  0
   29.9924    9.6826   18.4073 C   0  0  2  0  0  0  0  0  0  0  0  0
   28.6141   10.2965   18.7023 C   0  0  1  0  0  0  0  0  0  0  0  0
   27.8634    9.4884   19.7939 C   0  0  2  0  0  0  0  0  0  0  0  0
   27.7199    8.0476   19.3600 C   0  0  1  0  0  0  0  0  0  0  0  0
   29.1230    7.4503   19.0998 C   0  0  1  0  0  0  0  0  0  0  0  0
   29.0699    6.0054   18.6085 C   0  0  0  0  0  0  0  0  0  0  0  0
   27.0069    7.3044   20.4196 N   0  0  0  0  0  0  0  0  0  0  0  0
   29.8171    8.2497   18.0742 O   0  0  0  0  0  0  0  0  0  0  0  0
   28.8014   11.6693   19.0759 O   0  0  0  0  0  0  0  0  0  0  0  0
   26.5551   10.0423   19.9902 O   0  0  0  0  0  0  0  0  0  0  0  0
   28.3494    5.9475   17.4062 O   0  0  0  0  0  0  0  0  0  0  0  0
   34.8538    5.9385   14.3935 C   0  0  1  0  0  0  0  0  0  0  0  0
   34.1238    7.2998   14.3963 C   0  0  1  0  0  0  0  0  0  0  0  0
   34.4346    8.1040   13.1107 C   0  0  2  0  0  0  0  0  0  0  0  0
   35.9460    8.3312   12.9876 C   0  0  1  0  0  0  0  0  0  0  0  0
   36.6890    6.9715   12.9463 C   0  0  0  0  0  0  0  0  0  0  0  0
   36.3808    6.2000   14.2339 C   0  0  2  0  0  0  0  0  0  0  0  0
   36.2369    9.0907   11.7511 N   0  0  0  0  0  0  0  0  0  0  0  0
   37.1108    4.9370   14.1649 N   0  0  0  0  0  0  0  0  0  0  0  0
   32.6995    7.0708   14.4645 O   0  0  0  0  0  0  0  0  0  0  0  0
   33.7490    9.3729   13.1777 O   0  0  0  0  0  0  0  0  0  0  0  0
  1  2  1  0  0  0  0
  1 12  1  6  0  0  0
  1 13  1  0  0  0  0
  2  3  1  0  0  0  0
  2 10  1  6  0  0  0
  4  3  1  6  0  0  0
  4  5  1  0  0  0  0
  4 14  1  0  0  0  0
  5  6  1  0  0  0  0
  5 13  1  1  0  0  0
  6  7  1  0  0  0  0
  6 15  1  1  0  0  0
  7  8  1  0  0  0  0
  7 11  1  1  0  0  0
  8 14  1  0  0  0  0
  8 16  1  6  0  0  0
  9 11  1  0  0  0  0
 17 16  1  1  0  0  0
 17 18  1  0  0  0  0
 17 24  1  0  0  0  0
 18 19  1  0  0  0  0
 18 25  1  1  0  0  0
 19 20  1  0  0  0  0
 19 26  1  6  0  0  0
 20 21  1  0  0  0  0
 20 23  1  1  0  0  0
 21 22  1  6  0  0  0
 21 24  1  0  0  0  0
 22 27  1  0  0  0  0
 28 12  1  1  0  0  0
 28 29  1  0  0  0  0
 28 33  1  0  0  0  0
 29 30  1  0  0  0  0
 29 36  1  6  0  0  0
 30 31  1  0  0  0  0
 30 37  1  1  0  0  0
 31 32  1  0  0  0  0
 31 34  1  6  0  0  0
 32 33  1  0  0  0  0
 33 35  1  6  0  0  0
M  END
>  <CHROM.1>
168.96550569,120.18705125,57.58785364,-177.06255947,59.98597939,-77.70116901
32.44547380,7.97794617,17.11541591,0.11681860,-0.65286841,2.90819732

>  <Name>
1yrj_lig

>  <RI>
0

>  <Rbt.Current_Directory>
/home/itssahil/PROJECTS/Mol_Feturizer/New_Systems/rnas/1yrj

>  <Rbt.Executable>
rbdock ($Id: //depot/dev/client3/rdock/2013.1/src/exe/rbdock.cxx#4 $)

>  <Rbt.Library>
libRbt.so (2013.1, Build901 2013/11/27)

>  <Rbt.Parameter_File>
/export/apps/rDock/src/rDock_2013.1_src/data/scripts/dock_solv.prm

>  <Rbt.Receptor>
prm/blind_docking_40.prm

>  <SCORE>
15.1589

>  <SCORE.INTER>
16.6241

>  <SCORE.INTER.CONST>
1

>  <SCORE.INTER.POLAR>
-1.18753

>  <SCORE.INTER.ROT>
6

>  <SCORE.INTER.SOLV>
20.0781

>  <SCORE.INTER.VDW>
0.748473

>  <SCORE.INTER.norm>
0.449301

>  <SCORE.INTRA>
-6.5103

>  <SCORE.INTRA.DIHEDRAL>
-12.2454

>  <SCORE.INTRA.DIHEDRAL.0>
15.6389

>  <SCORE.INTRA.POLAR>
0

>  <SCORE.INTRA.POLAR.0>
0

>  <SCORE.INTRA.REPUL>
0

>  <SCORE.INTRA.REPUL.0>
0

>  <SCORE.INTRA.SOLV>
-0.405446

>  <SCORE.INTRA.SOLV.lig_0>
-90.9181

>  <SCORE.INTRA.VDW>
-0.184886

>  <SCORE.INTRA.VDW.0>
-3.14158

>  <SCORE.INTRA.norm>
-0.175954

>  <SCORE.RESTR>
5.04508

>  <SCORE.RESTR.CAVITY>
5.04508

>  <SCORE.RESTR.norm>
0.136354

>  <SCORE.SYSTEM>
0

>  <SCORE.SYSTEM.CONST>
0

>  <SCORE.SYSTEM.DIHEDRAL>
0

>  <SCORE.SYSTEM.SOLV>
0

>  <SCORE.SYSTEM.norm>
0

>  <SCORE.heavy>
37

>  <SCORE.norm>
0.4097

>  <RMSD>
14.637

$$$$
1yrj_lig
 OpenBabel11021811423D
libRbt.so/2013.1/901 2013/11/27
 37 40  0  0  0  0  0  0  0  0999 V2000
   36.7473    5.6496   18.9021 C   0  0  1  0  0  0  0  0  0  0  0  0
   35.8582    4.4131   19.1388 C   0  0  1  0  0  0  0  0  0  0  0  0
   34.4794    4.5657   18.4770 C   0  0  0  0  0  0  0  0  0  0  0  0
   33.7964    5.8697   18.9655 C   0  0  1  0  0  0  0  0  0  0  0  0
   34.6971    7.0823   18.6632 C   0  0  1  0  0  0  0  0  0  0  0  0
   33.9703    8.4024   19.1603 C   0  0  1  0  0  0  0  0  0  0  0  0
   32.6191    8.5513   18.4422 C   0  0  1  0  0  0  0  0  0  0  0  0
   31.7737    7.2885   18.7374 C   0  0  2  0  0  0  0  0  0  0  0  0
   31.4978   10.7454   17.7826 C   0  0  0  0  0  0  0  0  0  0  0  0
   36.5077    3.1735   18.6820 N   0  0  0  0  0  0  0  0  0  0  0  0
   31.9501    9.8196   18.8677 N   0  0  0  0  0  0  0  0  0  0  0  0
   37.2647    5.7408   17.5615 O   0  0  0  0  0  0  0  0  0  0  0  0
   36.0067    6.8599   19.3087 O   0  0  0  0  0  0  0  0  0  0  0  0
   32.4781    6.0829   18.3257 O   0  0  0  0  0  0  0  0  0  0  0  0
   33.7022    8.2983   20.5430 O   0  0  0  0  0  0  0  0  0  0  0  0
   30.5197    7.3153   18.0546 O   0  0  0  0  0  0  0  0  0  0  0  0
   29.7989    6.0632   18.1343 C   0  0  2  0  0  0  0  0  0  0  0  0
   28.2851    6.2167   17.9146 C   0  0  1  0  0  0  0  0  0  0  0  0
   27.6204    6.9657   19.1002 C   0  0  2  0  0  0  0  0  0  0  0  0
   27.8967    6.2315   20.3923 C   0  0  1  0  0  0  0  0  0  0  0  0
   29.4257    6.1194   20.5993 C   0  0  1  0  0  0  0  0  0  0  0  0
   29.7973    5.3459   21.8624 C   0  0  0  0  0  0  0  0  0  0  0  0
   27.2565    6.9697   21.5007 N   0  0  0  0  0  0  0  0  0  0  0  0
   30.0294    5.4218   19.4498 O   0  0  0  0  0  0  0  0  0  0  0  0
   28.0757    6.8872   16.6634 O   0  0  0  0  0  0  0  0  0  0  0  0
   26.2016    7.0250   18.8990 O   0  0  0  0  0  0  0  0  0  0  0  0
   29.3140    6.0300   22.9877 O   0  0  0  0  0  0  0  0  0  0  0  0
   36.8993    6.8478   16.5841 C   0  0  1  0  0  0  0  0  0  0  0  0
   35.4518    6.5815   16.1153 C   0  0  1  0  0  0  0  0  0  0  0  0
   34.9581    7.6971   15.1625 C   0  0  2  0  0  0  0  0  0  0  0  0
   35.0284    9.0570   15.8674 C   0  0  1  0  0  0  0  0  0  0  0  0
   36.4836    9.3541   16.3111 C   0  0  0  0  0  0  0  0  0  0  0  0
   36.9458    8.2477   17.2651 C   0  0  2  0  0  0  0  0  0  0  0  0
   34.5657   10.1199   14.9474 N   0  0  0  0  0  0  0  0  0  0  0  0
   38.3099    8.5723   17.6731 N   0  0  0  0  0  0  0  0  0  0  0  0
   35.4085    5.3210   15.4117 O   0  0  0  0  0  0  0  0  0  0  0  0
   33.5964    7.4115   14.7767 O   0  0  0  0  0  0  0  0  0  0  0  0
  1  2  1  0  0  0  0
  1 12  1  6  0  0  0
  1 13  1  0  0  0  0
  2  3  1  0  0  0  0
  2 10  1  6  0  0  0
  4  3  1  6  0  0  0
  4  5  1  0  0  0  0
  4 14  1  0  0  0  0
  5  6  1  0  0  0  0
  5 13  1  1  0  0  0
  6  7  1  0  0  0  0
  6 15  1  1  0  0  0
  7  8  1  0  0  0  0
  7 11  1  1  0  0  0
  8 14  1  0  0  0  0
  8 16  1  6  0  0  0
  9 11  1  0  0  0  0
 17 16  1  1  0  0  0
 17 18  1  0  0  0  0
 17 24  1  0  0  0  0
 18 19  1  0  0  0  0
 18 25  1  6  0  0  0
 19 20  1  0  0  0  0
 19 26  1  6  0  0  0
 20 21  1  0  0  0  0
 20 23  1  1  0  0  0
 21 22  1  1  0  0  0
 21 24  1  0  0  0  0
 22 27  1  0  0  0  0
 28 12  1  1  0  0  0
 28 29  1  0  0  0  0
 28 33  1  0  0  0  0
 29 30  1  0  0  0  0
 29 36  1  6  0  0  0
 30 31  1  0  0  0  0
 30 37  1  1  0  0  0
 31 32  1  0  0  0  0
 31 34  1  6  0  0  0
 32 33  1  0  0  0  0
 33 35  1  6  0  0  0
M  END
>  <CHROM.1>
114.90469652,127.43475175,170.66063875,157.33332216,-62.78265521,-73.17854794
32.80169170,6.97549690,18.30881566,-0.28304987,-0.19392971,2.33021674

>  <Name>
1yrj_lig

>  <RI>
0

>  <Rbt.Current_Directory>
/home/itssahil/PROJECTS/Mol_Feturizer/New_Systems/rnas/1yrj

>  <Rbt.Executable>
rbdock ($Id: //depot/dev/client3/rdock/2013.1/src/exe/rbdock.cxx#4 $)

>  <Rbt.Library>
libRbt.so (2013.1, Build901 2013/11/27)

>  <Rbt.Parameter_File>
/export/apps/rDock/src/rDock_2013.1_src/data/scripts/dock_solv.prm

>  <Rbt.Receptor>
prm/blind_docking_60.prm

>  <SCORE>
-4.4186

>  <SCORE.INTER>
-6.58846

>  <SCORE.INTER.CONST>
1

>  <SCORE.INTER.POLAR>
-0.818877

>  <SCORE.INTER.ROT>
6

>  <SCORE.INTER.SOLV>
24.1633

>  <SCORE.INTER.VDW>
-17.3171

>  <SCORE.INTER.norm>
-0.178067

>  <SCORE.INTRA>
1.50488

>  <SCORE.INTRA.DIHEDRAL>
-3.92533

>  <SCORE.INTRA.DIHEDRAL.0>
15.6389

>  <SCORE.INTRA.POLAR>
0

>  <SCORE.INTRA.POLAR.0>
0

>  <SCORE.INTRA.REPUL>
0

>  <SCORE.INTRA.REPUL.0>
0

>  <SCORE.INTRA.SOLV>
2.17859

>  <SCORE.INTRA.SOLV.lig_0>
-90.9181

>  <SCORE.INTRA.VDW>
2.37826

>  <SCORE.INTRA.VDW.0>
-3.14158

>  <SCORE.INTRA.norm>
0.0406725

>  <SCORE.RESTR>
0.664974

>  <SCORE.RESTR.CAVITY>
0.664974

>  <SCORE.RESTR.norm>
0.0179723

>  <SCORE.SYSTEM>
0

>  <SCORE.SYSTEM.CONST>
0

>  <SCORE.SYSTEM.DIHEDRAL>
0

>  <SCORE.SYSTEM.SOLV>
0

>  <SCORE.SYSTEM.norm>
0

>  <SCORE.heavy>
37

>  <SCORE.norm>
-0.119422

>  <RMSD>
14.649

$$$$
1yrj_lig
 OpenBabel11021811423D
libRbt.so/2013.1/901 2013/11/27
 37 40  0  0  0  0  0  0  0  0999 V2000
   35.1669    5.6129   16.9842 C   0  0  1  0  0  0  0  0  0  0  0  0
   34.5067    4.9664   18.2178 C   0  0  1  0  0  0  0  0  0  0  0  0
   33.1649    5.6321   18.5624 C   0  0  0  0  0  0  0  0  0  0  0  0
   33.3609    7.1596   18.7467 C   0  0  1  0  0  0  0  0  0  0  0  0
   33.9752    7.7703   17.4729 C   0  0  1  0  0  0  0  0  0  0  0  0
   34.1528    9.3331   17.6830 C   0  0  1  0  0  0  0  0  0  0  0  0
   32.7866    9.9748   17.9750 C   0  0  1  0  0  0  0  0  0  0  0  0
   32.1920    9.2938   19.2316 C   0  0  2  0  0  0  0  0  0  0  0  0
   32.2104   12.3146   17.1386 C   0  0  0  0  0  0  0  0  0  0  0  0
   34.3261    3.5154   18.0474 N   0  0  0  0  0  0  0  0  0  0  0  0
   32.9378   11.4554   18.1244 N   0  0  0  0  0  0  0  0  0  0  0  0
   34.5334    5.2621   15.7398 O   0  0  0  0  0  0  0  0  0  0  0  0
   35.2458    7.0724   17.1900 O   0  0  0  0  0  0  0  0  0  0  0  0
   32.0871    7.8543   19.0427 O   0  0  0  0  0  0  0  0  0  0  0  0
   34.9751    9.5650   18.8076 O   0  0  0  0  0  0  0  0  0  0  0  0
   30.8884    9.7892   19.5395 O   0  0  0  0  0  0  0  0  0  0  0  0
   29.9586    9.6747   18.4368 C   0  0  2  0  0  0  0  0  0  0  0  0
   28.6158   10.3767   18.6968 C   0  0  1  0  0  0  0  0  0  0  0  0
   27.8006    9.6378   19.7912 C   0  0  2  0  0  0  0  0  0  0  0  0
   27.5765    8.1998   19.3830 C   0  0  1  0  0  0  0  0  0  0  0  0
   28.9446    7.5136   19.1578 C   0  0  1  0  0  0  0  0  0  0  0  0
   28.8114    6.0649   18.6937 C   0  0  0  0  0  0  0  0  0  0  0  0
   26.8034    7.5228   20.4447 N   0  0  0  0  0  0  0  0  0  0  0  0
   29.7017    8.2485   18.1287 O   0  0  0  0  0  0  0  0  0  0  0  0
   28.8804   11.7429   19.0469 O   0  0  0  0  0  0  0  0  0  0  0  0
   26.5255   10.2736   19.9549 O   0  0  0  0  0  0  0  0  0  0  0  0
   30.0883    5.5191   18.4953 O   0  0  0  0  0  0  0  0  0  0  0  0
   34.8430    5.9343   14.4106 C   0  0  1  0  0  0  0  0  0  0  0  0
   34.1247    7.3018   14.4140 C   0  0  1  0  0  0  0  0  0  0  0  0
   34.4332    8.0991   13.1236 C   0  0  2  0  0  0  0  0  0  0  0  0
   35.9456    8.3130   12.9892 C   0  0  1  0  0  0  0  0  0  0  0  0
   36.6767    6.9469   12.9473 C   0  0  0  0  0  0  0  0  0  0  0  0
   36.3710    6.1823   14.2395 C   0  0  2  0  0  0  0  0  0  0  0  0
   36.2343    9.0660   11.7481 N   0  0  0  0  0  0  0  0  0  0  0  0
   37.0898    4.9129   14.1697 N   0  0  0  0  0  0  0  0  0  0  0  0
   32.6989    7.0852   14.4929 O   0  0  0  0  0  0  0  0  0  0  0  0
   33.7590    9.3741   13.1912 O   0  0  0  0  0  0  0  0  0  0  0  0
  1  2  1  0  0  0  0
  1 12  1  6  0  0  0
  1 13  1  0  0  0  0
  2  3  1  0  0  0  0
  2 10  1  6  0  0  0
  4  3  1  6  0  0  0
  4  5  1  0  0  0  0
  4 14  1  0  0  0  0
  5  6  1  0  0  0  0
  5 13  1  1  0  0  0
  6  7  1  0  0  0  0
  6 15  1  1  0  0  0
  7  8  1  0  0  0  0
  7 11  1  1  0  0  0
  8 14  1  0  0  0  0
  8 16  1  6  0  0  0
  9 11  1  0  0  0  0
 17 16  1  1  0  0  0
 17 18  1  0  0  0  0
 17 24  1  0  0  0  0
 18 19  1  0  0  0  0
 18 25  1  1  0  0  0
 19 20  1  0  0  0  0
 19 26  1  6  0  0  0
 20 21  1  0  0  0  0
 20 23  1  1  0  0  0
 21 22  1  6  0  0  0
 21 24  1  0  0  0  0
 22 27  1  0  0  0  0
 28 12  1  1  0  0  0
 28 29  1  0  0  0  0
 28 33  1  0  0  0  0
 29 30  1  0  0  0  0
 29 36  1  6  0  0  0
 30 31  1  0  0  0  0
 30 37  1  1  0  0  0
 31 32  1  0  0  0  0
 31 34  1  6  0  0  0
 32 33  1  0  0  0  0
 33 35  1  6  0  0  0
M  END
>  <CHROM.1>
169.71814476,117.85861442,55.37846757,-172.16332258,179.23257727,-77.07577156
32.46153523,7.98545733,17.16755039,0.07618574,-0.67226100,2.81973945

>  <Name>
1yrj_lig

>  <RI>
0

>  <Rbt.Current_Directory>
/home/itssahil/PROJECTS/Mol_Feturizer/New_Systems/rnas/1yrj

>  <Rbt.Executable>
rbdock ($Id: //depot/dev/client3/rdock/2013.1/src/exe/rbdock.cxx#4 $)

>  <Rbt.Library>
libRbt.so (2013.1, Build901 2013/11/27)

>  <Rbt.Parameter_File>
/export/apps/rDock/src/rDock_2013.1_src/data/scripts/dock_solv.prm

>  <Rbt.Receptor>
prm/blind_docking_40.prm

>  <SCORE>
15.2836

>  <SCORE.INTER>
17.0389

>  <SCORE.INTER.CONST>
1

>  <SCORE.INTER.POLAR>
-1.18405

>  <SCORE.INTER.ROT>
6

>  <SCORE.INTER.SOLV>
19.2862

>  <SCORE.INTER.VDW>
1.2774

>  <SCORE.INTER.norm>
0.460512

>  <SCORE.INTRA>
-6.94839

>  <SCORE.INTRA.DIHEDRAL>
-12.0828

>  <SCORE.INTRA.DIHEDRAL.0>
15.6389

>  <SCORE.INTRA.POLAR>
0

>  <SCORE.INTRA.POLAR.0>
0

>  <SCORE.INTRA.REPUL>
0

>  <SCORE.INTRA.REPUL.0>
0

>  <SCORE.INTRA.SOLV>
-0.494288

>  <SCORE.INTRA.SOLV.lig_0>
-90.9181

>  <SCORE.INTRA.VDW>
-0.659824

>  <SCORE.INTRA.VDW.0>
-3.14158

>  <SCORE.INTRA.norm>
-0.187794

>  <SCORE.RESTR>
5.19301

>  <SCORE.RESTR.CAVITY>
5.19301

>  <SCORE.RESTR.norm>
0.140352

>  <SCORE.SYSTEM>
0

>  <SCORE.SYSTEM.CONST>
0

>  <SCORE.SYSTEM.DIHEDRAL>
0

>  <SCORE.SYSTEM.SOLV>
0

>  <SCORE.SYSTEM.norm>
0

>  <SCORE.heavy>
37

>  <SCORE.norm>
0.413069

>  <RMSD>
14.659

$$$$
1yrj_lig
 OpenBabel11021811423D
libRbt.so/2013.1/901 2013/11/27
 37 40  0  0  0  0  0  0  0  0999 V2000
   29.6914   10.5430   20.7125 C   0  0  1  0  0  0  0  0  0  0  0  0
   30.4557   11.6547   19.9672 C   0  0  1  0  0  0  0  0  0  0  0  0
   31.1873   11.1135   18.7286 C   0  0  0  0  0  0  0  0  0  0  0  0
   32.1204    9.9420   19.1316 C   0  0  1  0  0  0  0  0  0  0  0  0
   31.3064    8.8341   19.8266 C   0  0  1  0  0  0  0  0  0  0  0  0
   32.2810    7.6440   20.2162 C   0  0  1  0  0  0  0  0  0  0  0  0
   32.9569    7.0928   18.9502 C   0  0  1  0  0  0  0  0  0  0  0  0
   33.7186    8.2534   18.2652 C   0  0  2  0  0  0  0  0  0  0  0  0
   34.3195    5.0813   18.1731 C   0  0  0  0  0  0  0  0  0  0  0  0
   29.5730   12.7707   19.5898 N   0  0  0  0  0  0  0  0  0  0  0  0
   33.8391    5.9374   19.3025 N   0  0  0  0  0  0  0  0  0  0  0  0
   28.4924   10.1156   20.0395 O   0  0  0  0  0  0  0  0  0  0  0  0
   30.6159    9.4263   20.9901 O   0  0  0  0  0  0  0  0  0  0  0  0
   32.8207    9.3590   17.9644 O   0  0  0  0  0  0  0  0  0  0  0  0
   33.3032    8.1316   21.0601 O   0  0  0  0  0  0  0  0  0  0  0  0
   34.3281    7.8415   17.0411 O   0  0  0  0  0  0  0  0  0  0  0  0
   33.4829    8.0467   15.8847 C   0  0  2  0  0  0  0  0  0  0  0  0
   32.6656    6.8029   15.4992 C   0  0  1  0  0  0  0  0  0  0  0  0
   33.5825    5.6803   14.9447 C   0  0  2  0  0  0  0  0  0  0  0  0
   34.3610    6.1927   13.7547 C   0  0  1  0  0  0  0  0  0  0  0  0
   35.1946    7.4242   14.1814 C   0  0  1  0  0  0  0  0  0  0  0  0
   35.9789    8.0385   13.0241 C   0  0  0  0  0  0  0  0  0  0  0  0
   35.2263    5.1051   13.2531 N   0  0  0  0  0  0  0  0  0  0  0  0
   34.2990    8.4633   14.7206 O   0  0  0  0  0  0  0  0  0  0  0  0
   31.9211    6.3769   16.6495 O   0  0  0  0  0  0  0  0  0  0  0  0
   32.7821    4.5664   14.5258 O   0  0  0  0  0  0  0  0  0  0  0  0
   36.8990    7.0999   12.5338 O   0  0  0  0  0  0  0  0  0  0  0  0
   28.4657    9.0695   18.9354 C   0  0  1  0  0  0  0  0  0  0  0  0
   28.1368    7.7145   19.6001 C   0  0  1  0  0  0  0  0  0  0  0  0
   28.0195    6.5876   18.5453 C   0  0  2  0  0  0  0  0  0  0  0  0
   26.9304    6.9373   17.5243 C   0  0  1  0  0  0  0  0  0  0  0  0
   27.2667    8.2778   16.8223 C   0  0  0  0  0  0  0  0  0  0  0  0
   27.3618    9.3808   17.8817 C   0  0  2  0  0  0  0  0  0  0  0  0
   26.8313    5.8614   16.5128 N   0  0  0  0  0  0  0  0  0  0  0  0
   27.6612   10.6267   17.1812 N   0  0  0  0  0  0  0  0  0  0  0  0
   29.1934    7.3738   20.5240 O   0  0  0  0  0  0  0  0  0  0  0  0
   27.6878    5.3533   19.2170 O   0  0  0  0  0  0  0  0  0  0  0  0
  1  2  1  0  0  0  0
  1 12  1  6  0  0  0
  1 13  1  0  0  0  0
  2  3  1  0  0  0  0
  2 10  1  6  0  0  0
  4  3  1  6  0  0  0
  4  5  1  0  0  0  0
  4 14  1  0  0  0  0
  5  6  1  0  0  0  0
  5 13  1  1  0  0  0
  6  7  1  0  0  0  0
  6 15  1  1  0  0  0
  7  8  1  0  0  0  0
  7 11  1  1  0  0  0
  8 14  1  0  0  0  0
  8 16  1  6  0  0  0
  9 11  1  0  0  0  0
 17 16  1  1  0  0  0
 17 18  1  0  0  0  0
 17 24  1  0  0  0  0
 18 19  1  0  0  0  0
 18 25  1  1  0  0  0
 19 20  1  0  0  0  0
 19 26  1  6  0  0  0
 20 21  1  0  0  0  0
 20 23  1  1  0  0  0
 21 22  1  6  0  0  0
 21 24  1  0  0  0  0
 22 27  1  0  0  0  0
 28 12  1  1  0  0  0
 28 29  1  0  0  0  0
 28 33  1  0  0  0  0
 29 30  1  0  0  0  0
 29 36  1  1  0  0  0
 30 31  1  0  0  0  0
 30 37  1  1  0  0  0
 31 32  1  0  0  0  0
 31 34  1  6  0  0  0
 32 33  1  0  0  0  0
 33 35  1  6  0  0  0
M  END
>  <CHROM.1>
84.71616159,166.00852031,91.70151380,-94.41832515,-62.25825128,95.22139037
31.52220676,7.94206047,17.61126232,-2.44944626,-0.23132323,-2.31193732

>  <Name>
1yrj_lig

>  <RI>
0

>  <Rbt.Current_Directory>
/home/itssahil/PROJECTS/Mol_Feturizer/New_Systems/rnas/1yrj

>  <Rbt.Executable>
rbdock ($Id: //depot/dev/client3/rdock/2013.1/src/exe/rbdock.cxx#4 $)

>  <Rbt.Library>
libRbt.so (2013.1, Build901 2013/11/27)

>  <Rbt.Parameter_File>
/export/apps/rDock/src/rDock_2013.1_src/data/scripts/dock_solv.prm

>  <Rbt.Receptor>
prm/blind_docking_40.prm

>  <SCORE>
3.17279

>  <SCORE.INTER>
-3.53721

>  <SCORE.INTER.CONST>
1

>  <SCORE.INTER.POLAR>
-1

>  <SCORE.INTER.ROT>
6

>  <SCORE.INTER.SOLV>
20.4336

>  <SCORE.INTER.VDW>
-13.436

>  <SCORE.INTER.norm>
-0.0956003

>  <SCORE.INTRA>
4.14579

>  <SCORE.INTRA.DIHEDRAL>
0.0820208

>  <SCORE.INTRA.DIHEDRAL.0>
15.6389

>  <SCORE.INTRA.POLAR>
0

>  <SCORE.INTRA.POLAR.0>
0

>  <SCORE.INTRA.REPUL>
0

>  <SCORE.INTRA.REPUL.0>
0

>  <SCORE.INTRA.SOLV>
2.96139

>  <SCORE.INTRA.SOLV.lig_0>
-90.9181

>  <SCORE.INTRA.VDW>
2.62408

>  <SCORE.INTRA.VDW.0>
-3.14158

>  <SCORE.INTRA.norm>
0.112048

>  <SCORE.RESTR>
2.56422

>  <SCORE.RESTR.CAVITY>
2.56422

>  <SCORE.RESTR.norm>
0.0693032

>  <SCORE.SYSTEM>
0

>  <SCORE.SYSTEM.CONST>
0

>  <SCORE.SYSTEM.DIHEDRAL>
0

>  <SCORE.SYSTEM.SOLV>
0

>  <SCORE.SYSTEM.norm>
0

>  <SCORE.heavy>
37

>  <SCORE.norm>
0.0857511

>  <RMSD>
14.669

$$$$
1yrj_lig
 OpenBabel11021811423D
libRbt.so/2013.1/901 2013/11/27
 37 40  0  0  0  0  0  0  0  0999 V2000
   29.7071   10.5570   20.7215 C   0  0  1  0  0  0  0  0  0  0  0  0
   30.4475   11.6584   19.9378 C   0  0  1  0  0  0  0  0  0  0  0  0
   31.1687   11.0947   18.7031 C   0  0  0  0  0  0  0  0  0  0  0  0
   32.1215    9.9450   19.1225 C   0  0  1  0  0  0  0  0  0  0  0  0
   31.3306    8.8455   19.8565 C   0  0  1  0  0  0  0  0  0  0  0  0
   32.3250    7.6774   20.2623 C   0  0  1  0  0  0  0  0  0  0  0  0
   32.9903    7.1023   19.0013 C   0  0  1  0  0  0  0  0  0  0  0  0
   33.7282    8.2541   18.2766 C   0  0  2  0  0  0  0  0  0  0  0  0
   34.4188    5.1273   18.2494 C   0  0  0  0  0  0  0  0  0  0  0  0
   29.5461   12.7539   19.5448 N   0  0  0  0  0  0  0  0  0  0  0  0
   33.8913    5.9668   19.3702 N   0  0  0  0  0  0  0  0  0  0  0  0
   28.5043   10.0984   20.0764 O   0  0  0  0  0  0  0  0  0  0  0  0
   30.6489    9.4588   21.0143 O   0  0  0  0  0  0  0  0  0  0  0  0
   32.8128    9.3410   17.9607 O   0  0  0  0  0  0  0  0  0  0  0  0
   33.3526    8.1983   21.0792 O   0  0  0  0  0  0  0  0  0  0  0  0
   34.3259    7.8186   17.0549 O   0  0  0  0  0  0  0  0  0  0  0  0
   33.4768    8.0184   15.9005 C   0  0  2  0  0  0  0  0  0  0  0  0
   32.6685    6.7687   15.5152 C   0  0  1  0  0  0  0  0  0  0  0  0
   33.5930    5.6539   14.9577 C   0  0  2  0  0  0  0  0  0  0  0  0
   34.3651    6.1737   13.7667 C   0  0  1  0  0  0  0  0  0  0  0  0
   35.1898    7.4112   14.1931 C   0  0  1  0  0  0  0  0  0  0  0  0
   35.9670    8.0328   13.0348 C   0  0  0  0  0  0  0  0  0  0  0  0
   35.2378    5.0934   13.2621 N   0  0  0  0  0  0  0  0  0  0  0  0
   34.2873    8.4427   14.7351 O   0  0  0  0  0  0  0  0  0  0  0  0
   31.9297    6.3356   16.6666 O   0  0  0  0  0  0  0  0  0  0  0  0
   32.8004    4.5342   14.5392 O   0  0  0  0  0  0  0  0  0  0  0  0
   36.7479    7.0464   12.4142 O   0  0  0  0  0  0  0  0  0  0  0  0
   28.4809    9.0647   18.9604 C   0  0  1  0  0  0  0  0  0  0  0  0
   28.1531    7.7018   19.6094 C   0  0  1  0  0  0  0  0  0  0  0  0
   28.0391    6.5868   18.5417 C   0  0  2  0  0  0  0  0  0  0  0  0
   26.9509    6.9462   17.5231 C   0  0  1  0  0  0  0  0  0  0  0  0
   27.2862    8.2951   16.8368 C   0  0  0  0  0  0  0  0  0  0  0  0
   27.3781    9.3862   17.9087 C   0  0  2  0  0  0  0  0  0  0  0  0
   26.8550    5.8817   16.4994 N   0  0  0  0  0  0  0  0  0  0  0  0
   27.6765   10.6405   17.2227 N   0  0  0  0  0  0  0  0  0  0  0  0
   29.2089    7.3524   20.5309 O   0  0  0  0  0  0  0  0  0  0  0  0
   27.7083    5.3445   19.1990 O   0  0  0  0  0  0  0  0  0  0  0  0
  1  2  1  0  0  0  0
  1 12  1  6  0  0  0
  1 13  1  0  0  0  0
  2  3  1  0  0  0  0
  2 10  1  6  0  0  0
  4  3  1  6  0  0  0
  4  5  1  0  0  0  0
  4 14  1  0  0  0  0
  5  6  1  0  0  0  0
  5 13  1  1  0  0  0
  6  7  1  0  0  0  0
  6 15  1  1  0  0  0
  7  8  1  0  0  0  0
  7 11  1  1  0  0  0
  8 14  1  0  0  0  0
  8 16  1  6  0  0  0
  9 11  1  0  0  0  0
 17 16  1  1  0  0  0
 17 18  1  0  0  0  0
 17 24  1  0  0  0  0
 18 19  1  0  0  0  0
 18 25  1  1  0  0  0
 19 20  1  0  0  0  0
 19 26  1  6  0  0  0
 20 21  1  0  0  0  0
 20 23  1  1  0  0  0
 21 22  1  6  0  0  0
 21 24  1  0  0  0  0
 22 27  1  0  0  0  0
 28 12  1  1  0  0  0
 28 29  1  0  0  0  0
 28 33  1  0  0  0  0
 29 30  1  0  0  0  0
 29 36  1  1  0  0  0
 30 31  1  0  0  0  0
 30 37  1  1  0  0  0
 31 32  1  0  0  0  0
 31 34  1  6  0  0  0
 32 33  1  0  0  0  0
 33 35  1  6  0  0  0
M  END
>  <CHROM.1>
82.15674129,168.82491051,93.31033928,-95.83702147,-53.53366336,97.65470582
31.53163270,7.93871515,17.62098852,-2.43784459,-0.21534529,-2.29453412

>  <Name>
1yrj_lig

>  <RI>
0

>  <Rbt.Current_Directory>
/home/itssahil/PROJECTS/Mol_Feturizer/New_Systems/rnas/1yrj

>  <Rbt.Executable>
rbdock ($Id: //depot/dev/client3/rdock/2013.1/src/exe/rbdock.cxx#4 $)

>  <Rbt.Library>
libRbt.so (2013.1, Build901 2013/11/27)

>  <Rbt.Parameter_File>
/export/apps/rDock/src/rDock_2013.1_src/data/scripts/dock_solv.prm

>  <Rbt.Receptor>
prm/blind_docking_40.prm

>  <SCORE>
3.03611

>  <SCORE.INTER>
-3.95722

>  <SCORE.INTER.CONST>
1

>  <SCORE.INTER.POLAR>
-1

>  <SCORE.INTER.ROT>
6

>  <SCORE.INTER.SOLV>
20.5512

>  <SCORE.INTER.VDW>
-13.7552

>  <SCORE.INTER.norm>
-0.106952

>  <SCORE.INTRA>
4.33126

>  <SCORE.INTRA.DIHEDRAL>
0.704625

>  <SCORE.INTRA.DIHEDRAL.0>
15.6389

>  <SCORE.INTRA.POLAR>
0

>  <SCORE.INTRA.POLAR.0>
0

>  <SCORE.INTRA.REPUL>
0

>  <SCORE.INTRA.REPUL.0>
0

>  <SCORE.INTRA.SOLV>
3.18943

>  <SCORE.INTRA.SOLV.lig_0>
-90.9181

>  <SCORE.INTRA.VDW>
2.38423

>  <SCORE.INTRA.VDW.0>
-3.14158

>  <SCORE.INTRA.norm>
0.117061

>  <SCORE.RESTR>
2.66207

>  <SCORE.RESTR.CAVITY>
2.66207

>  <SCORE.RESTR.norm>
0.0719477

>  <SCORE.SYSTEM>
0

>  <SCORE.SYSTEM.CONST>
0

>  <SCORE.SYSTEM.DIHEDRAL>
0

>  <SCORE.SYSTEM.SOLV>
0

>  <SCORE.SYSTEM.norm>
0

>  <SCORE.heavy>
37

>  <SCORE.norm>
0.082057

>  <RMSD>
14.669

$$$$
1yrj_lig
 OpenBabel11021811423D
libRbt.so/2013.1/901 2013/11/27
 37 40  0  0  0  0  0  0  0  0999 V2000
   30.0648   10.2336   20.3635 C   0  0  1  0  0  0  0  0  0  0  0  0
   30.2554   10.9276   19.0006 C   0  0  1  0  0  0  0  0  0  0  0  0
   30.8412    9.9714   17.9495 C   0  0  0  0  0  0  0  0  0  0  0  0
   32.1639    9.3525   18.4721 C   0  0  1  0  0  0  0  0  0  0  0  0
   31.9156    8.6275   19.8083 C   0  0  1  0  0  0  0  0  0  0  0  0
   33.2797    7.9935   20.3134 C   0  0  1  0  0  0  0  0  0  0  0  0
   33.8116    7.0051   19.2629 C   0  0  1  0  0  0  0  0  0  0  0  0
   33.9968    7.7705   17.9301 C   0  0  2  0  0  0  0  0  0  0  0  0
   35.4348    5.0401   19.1607 C   0  0  0  0  0  0  0  0  0  0  0  0
   29.0024   11.5215   18.5062 N   0  0  0  0  0  0  0  0  0  0  0  0
   35.0714    6.3651   19.7535 N   0  0  0  0  0  0  0  0  0  0  0  0
   28.9522    9.3202   20.3959 O   0  0  0  0  0  0  0  0  0  0  0  0
   31.3353    9.5958   20.7607 O   0  0  0  0  0  0  0  0  0  0  0  0
   32.7495    8.3919   17.5093 O   0  0  0  0  0  0  0  0  0  0  0  0
   34.2460    9.0132   20.4584 O   0  0  0  0  0  0  0  0  0  0  0  0
   34.4316    6.9092   16.8771 O   0  0  0  0  0  0  0  0  0  0  0  0
   34.0962    7.4037   15.5593 C   0  0  2  0  0  0  0  0  0  0  0  0
   34.6073    6.5035   14.4226 C   0  0  1  0  0  0  0  0  0  0  0  0
   36.1552    6.5519   14.3231 C   0  0  2  0  0  0  0  0  0  0  0  0
   36.6131    7.9776   14.1168 C   0  0  1  0  0  0  0  0  0  0  0  0
   36.1089    8.8509   15.2901 C   0  0  1  0  0  0  0  0  0  0  0  0
   36.4867   10.3227   15.1379 C   0  0  0  0  0  0  0  0  0  0  0  0
   38.0881    7.9918   14.0308 N   0  0  0  0  0  0  0  0  0  0  0  0
   34.6395    8.7689   15.3703 O   0  0  0  0  0  0  0  0  0  0  0  0
   34.1193    5.1726   14.6458 O   0  0  0  0  0  0  0  0  0  0  0  0
   36.5920    5.7625   13.2083 O   0  0  0  0  0  0  0  0  0  0  0  0
   36.0354   11.0384   16.2569 O   0  0  0  0  0  0  0  0  0  0  0  0
   28.8908    8.0286   19.5943 C   0  0  1  0  0  0  0  0  0  0  0  0
   29.0511    6.8634   20.5956 C   0  0  1  0  0  0  0  0  0  0  0  0
   28.9348    5.4938   19.8837 C   0  0  2  0  0  0  0  0  0  0  0  0
   27.5774    5.3834   19.1793 C   0  0  1  0  0  0  0  0  0  0  0  0
   27.4182    6.5261   18.1441 C   0  0  0  0  0  0  0  0  0  0  0  0
   27.5201    7.8707   18.8718 C   0  0  2  0  0  0  0  0  0  0  0  0
   27.4774    4.0766   18.4917 N   0  0  0  0  0  0  0  0  0  0  0  0
   27.3478    8.9180   17.8687 N   0  0  0  0  0  0  0  0  0  0  0  0
   30.3519    6.9516   21.2171 O   0  0  0  0  0  0  0  0  0  0  0  0
   29.0669    4.4449   20.8670 O   0  0  0  0  0  0  0  0  0  0  0  0
  1  2  1  0  0  0  0
  1 12  1  6  0  0  0
  1 13  1  0  0  0  0
  2  3  1  0  0  0  0
  2 10  1  6  0  0  0
  4  3  1  6  0  0  0
  4  5  1  0  0  0  0
  4 14  1  0  0  0  0
  5  6  1  0  0  0  0
  5 13  1  1  0  0  0
  6  7  1  0  0  0  0
  6 15  1  6  0  0  0
  7  8  1  0  0  0  0
  7 11  1  1  0  0  0
  8 14  1  0  0  0  0
  8 16  1  6  0  0  0
  9 11  1  0  0  0  0
 17 16  1  1  0  0  0
 17 18  1  0  0  0  0
 17 24  1  0  0  0  0
 18 19  1  0  0  0  0
 18 25  1  1  0  0  0
 19 20  1  0  0  0  0
 19 26  1  6  0  0  0
 20 21  1  0  0  0  0
 20 23  1  1  0  0  0
 21 22  1  6  0  0  0
 21 24  1  0  0  0  0
 22 27  1  0  0  0  0
 28 12  1  1  0  0  0
 28 29  1  0  0  0  0
 28 33  1  0  0  0  0
 29 30  1  0  0  0  0
 29 36  1  6  0  0  0
 30 31  1  0  0  0  0
 30 37  1  1  0  0  0
 31 32  1  0  0  0  0
 31 34  1  6  0  0  0
 32 33  1  0  0  0  0
 33 35  1  6  0  0  0
M  END
>  <CHROM.1>
66.55679092,156.63840056,155.88461726,177.93500653,-178.05516183,108.26297670
32.33127066,7.80172425,17.93449679,-3.02014370,-0.55067171,-2.86675938

>  <Name>
1yrj_lig

>  <RI>
224

>  <Rbt.Current_Directory>
/home/itssahil/PROJECTS/Mol_Feturizer/New_Systems/rnas/1yrj

>  <Rbt.Executable>
rbdock ($Id: //depot/dev/client3/rdock/2013.1/src/exe/rbdock.cxx#4 $)

>  <Rbt.Library>
libRbt.so (2013.1, Build901 2013/11/27)

>  <Rbt.Parameter_File>
/export/apps/rDock/src/rDock_2013.1_src/data/scripts/dock_solv.prm

>  <Rbt.Receptor>
prm/blind_docking_80.prm

>  <SCORE>
-10.935

>  <SCORE.INTER>
-10.5322

>  <SCORE.INTER.CONST>
1

>  <SCORE.INTER.POLAR>
-1.20233

>  <SCORE.INTER.ROT>
6

>  <SCORE.INTER.SOLV>
11.0072

>  <SCORE.INTER.VDW>
-14.2828

>  <SCORE.INTER.norm>
-0.284655

>  <SCORE.INTRA>
-1.17328

>  <SCORE.INTRA.DIHEDRAL>
-5.86328

>  <SCORE.INTRA.DIHEDRAL.0>
15.6389

>  <SCORE.INTRA.POLAR>
0

>  <SCORE.INTRA.POLAR.0>
0

>  <SCORE.INTRA.REPUL>
0

>  <SCORE.INTRA.REPUL.0>
0

>  <SCORE.INTRA.SOLV>
1.72638

>  <SCORE.INTRA.SOLV.lig_0>
-90.9181

>  <SCORE.INTRA.VDW>
0.895164

>  <SCORE.INTRA.VDW.0>
-3.14158

>  <SCORE.INTRA.norm>
-0.0317104

>  <SCORE.RESTR>
0.770567

>  <SCORE.RESTR.CAVITY>
0.770567

>  <SCORE.RESTR.norm>
0.0208261

>  <SCORE.SYSTEM>
0

>  <SCORE.SYSTEM.CONST>
0

>  <SCORE.SYSTEM.DIHEDRAL>
0

>  <SCORE.SYSTEM.SOLV>
0

>  <SCORE.SYSTEM.norm>
0

>  <SCORE.heavy>
37

>  <SCORE.norm>
-0.295539

>  <RMSD>
14.672

$$$$
1yrj_lig
 OpenBabel11021811423D
libRbt.so/2013.1/901 2013/11/27
 37 40  0  0  0  0  0  0  0  0999 V2000
   37.2305    6.6017   18.7548 C   0  0  1  0  0  0  0  0  0  0  0  0
   36.5297    5.2325   18.6571 C   0  0  1  0  0  0  0  0  0  0  0  0
   35.1186    5.3541   18.0600 C   0  0  0  0  0  0  0  0  0  0  0  0
   34.2819    6.3738   18.8759 C   0  0  1  0  0  0  0  0  0  0  0  0
   34.9950    7.7390   18.9039 C   0  0  1  0  0  0  0  0  0  0  0  0
   34.1131    8.7656   19.7324 C   0  0  1  0  0  0  0  0  0  0  0  0
   32.7278    8.9023   19.0800 C   0  0  1  0  0  0  0  0  0  0  0  0
   32.0761    7.4990   19.0318 C   0  0  2  0  0  0  0  0  0  0  0  0
   30.8021   10.5752   19.0706 C   0  0  0  0  0  0  0  0  0  0  0  0
   37.3255    4.2612   17.8888 N   0  0  0  0  0  0  0  0  0  0  0  0
   31.9074    9.9064   19.8257 N   0  0  0  0  0  0  0  0  0  0  0  0
   37.6787    7.1128   17.4856 O   0  0  0  0  0  0  0  0  0  0  0  0
   36.3465    7.5451   19.4671 O   0  0  0  0  0  0  0  0  0  0  0  0
   32.9233    6.5563   18.3159 O   0  0  0  0  0  0  0  0  0  0  0  0
   33.9150    8.2667   21.0387 O   0  0  0  0  0  0  0  0  0  0  0  0
   30.8051    7.5239   18.3810 O   0  0  0  0  0  0  0  0  0  0  0  0
   30.1398    6.2390   18.3776 C   0  0  2  0  0  0  0  0  0  0  0  0
   28.7344    6.2824   17.7558 C   0  0  1  0  0  0  0  0  0  0  0  0
   27.7484    7.0740   18.6555 C   0  0  2  0  0  0  0  0  0  0  0  0
   27.6993    6.4551   20.0337 C   0  0  1  0  0  0  0  0  0  0  0  0
   29.1210    6.4529   20.6436 C   0  0  1  0  0  0  0  0  0  0  0  0
   29.1730    5.7985   22.0224 C   0  0  0  0  0  0  0  0  0  0  0  0
   26.7578    7.2318   20.8666 N   0  0  0  0  0  0  0  0  0  0  0  0
   30.0366    5.7113   19.7581 O   0  0  0  0  0  0  0  0  0  0  0  0
   28.8395    6.8451   16.4400 O   0  0  0  0  0  0  0  0  0  0  0  0
   26.4333    7.0308   18.0847 O   0  0  0  0  0  0  0  0  0  0  0  0
   30.4782    5.8822   22.5297 O   0  0  0  0  0  0  0  0  0  0  0  0
   37.7102    8.5915   17.1293 C   0  0  1  0  0  0  0  0  0  0  0  0
   38.7730    9.2548   18.0329 C   0  0  1  0  0  0  0  0  0  0  0  0
   38.9309   10.7583   17.6999 C   0  0  2  0  0  0  0  0  0  0  0  0
   39.3272   10.9301   16.2287 C   0  0  1  0  0  0  0  0  0  0  0  0
   38.2502   10.3009   15.3084 C   0  0  0  0  0  0  0  0  0  0  0  0
   38.1221    8.8112   15.6434 C   0  0  2  0  0  0  0  0  0  0  0  0
   39.4656   12.3697   15.9145 N   0  0  0  0  0  0  0  0  0  0  0  0
   37.1144    8.2525   14.7461 N   0  0  0  0  0  0  0  0  0  0  0  0
   38.3644    9.1280   19.4123 O   0  0  0  0  0  0  0  0  0  0  0  0
   39.9504   11.3201   18.5541 O   0  0  0  0  0  0  0  0  0  0  0  0
  1  2  1  0  0  0  0
  1 12  1  6  0  0  0
  1 13  1  0  0  0  0
  2  3  1  0  0  0  0
  2 10  1  6  0  0  0
  4  3  1  6  0  0  0
  4  5  1  0  0  0  0
  4 14  1  0  0  0  0
  5  6  1  0  0  0  0
  5 13  1  1  0  0  0
  6  7  1  0  0  0  0
  6 15  1  1  0  0  0
  7  8  1  0  0  0  0
  7 11  1  1  0  0  0
  8 14  1  0  0  0  0
  8 16  1  6  0  0  0
  9 11  1  0  0  0  0
 17 16  1  1  0  0  0
 17 18  1  0  0  0  0
 17 24  1  0  0  0  0
 18 19  1  0  0  0  0
 18 25  1  6  0  0  0
 19 20  1  0  0  0  0
 19 26  1  6  0  0  0
 20 21  1  0  0  0  0
 20 23  1  1  0  0  0
 21 22  1  1  0  0  0
 21 24  1  0  0  0  0
 22 27  1  0  0  0  0
 28 12  1  1  0  0  0
 28 29  1  0  0  0  0
 28 33  1  0  0  0  0
 29 30  1  0  0  0  0
 29 36  1  1  0  0  0
 30 31  1  0  0  0  0
 30 37  1  1  0  0  0
 31 32  1  0  0  0  0
 31 34  1  6  0  0  0
 32 33  1  0  0  0  0
 33 35  1  6  0  0  0
M  END
>  <CHROM.1>
146.54798289,155.87568197,-177.14229868,176.40389189,-177.68715296,66.72061058
33.74689566,7.80459733,18.57709401,-0.33349881,-0.08901780,2.66577612

>  <Name>
1yrj_lig

>  <RI>
224

>  <Rbt.Current_Directory>
/home/itssahil/PROJECTS/Mol_Feturizer/New_Systems/rnas/1yrj

>  <Rbt.Executable>
rbdock ($Id: //depot/dev/client3/rdock/2013.1/src/exe/rbdock.cxx#4 $)

>  <Rbt.Library>
libRbt.so (2013.1, Build901 2013/11/27)

>  <Rbt.Parameter_File>
/export/apps/rDock/src/rDock_2013.1_src/data/scripts/dock_solv.prm

>  <Rbt.Receptor>
prm/blind_docking_80.prm

>  <SCORE>
-14.8541

>  <SCORE.INTER>
-9.05519

>  <SCORE.INTER.CONST>
1

>  <SCORE.INTER.POLAR>
-0.330266

>  <SCORE.INTER.ROT>
6

>  <SCORE.INTER.SOLV>
18.7993

>  <SCORE.INTER.VDW>
-18.8023

>  <SCORE.INTER.norm>
-0.244735

>  <SCORE.INTRA>
-5.79894

>  <SCORE.INTRA.DIHEDRAL>
-10.5973

>  <SCORE.INTRA.DIHEDRAL.0>
15.6389

>  <SCORE.INTRA.POLAR>
0

>  <SCORE.INTRA.POLAR.0>
0

>  <SCORE.INTRA.REPUL>
0

>  <SCORE.INTRA.REPUL.0>
0

>  <SCORE.INTRA.SOLV>
-2.57153

>  <SCORE.INTRA.SOLV.lig_0>
-90.9181

>  <SCORE.INTRA.VDW>
0.785467

>  <SCORE.INTRA.VDW.0>
-3.14158

>  <SCORE.INTRA.norm>
-0.156728

>  <SCORE.RESTR>
0

>  <SCORE.RESTR.CAVITY>
0

>  <SCORE.RESTR.norm>
0

>  <SCORE.SYSTEM>
0

>  <SCORE.SYSTEM.CONST>
0

>  <SCORE.SYSTEM.DIHEDRAL>
0

>  <SCORE.SYSTEM.SOLV>
0

>  <SCORE.SYSTEM.norm>
0

>  <SCORE.heavy>
37

>  <SCORE.norm>
-0.401463

>  <RMSD>
14.685

$$$$
1yrj_lig
 OpenBabel11021811423D
libRbt.so/2013.1/901 2013/11/27
 37 40  0  0  0  0  0  0  0  0999 V2000
   29.0729   10.9865   18.7068 C   0  0  1  0  0  0  0  0  0  0  0  0
   29.8015   12.0995   17.9286 C   0  0  1  0  0  0  0  0  0  0  0  0
   30.8202   11.5261   16.9307 C   0  0  0  0  0  0  0  0  0  0  0  0
   31.8147   10.5893   17.6650 C   0  0  1  0  0  0  0  0  0  0  0  0
   31.0466    9.4651   18.3855 C   0  0  1  0  0  0  0  0  0  0  0  0
   32.0865    8.5152   19.1165 C   0  0  1  0  0  0  0  0  0  0  0  0
   33.0576    7.9192   18.0844 C   0  0  1  0  0  0  0  0  0  0  0  0
   33.7656    9.0877   17.3565 C   0  0  2  0  0  0  0  0  0  0  0  0
   34.7282    6.0018   17.8863 C   0  0  0  0  0  0  0  0  0  0  0  0
   28.8590   12.9938   17.2365 N   0  0  0  0  0  0  0  0  0  0  0  0
   34.0098    6.9830   18.7583 N   0  0  0  0  0  0  0  0  0  0  0  0
   28.0924   10.2809   17.9233 O   0  0  0  0  0  0  0  0  0  0  0  0
   30.0748   10.0851   19.3088 O   0  0  0  0  0  0  0  0  0  0  0  0
   32.7953    9.9795   16.7382 O   0  0  0  0  0  0  0  0  0  0  0  0
   32.8546    9.2732   20.0276 O   0  0  0  0  0  0  0  0  0  0  0  0
   34.6449    8.6224   16.3319 O   0  0  0  0  0  0  0  0  0  0  0  0
   33.9928    8.4580   15.0507 C   0  0  2  0  0  0  0  0  0  0  0  0
   33.3772    7.0629   14.8551 C   0  0  1  0  0  0  0  0  0  0  0  0
   34.4793    5.9790   14.7174 C   0  0  2  0  0  0  0  0  0  0  0  0
   35.3956    6.3204   13.5648 C   0  0  1  0  0  0  0  0  0  0  0  0
   36.0212    7.7148   13.8052 C   0  0  1  0  0  0  0  0  0  0  0  0
   36.9277    8.1625   12.6608 C   0  0  0  0  0  0  0  0  0  0  0  0
   36.4347    5.2750   13.4623 N   0  0  0  0  0  0  0  0  0  0  0  0
   34.9508    8.7174   13.9507 O   0  0  0  0  0  0  0  0  0  0  0  0
   32.4928    6.8010   15.9542 O   0  0  0  0  0  0  0  0  0  0  0  0
   33.8734    4.7045   14.4616 O   0  0  0  0  0  0  0  0  0  0  0  0
   37.3404    9.4848   12.8823 O   0  0  0  0  0  0  0  0  0  0  0  0
   27.2760    9.1068   18.4424 C   0  0  1  0  0  0  0  0  0  0  0  0
   27.5599    7.9078   17.5110 C   0  0  1  0  0  0  0  0  0  0  0  0
   26.8233    6.6357   17.9961 C   0  0  2  0  0  0  0  0  0  0  0  0
   27.2591    6.2911   19.4252 C   0  0  1  0  0  0  0  0  0  0  0  0
   26.9460    7.4724   20.3787 C   0  0  0  0  0  0  0  0  0  0  0  0
   27.6972    8.7153   19.8898 C   0  0  2  0  0  0  0  0  0  0  0  0
   26.5430    5.0808   19.8866 N   0  0  0  0  0  0  0  0  0  0  0  0
   27.3916    9.7979   20.8212 N   0  0  0  0  0  0  0  0  0  0  0  0
   27.1017    8.2267   16.1789 O   0  0  0  0  0  0  0  0  0  0  0  0
   27.1429    5.5444   17.1064 O   0  0  0  0  0  0  0  0  0  0  0  0
  1  2  1  0  0  0  0
  1 12  1  6  0  0  0
  1 13  1  0  0  0  0
  2  3  1  0  0  0  0
  2 10  1  6  0  0  0
  4  3  1  6  0  0  0
  4  5  1  0  0  0  0
  4 14  1  0  0  0  0
  5  6  1  0  0  0  0
  5 13  1  1  0  0  0
  6  7  1  0  0  0  0
  6 15  1  1  0  0  0
  7  8  1  0  0  0  0
  7 11  1  1  0  0  0
  8 14  1  0  0  0  0
  8 16  1  6  0  0  0
  9 11  1  0  0  0  0
 17 16  1  1  0  0  0
 17 18  1  0  0  0  0
 17 24  1  0  0  0  0
 18 19  1  0  0  0  0
 18 25  1  1  0  0  0
 19 20  1  0  0  0  0
 19 26  1  6  0  0  0
 20 21  1  0  0  0  0
 20 23  1  1  0  0  0
 21 22  1  6  0  0  0
 21 24  1  0  0  0  0
 22 27  1  0  0  0  0
 28 12  1  6  0  0  0
 28 29  1  0  0  0  0
 28 33  1  0  0  0  0
 29 30  1  0  0  0  0
 29 36  1  6  0  0  0
 30 31  1  0  0  0  0
 30 37  1  6  0  0  0
 31 32  1  0  0  0  0
 31 34  1  1  0  0  0
 32 33  1  0  0  0  0
 33 35  1  1  0  0  0
M  END
>  <CHROM.1>
177.62998896,161.35063602,88.46856143,-88.91283248,173.74219183,-121.89327248
31.50884377,8.31437451,17.03552076,-2.91170207,-0.49336353,-2.93365008

>  <Name>
1yrj_lig

>  <RI>
0

>  <Rbt.Current_Directory>
/home/itssahil/PROJECTS/Mol_Feturizer/New_Systems/rnas/1yrj

>  <Rbt.Executable>
rbdock ($Id: //depot/dev/client3/rdock/2013.1/src/exe/rbdock.cxx#4 $)

>  <Rbt.Library>
libRbt.so (2013.1, Build901 2013/11/27)

>  <Rbt.Parameter_File>
/export/apps/rDock/src/rDock_2013.1_src/data/scripts/dock_solv.prm

>  <Rbt.Receptor>
prm/blind_docking_40.prm

>  <SCORE>
2.30095

>  <SCORE.INTER>
-5.47598

>  <SCORE.INTER.CONST>
1

>  <SCORE.INTER.POLAR>
-1.13273

>  <SCORE.INTER.ROT>
6

>  <SCORE.INTER.SOLV>
20.3789

>  <SCORE.INTER.VDW>
-14.2679

>  <SCORE.INTER.norm>
-0.148

>  <SCORE.INTRA>
4.03579

>  <SCORE.INTRA.DIHEDRAL>
-1.25279

>  <SCORE.INTRA.DIHEDRAL.0>
15.6389

>  <SCORE.INTRA.POLAR>
0

>  <SCORE.INTRA.POLAR.0>
0

>  <SCORE.INTRA.REPUL>
0

>  <SCORE.INTRA.REPUL.0>
0

>  <SCORE.INTRA.SOLV>
0.864238

>  <SCORE.INTRA.SOLV.lig_0>
-90.9181

>  <SCORE.INTRA.VDW>
4.23006

>  <SCORE.INTRA.VDW.0>
-3.14158

>  <SCORE.INTRA.norm>
0.109075

>  <SCORE.RESTR>
3.74115

>  <SCORE.RESTR.CAVITY>
3.74115

>  <SCORE.RESTR.norm>
0.101112

>  <SCORE.SYSTEM>
0

>  <SCORE.SYSTEM.CONST>
0

>  <SCORE.SYSTEM.DIHEDRAL>
0

>  <SCORE.SYSTEM.SOLV>
0

>  <SCORE.SYSTEM.norm>
0

>  <SCORE.heavy>
37

>  <SCORE.norm>
0.0621879

>  <RMSD>
14.687

$$$$
1yrj_lig
 OpenBabel11021811423D
libRbt.so/2013.1/901 2013/11/27
 37 40  0  0  0  0  0  0  0  0999 V2000
   28.6910   10.2957   20.2729 C   0  0  1  0  0  0  0  0  0  0  0  0
   29.4547   11.4728   19.6352 C   0  0  1  0  0  0  0  0  0  0  0  0
   30.1321   11.0671   18.3165 C   0  0  0  0  0  0  0  0  0  0  0  0
   31.0517    9.8395   18.5468 C   0  0  1  0  0  0  0  0  0  0  0  0
   30.2368    8.6730   19.1369 C   0  0  1  0  0  0  0  0  0  0  0  0
   31.1970    7.4278   19.3501 C   0  0  1  0  0  0  0  0  0  0  0  0
   31.8176    7.0163   18.0051 C   0  0  1  0  0  0  0  0  0  0  0  0
   32.5818    8.2349   17.4330 C   0  0  2  0  0  0  0  0  0  0  0  0
   32.7201    4.8232   17.0658 C   0  0  0  0  0  0  0  0  0  0  0  0
   28.5851   12.6413   19.4221 N   0  0  0  0  0  0  0  0  0  0  0  0
   32.6850    5.8116   18.1887 N   0  0  0  0  0  0  0  0  0  0  0  0
   27.4609    9.9722   19.5982 O   0  0  0  0  0  0  0  0  0  0  0  0
   29.5990    9.1374   20.3854 O   0  0  0  0  0  0  0  0  0  0  0  0
   31.6993    9.3844   17.2953 O   0  0  0  0  0  0  0  0  0  0  0  0
   32.2575    7.7943   20.2078 O   0  0  0  0  0  0  0  0  0  0  0  0
   33.1406    7.9581   16.1482 O   0  0  0  0  0  0  0  0  0  0  0  0
   34.5335    8.3338   16.0381 C   0  0  2  0  0  0  0  0  0  0  0  0
   34.9673    8.6491   14.5972 C   0  0  1  0  0  0  0  0  0  0  0  0
   34.9827    7.3665   13.7238 C   0  0  2  0  0  0  0  0  0  0  0  0
   35.9005    6.3355   14.3400 C   0  0  1  0  0  0  0  0  0  0  0  0
   35.4211    6.0182   15.7762 C   0  0  1  0  0  0  0  0  0  0  0  0
   36.3233    5.0169   16.4941 C   0  0  0  0  0  0  0  0  0  0  0  0
   35.8905    5.1268   13.4901 N   0  0  0  0  0  0  0  0  0  0  0  0
   35.3988    7.2573   16.5740 O   0  0  0  0  0  0  0  0  0  0  0  0
   34.0886    9.6538   14.0704 O   0  0  0  0  0  0  0  0  0  0  0  0
   35.4627    7.6831   12.4099 O   0  0  0  0  0  0  0  0  0  0  0  0
   35.6420    4.4827   17.5979 O   0  0  0  0  0  0  0  0  0  0  0  0
   27.0249    8.5540   19.2618 C   0  0  1  0  0  0  0  0  0  0  0  0
   27.7694    8.1427   17.9725 C   0  0  1  0  0  0  0  0  0  0  0  0
   27.4436    6.6812   17.5802 C   0  0  2  0  0  0  0  0  0  0  0  0
   27.8308    5.7338   18.7220 C   0  0  1  0  0  0  0  0  0  0  0  0
   27.0625    6.1122   20.0140 C   0  0  0  0  0  0  0  0  0  0  0  0
   27.4118    7.5553   20.3926 C   0  0  2  0  0  0  0  0  0  0  0  0
   27.5065    4.3399   18.3448 N   0  0  0  0  0  0  0  0  0  0  0  0
   26.6848    7.8670   21.6202 N   0  0  0  0  0  0  0  0  0  0  0  0
   27.3604    9.0121   16.8942 O   0  0  0  0  0  0  0  0  0  0  0  0
   28.1828    6.3432   16.3869 O   0  0  0  0  0  0  0  0  0  0  0  0
  1  2  1  0  0  0  0
  1 12  1  6  0  0  0
  1 13  1  0  0  0  0
  2  3  1  0  0  0  0
  2 10  1  6  0  0  0
  4  3  1  6  0  0  0
  4  5  1  0  0  0  0
  4 14  1  0  0  0  0
  5  6  1  0  0  0  0
  5 13  1  1  0  0  0
  6  7  1  0  0  0  0
  6 15  1  1  0  0  0
  7  8  1  0  0  0  0
  7 11  1  1  0  0  0
  8 14  1  0  0  0  0
  8 16  1  6  0  0  0
  9 11  1  0  0  0  0
 17 16  1  6  0  0  0
 17 18  1  0  0  0  0
 17 24  1  0  0  0  0
 18 19  1  0  0  0  0
 18 25  1  6  0  0  0
 19 20  1  0  0  0  0
 19 26  1  6  0  0  0
 20 21  1  0  0  0  0
 20 23  1  6  0  0  0
 21 22  1  1  0  0  0
 21 24  1  0  0  0  0
 22 27  1  0  0  0  0
 28 12  1  1  0  0  0
 28 29  1  0  0  0  0
 28 33  1  0  0  0  0
 29 30  1  0  0  0  0
 29 36  1  6  0  0  0
 30 31  1  0  0  0  0
 30 37  1  6  0  0  0
 31 32  1  0  0  0  0
 31 34  1  6  0  0  0
 32 33  1  0  0  0  0
 33 35  1  1  0  0  0
M  END
>  <CHROM.1>
135.11887172,145.18956328,-131.10774338,-153.86449251,-162.74110784,-80.91395906
31.28188775,7.77705940,17.57603294,-2.93097885,-0.54345916,3.12786651

>  <Name>
1yrj_lig

>  <RI>
0

>  <Rbt.Current_Directory>
/home/itssahil/PROJECTS/Mol_Feturizer/New_Systems/rnas/1yrj

>  <Rbt.Executable>
rbdock ($Id: //depot/dev/client3/rdock/2013.1/src/exe/rbdock.cxx#4 $)

>  <Rbt.Library>
libRbt.so (2013.1, Build901 2013/11/27)

>  <Rbt.Parameter_File>
/export/apps/rDock/src/rDock_2013.1_src/data/scripts/dock_solv.prm

>  <Rbt.Receptor>
prm/blind_docking_40.prm

>  <SCORE>
-5.02908

>  <SCORE.INTER>
-9.29282

>  <SCORE.INTER.CONST>
1

>  <SCORE.INTER.POLAR>
-1.80099

>  <SCORE.INTER.ROT>
6

>  <SCORE.INTER.SOLV>
25.8063

>  <SCORE.INTER.VDW>
-16.394

>  <SCORE.INTER.norm>
-0.251157

>  <SCORE.INTRA>
1.98126

>  <SCORE.INTRA.DIHEDRAL>
3.63413

>  <SCORE.INTRA.DIHEDRAL.0>
15.6389

>  <SCORE.INTRA.POLAR>
0

>  <SCORE.INTRA.POLAR.0>
0

>  <SCORE.INTRA.REPUL>
0

>  <SCORE.INTRA.REPUL.0>
0

>  <SCORE.INTRA.SOLV>
0.826147

>  <SCORE.INTRA.SOLV.lig_0>
-90.9181

>  <SCORE.INTRA.VDW>
-0.24888

>  <SCORE.INTRA.VDW.0>
-3.14158

>  <SCORE.INTRA.norm>
0.0535476

>  <SCORE.RESTR>
2.28248

>  <SCORE.RESTR.CAVITY>
2.28248

>  <SCORE.RESTR.norm>
0.0616887

>  <SCORE.SYSTEM>
0

>  <SCORE.SYSTEM.CONST>
0

>  <SCORE.SYSTEM.DIHEDRAL>
0

>  <SCORE.SYSTEM.SOLV>
0

>  <SCORE.SYSTEM.norm>
0

>  <SCORE.heavy>
37

>  <SCORE.norm>
-0.135921

>  <RMSD>
14.717

$$$$
1yrj_lig
 OpenBabel11021811423D
libRbt.so/2013.1/901 2013/11/27
 37 40  0  0  0  0  0  0  0  0999 V2000
   28.6791   10.3346   20.2262 C   0  0  1  0  0  0  0  0  0  0  0  0
   29.4393   11.5083   19.5781 C   0  0  1  0  0  0  0  0  0  0  0  0
   30.1191   11.0926   18.2638 C   0  0  0  0  0  0  0  0  0  0  0  0
   31.0426    9.8703   18.5062 C   0  0  1  0  0  0  0  0  0  0  0  0
   30.2311    8.7066   19.1064 C   0  0  1  0  0  0  0  0  0  0  0  0
   31.1954    7.4667   19.3319 C   0  0  1  0  0  0  0  0  0  0  0  0
   31.8185    7.0448   17.9913 C   0  0  1  0  0  0  0  0  0  0  0  0
   32.5790    8.2607   17.4084 C   0  0  2  0  0  0  0  0  0  0  0  0
   32.6925    4.8229   17.0936 C   0  0  0  0  0  0  0  0  0  0  0  0
   28.5659   12.6718   19.3536 N   0  0  0  0  0  0  0  0  0  0  0  0
   32.6898    5.8448   18.1867 N   0  0  0  0  0  0  0  0  0  0  0  0
   27.4506   10.0006   19.5536 O   0  0  0  0  0  0  0  0  0  0  0  0
   29.5909    9.1805   20.3501 O   0  0  0  0  0  0  0  0  0  0  0  0
   31.6927    9.4059   17.2594 O   0  0  0  0  0  0  0  0  0  0  0  0
   32.2539    7.8447   20.1870 O   0  0  0  0  0  0  0  0  0  0  0  0
   33.1397    7.9738   16.1267 O   0  0  0  0  0  0  0  0  0  0  0  0
   34.5361    8.3373   16.0198 C   0  0  2  0  0  0  0  0  0  0  0  0
   34.9777    8.6417   14.5789 C   0  0  1  0  0  0  0  0  0  0  0  0
   34.9856    7.3545   13.7121 C   0  0  2  0  0  0  0  0  0  0  0  0
   35.8925    6.3191   14.3369 C   0  0  1  0  0  0  0  0  0  0  0  0
   35.4053    6.0131   15.7730 C   0  0  1  0  0  0  0  0  0  0  0  0
   36.2965    5.0081   16.4993 C   0  0  0  0  0  0  0  0  0  0  0  0
   35.8755    5.1061   13.4932 N   0  0  0  0  0  0  0  0  0  0  0  0
   35.3905    7.2565   16.5643 O   0  0  0  0  0  0  0  0  0  0  0  0
   34.1093    9.6509   14.0437 O   0  0  0  0  0  0  0  0  0  0  0  0
   35.4730    7.6603   12.3984 O   0  0  0  0  0  0  0  0  0  0  0  0
   35.6175    4.5067   17.6198 O   0  0  0  0  0  0  0  0  0  0  0  0
   27.0138    8.5773   19.2409 C   0  0  1  0  0  0  0  0  0  0  0  0
   27.7564    8.1450   17.9573 C   0  0  1  0  0  0  0  0  0  0  0  0
   27.4298    6.6773   17.5893 C   0  0  2  0  0  0  0  0  0  0  0  0
   27.8185    5.7485   18.7457 C   0  0  1  0  0  0  0  0  0  0  0  0
   27.0521    6.1481   20.0325 C   0  0  0  0  0  0  0  0  0  0  0  0
   27.4023    7.5970   20.3872 C   0  0  2  0  0  0  0  0  0  0  0  0
   27.4933    4.3487   18.3918 N   0  0  0  0  0  0  0  0  0  0  0  0
   26.6771    7.9288   21.6107 N   0  0  0  0  0  0  0  0  0  0  0  0
   27.3459    8.9969   16.8656 O   0  0  0  0  0  0  0  0  0  0  0  0
   28.1671    6.3199   16.4006 O   0  0  0  0  0  0  0  0  0  0  0  0
  1  2  1  0  0  0  0
  1 12  1  6  0  0  0
  1 13  1  0  0  0  0
  2  3  1  0  0  0  0
  2 10  1  6  0  0  0
  4  3  1  6  0  0  0
  4  5  1  0  0  0  0
  4 14  1  0  0  0  0
  5  6  1  0  0  0  0
  5 13  1  1  0  0  0
  6  7  1  0  0  0  0
  6 15  1  1  0  0  0
  7  8  1  0  0  0  0
  7 11  1  1  0  0  0
  8 14  1  0  0  0  0
  8 16  1  6  0  0  0
  9 11  1  0  0  0  0
 17 16  1  6  0  0  0
 17 18  1  0  0  0  0
 17 24  1  0  0  0  0
 18 19  1  0  0  0  0
 18 25  1  6  0  0  0
 19 20  1  0  0  0  0
 19 26  1  6  0  0  0
 20 21  1  0  0  0  0
 20 23  1  6  0  0  0
 21 22  1  1  0  0  0
 21 24  1  0  0  0  0
 22 27  1  0  0  0  0
 28 12  1  1  0  0  0
 28 29  1  0  0  0  0
 28 33  1  0  0  0  0
 29 30  1  0  0  0  0
 29 36  1  6  0  0  0
 30 31  1  0  0  0  0
 30 37  1  6  0  0  0
 31 32  1  0  0  0  0
 31 34  1  6  0  0  0
 32 33  1  0  0  0  0
 33 35  1  1  0  0  0
M  END
>  <CHROM.1>
135.67902070,143.12926653,-130.35704622,-153.92331932,-164.00017513,-81.18899161
31.27372905,7.79185497,17.56187043,-2.93300161,-0.54328637,3.11916411

>  <Name>
1yrj_lig

>  <RI>
0

>  <Rbt.Current_Directory>
/home/itssahil/PROJECTS/Mol_Feturizer/New_Systems/rnas/1yrj

>  <Rbt.Executable>
rbdock ($Id: //depot/dev/client3/rdock/2013.1/src/exe/rbdock.cxx#4 $)

>  <Rbt.Library>
libRbt.so (2013.1, Build901 2013/11/27)

>  <Rbt.Parameter_File>
/export/apps/rDock/src/rDock_2013.1_src/data/scripts/dock_solv.prm

>  <Rbt.Receptor>
prm/blind_docking_40.prm

>  <SCORE>
-5.07309

>  <SCORE.INTER>
-9.22016

>  <SCORE.INTER.CONST>
1

>  <SCORE.INTER.POLAR>
-1.79701

>  <SCORE.INTER.ROT>
6

>  <SCORE.INTER.SOLV>
25.5847

>  <SCORE.INTER.VDW>
-16.285

>  <SCORE.INTER.norm>
-0.249193

>  <SCORE.INTRA>
1.85986

>  <SCORE.INTRA.DIHEDRAL>
3.59821

>  <SCORE.INTRA.DIHEDRAL.0>
15.6389

>  <SCORE.INTRA.POLAR>
0

>  <SCORE.INTRA.POLAR.0>
0

>  <SCORE.INTRA.REPUL>
0

>  <SCORE.INTRA.REPUL.0>
0

>  <SCORE.INTRA.SOLV>
0.817001

>  <SCORE.INTRA.SOLV.lig_0>
-90.9181

>  <SCORE.INTRA.VDW>
-0.347745

>  <SCORE.INTRA.VDW.0>
-3.14158

>  <SCORE.INTRA.norm>
0.0502665

>  <SCORE.RESTR>
2.28721

>  <SCORE.RESTR.CAVITY>
2.28721

>  <SCORE.RESTR.norm>
0.0618165

>  <SCORE.SYSTEM>
0

>  <SCORE.SYSTEM.CONST>
0

>  <SCORE.SYSTEM.DIHEDRAL>
0

>  <SCORE.SYSTEM.SOLV>
0

>  <SCORE.SYSTEM.norm>
0

>  <SCORE.heavy>
37

>  <SCORE.norm>
-0.13711

>  <RMSD>
14.718

$$$$
1yrj_lig
 OpenBabel11021811423D
libRbt.so/2013.1/901 2013/11/27
 37 40  0  0  0  0  0  0  0  0999 V2000
   28.6903   10.3239   20.2706 C   0  0  1  0  0  0  0  0  0  0  0  0
   29.4541   11.5006   19.6323 C   0  0  1  0  0  0  0  0  0  0  0  0
   30.1302   11.0945   18.3130 C   0  0  0  0  0  0  0  0  0  0  0  0
   31.0492    9.8664   18.5425 C   0  0  1  0  0  0  0  0  0  0  0  0
   30.2341    8.7003   19.1332 C   0  0  1  0  0  0  0  0  0  0  0  0
   31.1938    7.4546   19.3456 C   0  0  1  0  0  0  0  0  0  0  0  0
   31.8131    7.0428   18.0001 C   0  0  1  0  0  0  0  0  0  0  0  0
   32.5774    8.2610   17.4273 C   0  0  2  0  0  0  0  0  0  0  0  0
   32.6818    4.8291   17.0774 C   0  0  0  0  0  0  0  0  0  0  0  0
   28.5849   12.6696   19.4200 N   0  0  0  0  0  0  0  0  0  0  0  0
   32.6799    5.8376   18.1829 N   0  0  0  0  0  0  0  0  0  0  0  0
   27.4594   10.0011   19.5970 O   0  0  0  0  0  0  0  0  0  0  0  0
   29.5977    9.1651   20.3823 O   0  0  0  0  0  0  0  0  0  0  0  0
   31.6955    9.4110   17.2904 O   0  0  0  0  0  0  0  0  0  0  0  0
   32.2552    7.8205   20.2024 O   0  0  0  0  0  0  0  0  0  0  0  0
   33.1350    7.9839   16.1420 O   0  0  0  0  0  0  0  0  0  0  0  0
   34.5322    8.3443   16.0357 C   0  0  2  0  0  0  0  0  0  0  0  0
   34.9740    8.6519   14.5956 C   0  0  1  0  0  0  0  0  0  0  0  0
   34.9785    7.3672   13.7250 C   0  0  2  0  0  0  0  0  0  0  0  0
   35.8831    6.3278   14.3463 C   0  0  1  0  0  0  0  0  0  0  0  0
   35.3957    6.0187   15.7817 C   0  0  1  0  0  0  0  0  0  0  0  0
   36.2847    5.0094   16.5047 C   0  0  0  0  0  0  0  0  0  0  0  0
   35.8629    5.1174   13.4991 N   0  0  0  0  0  0  0  0  0  0  0  0
   35.3842    7.2598   16.5767 O   0  0  0  0  0  0  0  0  0  0  0  0
   34.1079    9.6648   14.0637 O   0  0  0  0  0  0  0  0  0  0  0  0
   35.4662    7.6758   12.4120 O   0  0  0  0  0  0  0  0  0  0  0  0
   35.5980    4.4927   17.6134 O   0  0  0  0  0  0  0  0  0  0  0  0
   27.0143    8.5822   19.2761 C   0  0  1  0  0  0  0  0  0  0  0  0
   27.7728    8.1440   18.0038 C   0  0  1  0  0  0  0  0  0  0  0  0
   27.4381    6.6798   17.6293 C   0  0  2  0  0  0  0  0  0  0  0  0
   27.7999    5.7464   18.7907 C   0  0  1  0  0  0  0  0  0  0  0  0
   27.0173    6.1520   20.0658 C   0  0  0  0  0  0  0  0  0  0  0  0
   27.3755    7.5973   20.4273 C   0  0  2  0  0  0  0  0  0  0  0  0
   27.4673    4.3500   18.4303 N   0  0  0  0  0  0  0  0  0  0  0  0
   26.6344    7.9348   21.6396 N   0  0  0  0  0  0  0  0  0  0  0  0
   27.3874    9.0006   16.9067 O   0  0  0  0  0  0  0  0  0  0  0  0
   28.1907    6.3164   16.4519 O   0  0  0  0  0  0  0  0  0  0  0  0
  1  2  1  0  0  0  0
  1 12  1  6  0  0  0
  1 13  1  0  0  0  0
  2  3  1  0  0  0  0
  2 10  1  6  0  0  0
  4  3  1  6  0  0  0
  4  5  1  0  0  0  0
  4 14  1  0  0  0  0
  5  6  1  0  0  0  0
  5 13  1  1  0  0  0
  6  7  1  0  0  0  0
  6 15  1  1  0  0  0
  7  8  1  0  0  0  0
  7 11  1  1  0  0  0
  8 14  1  0  0  0  0
  8 16  1  6  0  0  0
  9 11  1  0  0  0  0
 17 16  1  6  0  0  0
 17 18  1  0  0  0  0
 17 24  1  0  0  0  0
 18 19  1  0  0  0  0
 18 25  1  6  0  0  0
 19 20  1  0  0  0  0
 19 26  1  6  0  0  0
 20 21  1  0  0  0  0
 20 23  1  6  0  0  0
 21 22  1  1  0  0  0
 21 24  1  0  0  0  0
 22 27  1  0  0  0  0
 28 12  1  1  0  0  0
 28 29  1  0  0  0  0
 28 33  1  0  0  0  0
 29 30  1  0  0  0  0
 29 36  1  6  0  0  0
 30 31  1  0  0  0  0
 30 37  1  6  0  0  0
 31 32  1  0  0  0  0
 31 34  1  6  0  0  0
 32 33  1  0  0  0  0
 33 35  1  1  0  0  0
M  END
>  <CHROM.1>
135.89970289,143.41154800,-130.42578647,-154.27138020,-163.19725496,-80.18273946
31.27128217,7.79248590,17.58734007,-2.93076238,-0.54592233,3.12802533

>  <Name>
1yrj_lig

>  <RI>
0

>  <Rbt.Current_Directory>
/home/itssahil/PROJECTS/Mol_Feturizer/New_Systems/rnas/1yrj

>  <Rbt.Executable>
rbdock ($Id: //depot/dev/client3/rdock/2013.1/src/exe/rbdock.cxx#4 $)

>  <Rbt.Library>
libRbt.so (2013.1, Build901 2013/11/27)

>  <Rbt.Parameter_File>
/export/apps/rDock/src/rDock_2013.1_src/data/scripts/dock_solv.prm

>  <Rbt.Receptor>
prm/blind_docking_40.prm

>  <SCORE>
-5.17482

>  <SCORE.INTER>
-9.29822

>  <SCORE.INTER.CONST>
1

>  <SCORE.INTER.POLAR>
-1.80623

>  <SCORE.INTER.ROT>
6

>  <SCORE.INTER.SOLV>
25.5055

>  <SCORE.INTER.VDW>
-16.2799

>  <SCORE.INTER.norm>
-0.251303

>  <SCORE.INTRA>
1.83933

>  <SCORE.INTRA.DIHEDRAL>
3.40637

>  <SCORE.INTRA.DIHEDRAL.0>
15.6389

>  <SCORE.INTRA.POLAR>
0

>  <SCORE.INTRA.POLAR.0>
0

>  <SCORE.INTRA.REPUL>
0

>  <SCORE.INTRA.REPUL.0>
0

>  <SCORE.INTRA.SOLV>
0.812876

>  <SCORE.INTRA.SOLV.lig_0>
-90.9181

>  <SCORE.INTRA.VDW>
-0.270295

>  <SCORE.INTRA.VDW.0>
-3.14158

>  <SCORE.INTRA.norm>
0.0497116

>  <SCORE.RESTR>
2.28408

>  <SCORE.RESTR.CAVITY>
2.28408

>  <SCORE.RESTR.norm>
0.0617318

>  <SCORE.SYSTEM>
0

>  <SCORE.SYSTEM.CONST>
0

>  <SCORE.SYSTEM.DIHEDRAL>
0

>  <SCORE.SYSTEM.SOLV>
0

>  <SCORE.SYSTEM.norm>
0

>  <SCORE.heavy>
37

>  <SCORE.norm>
-0.13986

>  <RMSD>
14.737

$$$$
1yrj_lig
 OpenBabel11021811423D
libRbt.so/2013.1/901 2013/11/27
 37 40  0  0  0  0  0  0  0  0999 V2000
   36.7166    6.5218   18.6953 C   0  0  1  0  0  0  0  0  0  0  0  0
   35.8674    5.6245   19.6167 C   0  0  1  0  0  0  0  0  0  0  0  0
   34.3831    6.0229   19.5925 C   0  0  0  0  0  0  0  0  0  0  0  0
   34.2297    7.5247   19.9483 C   0  0  1  0  0  0  0  0  0  0  0  0
   35.0538    8.3851   18.9719 C   0  0  1  0  0  0  0  0  0  0  0  0
   34.8692    9.9153   19.3494 C   0  0  1  0  0  0  0  0  0  0  0  0
   33.3814   10.2933   19.2659 C   0  0  1  0  0  0  0  0  0  0  0  0
   32.5938    9.3693   20.2263 C   0  0  2  0  0  0  0  0  0  0  0  0
   33.2123   12.6901   18.4097 C   0  0  0  0  0  0  0  0  0  0  0  0
   36.0170    4.1981   19.2849 N   0  0  0  0  0  0  0  0  0  0  0  0
   33.2044   11.7468   19.5713 N   0  0  0  0  0  0  0  0  0  0  0  0
   36.5383    6.2434   17.2939 O   0  0  0  0  0  0  0  0  0  0  0  0
   36.4596    7.9361   19.0308 O   0  0  0  0  0  0  0  0  0  0  0  0
   32.8177    7.9683   19.9007 O   0  0  0  0  0  0  0  0  0  0  0  0
   35.2812   10.1224   20.6843 O   0  0  0  0  0  0  0  0  0  0  0  0
   31.1877    9.6117   20.1651 O   0  0  0  0  0  0  0  0  0  0  0  0
   30.6534    9.5390   18.8224 C   0  0  2  0  0  0  0  0  0  0  0  0
   29.2035   10.0392   18.7159 C   0  0  1  0  0  0  0  0  0  0  0  0
   28.2233    9.0706   19.4297 C   0  0  2  0  0  0  0  0  0  0  0  0
   28.3503    7.6841   18.8410 C   0  0  1  0  0  0  0  0  0  0  0  0
   29.8114    7.1978   18.9899 C   0  0  1  0  0  0  0  0  0  0  0  0
   30.0421    5.8188   18.3758 C   0  0  0  0  0  0  0  0  0  0  0  0
   27.4102    6.7856   19.5427 N   0  0  0  0  0  0  0  0  0  0  0  0
   30.7180    8.1470   18.3195 O   0  0  0  0  0  0  0  0  0  0  0  0
   29.1428   11.3674   19.2554 O   0  0  0  0  0  0  0  0  0  0  0  0
   26.8758    9.5263   19.2469 O   0  0  0  0  0  0  0  0  0  0  0  0
   31.3666    5.4198   18.6089 O   0  0  0  0  0  0  0  0  0  0  0  0
   37.2225    7.0217   16.1801 C   0  0  1  0  0  0  0  0  0  0  0  0
   36.3404    6.8830   14.9197 C   0  0  1  0  0  0  0  0  0  0  0  0
   36.9189    7.7003   13.7392 C   0  0  2  0  0  0  0  0  0  0  0  0
   37.0285    9.1789   14.1299 C   0  0  1  0  0  0  0  0  0  0  0  0
   37.9416    9.3369   15.3726 C   0  0  0  0  0  0  0  0  0  0  0  0
   37.3424    8.5342   16.5321 C   0  0  2  0  0  0  0  0  0  0  0  0
   37.5924    9.9524   13.0011 N   0  0  0  0  0  0  0  0  0  0  0  0
   38.2188    8.7224   17.6851 N   0  0  0  0  0  0  0  0  0  0  0  0
   36.2842    5.4922   14.5344 O   0  0  0  0  0  0  0  0  0  0  0  0
   36.0448    7.5550   12.5993 O   0  0  0  0  0  0  0  0  0  0  0  0
  1  2  1  0  0  0  0
  1 12  1  6  0  0  0
  1 13  1  0  0  0  0
  2  3  1  0  0  0  0
  2 10  1  6  0  0  0
  4  3  1  6  0  0  0
  4  5  1  0  0  0  0
  4 14  1  0  0  0  0
  5  6  1  0  0  0  0
  5 13  1  1  0  0  0
  6  7  1  0  0  0  0
  6 15  1  1  0  0  0
  7  8  1  0  0  0  0
  7 11  1  1  0  0  0
  8 14  1  0  0  0  0
  8 16  1  6  0  0  0
  9 11  1  0  0  0  0
 17 16  1  1  0  0  0
 17 18  1  0  0  0  0
 17 24  1  0  0  0  0
 18 19  1  0  0  0  0
 18 25  1  1  0  0  0
 19 20  1  0  0  0  0
 19 26  1  6  0  0  0
 20 21  1  0  0  0  0
 20 23  1  1  0  0  0
 21 22  1  6  0  0  0
 21 24  1  0  0  0  0
 22 27  1  0  0  0  0
 28 12  1  1  0  0  0
 28 29  1  0  0  0  0
 28 33  1  0  0  0  0
 29 30  1  0  0  0  0
 29 36  1  6  0  0  0
 30 31  1  0  0  0  0
 30 37  1  6  0  0  0
 31 32  1  0  0  0  0
 31 34  1  6  0  0  0
 32 33  1  0  0  0  0
 33 35  1  1  0  0  0
M  END
>  <CHROM.1>
177.69259240,92.52120073,53.65587743,-169.80408533,-177.05697531,-154.85279734
33.60415579,8.25019844,18.02897121,0.12685721,-0.44379031,3.11833259

>  <Name>
1yrj_lig

>  <RI>
0

>  <Rbt.Current_Directory>
/home/itssahil/PROJECTS/Mol_Feturizer/New_Systems/rnas/1yrj

>  <Rbt.Executable>
rbdock ($Id: //depot/dev/client3/rdock/2013.1/src/exe/rbdock.cxx#4 $)

>  <Rbt.Library>
libRbt.so (2013.1, Build901 2013/11/27)

>  <Rbt.Parameter_File>
/export/apps/rDock/src/rDock_2013.1_src/data/scripts/dock_solv.prm

>  <Rbt.Receptor>
prm/blind_docking_100.prm

>  <SCORE>
-11.0591

>  <SCORE.INTER>
-8.34115

>  <SCORE.INTER.CONST>
1

>  <SCORE.INTER.POLAR>
-1.07717

>  <SCORE.INTER.ROT>
6

>  <SCORE.INTER.SOLV>
11.8519

>  <SCORE.INTER.VDW>
-13.5208

>  <SCORE.INTER.norm>
-0.225437

>  <SCORE.INTRA>
-2.74883

>  <SCORE.INTRA.DIHEDRAL>
-11.4035

>  <SCORE.INTRA.DIHEDRAL.0>
15.6389

>  <SCORE.INTRA.POLAR>
0

>  <SCORE.INTRA.POLAR.0>
0

>  <SCORE.INTRA.REPUL>
0

>  <SCORE.INTRA.REPUL.0>
0

>  <SCORE.INTRA.SOLV>
1.54305

>  <SCORE.INTRA.SOLV.lig_0>
-90.9181

>  <SCORE.INTRA.VDW>
2.18141

>  <SCORE.INTRA.VDW.0>
-3.14158

>  <SCORE.INTRA.norm>
-0.0742927

>  <SCORE.RESTR>
0.0309225

>  <SCORE.RESTR.CAVITY>
0.0309225

>  <SCORE.RESTR.norm>
0.000835742

>  <SCORE.SYSTEM>
0

>  <SCORE.SYSTEM.CONST>
0

>  <SCORE.SYSTEM.DIHEDRAL>
0

>  <SCORE.SYSTEM.SOLV>
0

>  <SCORE.SYSTEM.norm>
0

>  <SCORE.heavy>
37

>  <SCORE.norm>
-0.298894

>  <RMSD>
14.739

$$$$
1yrj_lig
 OpenBabel11021811423D
libRbt.so/2013.1/901 2013/11/27
 37 40  0  0  0  0  0  0  0  0999 V2000
   29.3374   10.0449   20.1790 C   0  0  1  0  0  0  0  0  0  0  0  0
   30.0019   11.2691   19.5193 C   0  0  1  0  0  0  0  0  0  0  0  0
   30.8936   10.8658   18.3341 C   0  0  0  0  0  0  0  0  0  0  0  0
   31.9407    9.8161   18.7895 C   0  0  1  0  0  0  0  0  0  0  0  0
   31.2305    8.5907   19.3952 C   0  0  1  0  0  0  0  0  0  0  0  0
   32.3223    7.5285   19.8401 C   0  0  1  0  0  0  0  0  0  0  0  0
   33.1624    7.1087   18.6230 C   0  0  1  0  0  0  0  0  0  0  0  0
   33.8131    8.3792   18.0240 C   0  0  2  0  0  0  0  0  0  0  0  0
   34.5079    5.0322   18.0030 C   0  0  0  0  0  0  0  0  0  0  0  0
   29.0100   12.2696   19.0925 N   0  0  0  0  0  0  0  0  0  0  0  0
   34.1611    6.0698   19.0240 N   0  0  0  0  0  0  0  0  0  0  0  0
   28.2625    9.4832   19.4031 O   0  0  0  0  0  0  0  0  0  0  0  0
   30.3785    9.0522   20.5097 O   0  0  0  0  0  0  0  0  0  0  0  0
   32.8015    9.3652   17.6722 O   0  0  0  0  0  0  0  0  0  0  0  0
   33.2011    8.1215   20.7732 O   0  0  0  0  0  0  0  0  0  0  0  0
   34.5657    8.0875   16.8459 O   0  0  0  0  0  0  0  0  0  0  0  0
   33.7834    8.1755   15.6318 C   0  0  2  0  0  0  0  0  0  0  0  0
   33.0717    6.8618   15.2693 C   0  0  1  0  0  0  0  0  0  0  0  0
   34.0902    5.7749   14.8342 C   0  0  2  0  0  0  0  0  0  0  0  0
   34.9081    6.2746   13.6654 C   0  0  1  0  0  0  0  0  0  0  0  0
   35.6342    7.5792   14.0705 C   0  0  1  0  0  0  0  0  0  0  0  0
   36.4493    8.1826   12.9289 C   0  0  0  0  0  0  0  0  0  0  0  0
   35.8698    5.2219   13.2778 N   0  0  0  0  0  0  0  0  0  0  0  0
   34.6431    8.5836   14.4964 O   0  0  0  0  0  0  0  0  0  0  0  0
   32.2848    6.4483   16.3958 O   0  0  0  0  0  0  0  0  0  0  0  0
   33.3893    4.5900   14.4321 O   0  0  0  0  0  0  0  0  0  0  0  0
   37.3771    7.2370   12.4674 O   0  0  0  0  0  0  0  0  0  0  0  0
   28.0481    7.9900   19.2059 C   0  0  1  0  0  0  0  0  0  0  0  0
   26.5857    7.6844   19.5984 C   0  0  1  0  0  0  0  0  0  0  0  0
   26.2447    6.1922   19.3680 C   0  0  2  0  0  0  0  0  0  0  0  0
   26.4697    5.8247   17.8965 C   0  0  1  0  0  0  0  0  0  0  0  0
   27.9438    6.0918   17.4985 C   0  0  0  0  0  0  0  0  0  0  0  0
   28.2546    7.5760   17.7187 C   0  0  2  0  0  0  0  0  0  0  0  0
   26.1526    4.3945   17.6857 N   0  0  0  0  0  0  0  0  0  0  0  0
   29.6422    7.7902   17.3168 N   0  0  0  0  0  0  0  0  0  0  0  0
   26.3996    7.9897   20.9977 O   0  0  0  0  0  0  0  0  0  0  0  0
   24.8640    5.9690   19.7265 O   0  0  0  0  0  0  0  0  0  0  0  0
  1  2  1  0  0  0  0
  1 12  1  6  0  0  0
  1 13  1  0  0  0  0
  2  3  1  0  0  0  0
  2 10  1  6  0  0  0
  4  3  1  6  0  0  0
  4  5  1  0  0  0  0
  4 14  1  0  0  0  0
  5  6  1  0  0  0  0
  5 13  1  1  0  0  0
  6  7  1  0  0  0  0
  6 15  1  1  0  0  0
  7  8  1  0  0  0  0
  7 11  1  1  0  0  0
  8 14  1  0  0  0  0
  8 16  1  6  0  0  0
  9 11  1  0  0  0  0
 17 16  1  1  0  0  0
 17 18  1  0  0  0  0
 17 24  1  0  0  0  0
 18 19  1  0  0  0  0
 18 25  1  1  0  0  0
 19 20  1  0  0  0  0
 19 26  1  6  0  0  0
 20 21  1  0  0  0  0
 20 23  1  1  0  0  0
 21 22  1  6  0  0  0
 21 24  1  0  0  0  0
 22 27  1  0  0  0  0
 28 12  1  6  0  0  0
 28 29  1  0  0  0  0
 28 33  1  0  0  0  0
 29 30  1  0  0  0  0
 29 36  1  1  0  0  0
 30 31  1  0  0  0  0
 30 37  1  6  0  0  0
 31 32  1  0  0  0  0
 31 34  1  1  0  0  0
 32 33  1  0  0  0  0
 33 35  1  1  0  0  0
M  END
>  <CHROM.1>
137.56716100,146.82634601,90.00371414,-87.87231404,-57.01633723,127.48947932
31.42309992,7.65542266,17.52468040,-2.72711141,-0.39695194,-2.47482519

>  <Name>
1yrj_lig

>  <RI>
0

>  <Rbt.Current_Directory>
/home/itssahil/PROJECTS/Mol_Feturizer/New_Systems/rnas/1yrj

>  <Rbt.Executable>
rbdock ($Id: //depot/dev/client3/rdock/2013.1/src/exe/rbdock.cxx#4 $)

>  <Rbt.Library>
libRbt.so (2013.1, Build901 2013/11/27)

>  <Rbt.Parameter_File>
/export/apps/rDock/src/rDock_2013.1_src/data/scripts/dock_solv.prm

>  <Rbt.Receptor>
prm/blind_docking_40.prm

>  <SCORE>
3.50631

>  <SCORE.INTER>
-7.7171

>  <SCORE.INTER.CONST>
1

>  <SCORE.INTER.POLAR>
-0.995578

>  <SCORE.INTER.ROT>
6

>  <SCORE.INTER.SOLV>
18.6423

>  <SCORE.INTER.VDW>
-15.6402

>  <SCORE.INTER.norm>
-0.20857

>  <SCORE.INTRA>
8.78601

>  <SCORE.INTRA.DIHEDRAL>
4.55707

>  <SCORE.INTRA.DIHEDRAL.0>
15.6389

>  <SCORE.INTRA.POLAR>
0

>  <SCORE.INTRA.POLAR.0>
0

>  <SCORE.INTRA.REPUL>
0.146796

>  <SCORE.INTRA.REPUL.0>
0

>  <SCORE.INTRA.SOLV>
5.93272

>  <SCORE.INTRA.SOLV.lig_0>
-90.9181

>  <SCORE.INTRA.VDW>
2.80714

>  <SCORE.INTRA.VDW.0>
-3.14158

>  <SCORE.INTRA.norm>
0.23746

>  <SCORE.RESTR>
2.43739

>  <SCORE.RESTR.CAVITY>
2.43739

>  <SCORE.RESTR.norm>
0.0658754

>  <SCORE.SYSTEM>
0

>  <SCORE.SYSTEM.CONST>
0

>  <SCORE.SYSTEM.DIHEDRAL>
0

>  <SCORE.SYSTEM.SOLV>
0

>  <SCORE.SYSTEM.norm>
0

>  <SCORE.heavy>
37

>  <SCORE.norm>
0.094765

>  <RMSD>
14.746

$$$$
1yrj_lig
 OpenBabel11021811423D
libRbt.so/2013.1/901 2013/11/27
 37 40  0  0  0  0  0  0  0  0999 V2000
   36.6692    6.1285   19.0739 C   0  0  1  0  0  0  0  0  0  0  0  0
   35.8595    4.8435   19.3359 C   0  0  1  0  0  0  0  0  0  0  0  0
   34.4980    4.8708   18.6232 C   0  0  0  0  0  0  0  0  0  0  0  0
   33.7097    6.1429   19.0307 C   0  0  1  0  0  0  0  0  0  0  0  0
   34.5350    7.4021   18.7046 C   0  0  1  0  0  0  0  0  0  0  0  0
   33.7016    8.6874   19.1187 C   0  0  1  0  0  0  0  0  0  0  0  0
   32.3700    8.7106   18.3508 C   0  0  1  0  0  0  0  0  0  0  0  0
   31.6035    7.4050   18.6739 C   0  0  2  0  0  0  0  0  0  0  0  0
   31.7874   11.1339   17.8079 C   0  0  0  0  0  0  0  0  0  0  0  0
   36.6087    3.6346   18.9560 N   0  0  0  0  0  0  0  0  0  0  0  0
   31.6003    9.9454   18.6976 N   0  0  0  0  0  0  0  0  0  0  0  0
   37.2267    6.1995   17.7483 O   0  0  0  0  0  0  0  0  0  0  0  0
   35.8328    7.2996   19.4020 O   0  0  0  0  0  0  0  0  0  0  0  0
   32.4036    6.2358   18.3393 O   0  0  0  0  0  0  0  0  0  0  0  0
   33.3921    8.6227   20.4951 O   0  0  0  0  0  0  0  0  0  0  0  0
   30.3759    7.3148   17.9498 O   0  0  0  0  0  0  0  0  0  0  0  0
   29.7044    6.0444   18.1198 C   0  0  2  0  0  0  0  0  0  0  0  0
   28.2090    6.0938   17.7661 C   0  0  1  0  0  0  0  0  0  0  0  0
   27.4168    6.9376   18.7999 C   0  0  2  0  0  0  0  0  0  0  0  0
   27.6150    6.3704   20.1870 C   0  0  1  0  0  0  0  0  0  0  0  0
   29.1248    6.3615   20.5243 C   0  0  1  0  0  0  0  0  0  0  0  0
   29.4219    5.7569   21.8947 C   0  0  0  0  0  0  0  0  0  0  0  0
   26.8540    7.1959   21.1476 N   0  0  0  0  0  0  0  0  0  0  0  0
   29.8511    5.5696   19.5154 O   0  0  0  0  0  0  0  0  0  0  0  0
   28.0767    6.6059   16.4322 O   0  0  0  0  0  0  0  0  0  0  0  0
   26.0185    6.9004   18.4832 O   0  0  0  0  0  0  0  0  0  0  0  0
   30.7975    5.8451   22.1554 O   0  0  0  0  0  0  0  0  0  0  0  0
   37.6143    7.4992   17.0590 C   0  0  1  0  0  0  0  0  0  0  0  0
   36.3466    8.0401   16.3617 C   0  0  1  0  0  0  0  0  0  0  0  0
   36.6204    9.4039   15.6824 C   0  0  2  0  0  0  0  0  0  0  0  0
   37.1075   10.4189   16.7232 C   0  0  1  0  0  0  0  0  0  0  0  0
   38.4012    9.9054   17.4055 C   0  0  0  0  0  0  0  0  0  0  0  0
   38.1036    8.5644   18.0845 C   0  0  2  0  0  0  0  0  0  0  0  0
   37.3779   11.7168   16.0653 N   0  0  0  0  0  0  0  0  0  0  0  0
   39.3380    8.1240   18.7287 N   0  0  0  0  0  0  0  0  0  0  0  0
   35.9256    7.0976   15.3516 O   0  0  0  0  0  0  0  0  0  0  0  0
   35.3998    9.8727   15.0699 O   0  0  0  0  0  0  0  0  0  0  0  0
  1  2  1  0  0  0  0
  1 12  1  6  0  0  0
  1 13  1  0  0  0  0
  2  3  1  0  0  0  0
  2 10  1  6  0  0  0
  4  3  1  6  0  0  0
  4  5  1  0  0  0  0
  4 14  1  0  0  0  0
  5  6  1  0  0  0  0
  5 13  1  1  0  0  0
  6  7  1  0  0  0  0
  6 15  1  1  0  0  0
  7  8  1  0  0  0  0
  7 11  1  1  0  0  0
  8 14  1  0  0  0  0
  8 16  1  6  0  0  0
  9 11  1  0  0  0  0
 17 16  1  1  0  0  0
 17 18  1  0  0  0  0
 17 24  1  0  0  0  0
 18 19  1  0  0  0  0
 18 25  1  6  0  0  0
 19 20  1  0  0  0  0
 19 26  1  6  0  0  0
 20 21  1  0  0  0  0
 20 23  1  1  0  0  0
 21 22  1  1  0  0  0
 21 24  1  0  0  0  0
 22 27  1  0  0  0  0
 28 12  1  1  0  0  0
 28 29  1  0  0  0  0
 28 33  1  0  0  0  0
 29 30  1  0  0  0  0
 29 36  1  6  0  0  0
 30 31  1  0  0  0  0
 30 37  1  1  0  0  0
 31 32  1  0  0  0  0
 31 34  1  6  0  0  0
 32 33  1  0  0  0  0
 33 35  1  6  0  0  0
M  END
>  <CHROM.1>
156.91325640,93.11035093,173.81740121,160.31781726,-177.07068562,-86.43704422
33.13204212,7.42350353,18.42412073,-0.28980899,-0.08234721,2.52957900

>  <Name>
1yrj_lig

>  <RI>
0

>  <Rbt.Current_Directory>
/home/itssahil/PROJECTS/Mol_Feturizer/New_Systems/rnas/1yrj

>  <Rbt.Executable>
rbdock ($Id: //depot/dev/client3/rdock/2013.1/src/exe/rbdock.cxx#4 $)

>  <Rbt.Library>
libRbt.so (2013.1, Build901 2013/11/27)

>  <Rbt.Parameter_File>
/export/apps/rDock/src/rDock_2013.1_src/data/scripts/dock_solv.prm

>  <Rbt.Receptor>
prm/blind_docking_60.prm

>  <SCORE>
-9.5587

>  <SCORE.INTER>
-6.15644

>  <SCORE.INTER.CONST>
1

>  <SCORE.INTER.POLAR>
-0.734017

>  <SCORE.INTER.ROT>
6

>  <SCORE.INTER.SOLV>
22.0213

>  <SCORE.INTER.VDW>
-16.598

>  <SCORE.INTER.norm>
-0.16639

>  <SCORE.INTRA>
-4.19418

>  <SCORE.INTRA.DIHEDRAL>
-7.66311

>  <SCORE.INTRA.DIHEDRAL.0>
15.6389

>  <SCORE.INTRA.POLAR>
0

>  <SCORE.INTRA.POLAR.0>
0

>  <SCORE.INTRA.REPUL>
0.00713214

>  <SCORE.INTRA.REPUL.0>
0

>  <SCORE.INTRA.SOLV>
-1.29753

>  <SCORE.INTRA.SOLV.lig_0>
-90.9181

>  <SCORE.INTRA.VDW>
0.250481

>  <SCORE.INTRA.VDW.0>
-3.14158

>  <SCORE.INTRA.norm>
-0.113356

>  <SCORE.RESTR>
0.791917

>  <SCORE.RESTR.CAVITY>
0.791917

>  <SCORE.RESTR.norm>
0.0214032

>  <SCORE.SYSTEM>
0

>  <SCORE.SYSTEM.CONST>
0

>  <SCORE.SYSTEM.DIHEDRAL>
0

>  <SCORE.SYSTEM.SOLV>
0

>  <SCORE.SYSTEM.norm>
0

>  <SCORE.heavy>
37

>  <SCORE.norm>
-0.258343

>  <RMSD>
14.746

$$$$
1yrj_lig
 OpenBabel11021811423D
libRbt.so/2013.1/901 2013/11/27
 37 40  0  0  0  0  0  0  0  0999 V2000
   30.0512   10.0029   20.3039 C   0  0  1  0  0  0  0  0  0  0  0  0
   31.3188   10.7993   19.9372 C   0  0  1  0  0  0  0  0  0  0  0  0
   32.0510   10.1854   18.7333 C   0  0  0  0  0  0  0  0  0  0  0  0
   32.3670    8.6919   19.0081 C   0  0  1  0  0  0  0  0  0  0  0  0
   31.0671    7.9262   19.3198 C   0  0  1  0  0  0  0  0  0  0  0  0
   31.4167    6.4010   19.5837 C   0  0  1  0  0  0  0  0  0  0  0  0
   32.1010    5.8045   18.3430 C   0  0  1  0  0  0  0  0  0  0  0  0
   33.3710    6.6377   18.0446 C   0  0  2  0  0  0  0  0  0  0  0  0
   32.7869    3.5498   17.3671 C   0  0  0  0  0  0  0  0  0  0  0  0
   31.0219   12.2185   19.6826 N   0  0  0  0  0  0  0  0  0  0  0  0
   32.3883    4.3534   18.5648 N   0  0  0  0  0  0  0  0  0  0  0  0
   28.9603   10.1985   19.3848 O   0  0  0  0  0  0  0  0  0  0  0  0
   30.4076    8.5800   20.4682 O   0  0  0  0  0  0  0  0  0  0  0  0
   33.0396    8.0431   17.8595 O   0  0  0  0  0  0  0  0  0  0  0  0
   32.3327    6.3080   20.6546 O   0  0  0  0  0  0  0  0  0  0  0  0
   34.0380    6.1882   16.8645 O   0  0  0  0  0  0  0  0  0  0  0  0
   33.4039    6.6369   15.6438 C   0  0  2  0  0  0  0  0  0  0  0  0
   33.9235    5.9185   14.3878 C   0  0  1  0  0  0  0  0  0  0  0  0
   35.3879    6.3260   14.0753 C   0  0  2  0  0  0  0  0  0  0  0  0
   35.4795    7.8250   13.9044 C   0  0  1  0  0  0  0  0  0  0  0  0
   34.9782    8.5177   15.1937 C   0  0  1  0  0  0  0  0  0  0  0  0
   34.9906   10.0412   15.0907 C   0  0  0  0  0  0  0  0  0  0  0  0
   36.8835    8.1819   13.6131 N   0  0  0  0  0  0  0  0  0  0  0  0
   33.5939    8.0963   15.4738 O   0  0  0  0  0  0  0  0  0  0  0  0
   33.7844    4.5041   14.5860 O   0  0  0  0  0  0  0  0  0  0  0  0
   35.8146    5.6974   12.8588 O   0  0  0  0  0  0  0  0  0  0  0  0
   36.3156   10.4915   14.9927 O   0  0  0  0  0  0  0  0  0  0  0  0
   27.8211    9.2080   19.1966 C   0  0  1  0  0  0  0  0  0  0  0  0
   28.4423    7.8938   18.6740 C   0  0  1  0  0  0  0  0  0  0  0  0
   27.3670    6.7921   18.5123 C   0  0  2  0  0  0  0  0  0  0  0  0
   26.6746    6.5349   19.8559 C   0  0  1  0  0  0  0  0  0  0  0  0
   26.0145    7.8379   20.3749 C   0  0  0  0  0  0  0  0  0  0  0  0
   27.0979    8.9083   20.5430 C   0  0  2  0  0  0  0  0  0  0  0  0
   25.6405    5.4889   19.6917 N   0  0  0  0  0  0  0  0  0  0  0  0
   26.4411   10.1108   21.0486 N   0  0  0  0  0  0  0  0  0  0  0  0
   29.0495    8.1387   17.3866 O   0  0  0  0  0  0  0  0  0  0  0  0
   28.0047    5.5833   18.0468 O   0  0  0  0  0  0  0  0  0  0  0  0
  1  2  1  0  0  0  0
  1 12  1  6  0  0  0
  1 13  1  0  0  0  0
  2  3  1  0  0  0  0
  2 10  1  6  0  0  0
  4  3  1  6  0  0  0
  4  5  1  0  0  0  0
  4 14  1  0  0  0  0
  5  6  1  0  0  0  0
  5 13  1  1  0  0  0
  6  7  1  0  0  0  0
  6 15  1  1  0  0  0
  7  8  1  0  0  0  0
  7 11  1  1  0  0  0
  8 14  1  0  0  0  0
  8 16  1  6  0  0  0
  9 11  1  0  0  0  0
 17 16  1  1  0  0  0
 17 18  1  0  0  0  0
 17 24  1  0  0  0  0
 18 19  1  0  0  0  0
 18 25  1  1  0  0  0
 19 20  1  0  0  0  0
 19 26  1  6  0  0  0
 20 21  1  0  0  0  0
 20 23  1  1  0  0  0
 21 22  1  6  0  0  0
 21 24  1  0  0  0  0
 22 27  1  0  0  0  0
 28 12  1  1  0  0  0
 28 29  1  0  0  0  0
 28 33  1  0  0  0  0
 29 30  1  0  0  0  0
 29 36  1  6  0  0  0
 30 31  1  0  0  0  0
 30 37  1  1  0  0  0
 31 32  1  0  0  0  0
 31 34  1  6  0  0  0
 32 33  1  0  0  0  0
 33 35  1  6  0  0  0
M  END
>  <CHROM.1>
156.86475931,167.53377933,78.00040309,-167.49746048,-66.28211658,-62.29348233
31.55089721,7.67385632,17.73258597,-2.86252426,-0.56653304,-2.85199355

>  <Name>
1yrj_lig

>  <RI>
0

>  <Rbt.Current_Directory>
/home/itssahil/PROJECTS/Mol_Feturizer/New_Systems/rnas/1yrj

>  <Rbt.Executable>
rbdock ($Id: //depot/dev/client3/rdock/2013.1/src/exe/rbdock.cxx#4 $)

>  <Rbt.Library>
libRbt.so (2013.1, Build901 2013/11/27)

>  <Rbt.Parameter_File>
/export/apps/rDock/src/rDock_2013.1_src/data/scripts/dock_solv.prm

>  <Rbt.Receptor>
prm/blind_docking_40.prm

>  <SCORE>
-4.2248

>  <SCORE.INTER>
-9.34231

>  <SCORE.INTER.CONST>
1

>  <SCORE.INTER.POLAR>
-1.25254

>  <SCORE.INTER.ROT>
6

>  <SCORE.INTER.SOLV>
14.3322

>  <SCORE.INTER.VDW>
-14.4305

>  <SCORE.INTER.norm>
-0.252495

>  <SCORE.INTRA>
-1.8556

>  <SCORE.INTRA.DIHEDRAL>
-10.7288

>  <SCORE.INTRA.DIHEDRAL.0>
15.6389

>  <SCORE.INTRA.POLAR>
0

>  <SCORE.INTRA.POLAR.0>
0

>  <SCORE.INTRA.REPUL>
0

>  <SCORE.INTRA.REPUL.0>
0

>  <SCORE.INTRA.SOLV>
0.503998

>  <SCORE.INTRA.SOLV.lig_0>
-90.9181

>  <SCORE.INTRA.VDW>
3.2568

>  <SCORE.INTRA.VDW.0>
-3.14158

>  <SCORE.INTRA.norm>
-0.0501513

>  <SCORE.RESTR>
6.97311

>  <SCORE.RESTR.CAVITY>
6.97311

>  <SCORE.RESTR.norm>
0.188462

>  <SCORE.SYSTEM>
0

>  <SCORE.SYSTEM.CONST>
0

>  <SCORE.SYSTEM.DIHEDRAL>
0

>  <SCORE.SYSTEM.SOLV>
0

>  <SCORE.SYSTEM.norm>
0

>  <SCORE.heavy>
37

>  <SCORE.norm>
-0.114184

>  <RMSD>
14.753

$$$$
1yrj_lig
 OpenBabel11021811423D
libRbt.so/2013.1/901 2013/11/27
 37 40  0  0  0  0  0  0  0  0999 V2000
   36.4950    5.8849   19.1481 C   0  0  1  0  0  0  0  0  0  0  0  0
   35.6910    4.9164   20.0375 C   0  0  1  0  0  0  0  0  0  0  0  0
   34.1778    5.1632   19.9285 C   0  0  0  0  0  0  0  0  0  0  0  0
   33.8561    6.6457   20.2516 C   0  0  1  0  0  0  0  0  0  0  0  0
   34.6419    7.5743   19.3066 C   0  0  1  0  0  0  0  0  0  0  0  0
   34.2851    9.0820   19.6493 C   0  0  1  0  0  0  0  0  0  0  0  0
   32.7737    9.3075   19.4812 C   0  0  1  0  0  0  0  0  0  0  0  0
   32.0315    8.3192   20.4133 C   0  0  2  0  0  0  0  0  0  0  0  0
   31.7653   11.4992   18.6530 C   0  0  0  0  0  0  0  0  0  0  0  0
   36.0001    3.5089   19.7369 N   0  0  0  0  0  0  0  0  0  0  0  0
   32.4362   10.7390   19.7535 N   0  0  0  0  0  0  0  0  0  0  0  0
   36.4217    5.5751   17.7439 O   0  0  0  0  0  0  0  0  0  0  0  0
   36.0802    7.2696   19.4469 O   0  0  0  0  0  0  0  0  0  0  0  0
   32.4116    6.9445   20.1223 O   0  0  0  0  0  0  0  0  0  0  0  0
   34.6014    9.3436   21.0007 O   0  0  0  0  0  0  0  0  0  0  0  0
   30.6136    8.4182   20.2739 O   0  0  0  0  0  0  0  0  0  0  0  0
   30.1533    8.1685   18.9251 C   0  0  2  0  0  0  0  0  0  0  0  0
   28.7349    8.6979   18.6577 C   0  0  1  0  0  0  0  0  0  0  0  0
   27.6748    7.8789   19.4411 C   0  0  2  0  0  0  0  0  0  0  0  0
   27.7743    6.4177   19.0673 C   0  0  1  0  0  0  0  0  0  0  0  0
   29.2021    5.9077   19.3752 C   0  0  1  0  0  0  0  0  0  0  0  0
   29.4069    4.4466   18.9816 C   0  0  0  0  0  0  0  0  0  0  0  0
   26.7579    5.6649   19.8312 N   0  0  0  0  0  0  0  0  0  0  0  0
   30.1856    6.7164   18.6329 O   0  0  0  0  0  0  0  0  0  0  0  0
   28.7017   10.0921   18.9954 O   0  0  0  0  0  0  0  0  0  0  0  0
   26.3608    8.3497   19.1111 O   0  0  0  0  0  0  0  0  0  0  0  0
   28.5538    3.6342   19.7432 O   0  0  0  0  0  0  0  0  0  0  0  0
   36.2320    6.6186   16.6532 C   0  0  1  0  0  0  0  0  0  0  0  0
   37.5928    7.3220   16.4547 C   0  0  1  0  0  0  0  0  0  0  0  0
   37.5230    8.3632   15.3114 C   0  0  2  0  0  0  0  0  0  0  0  0
   37.1024    7.6793   14.0052 C   0  0  1  0  0  0  0  0  0  0  0  0
   35.7200    6.9999   14.1790 C   0  0  0  0  0  0  0  0  0  0  0  0
   35.8161    5.9630   15.3031 C   0  0  2  0  0  0  0  0  0  0  0  0
   37.0268    8.6820   12.9193 N   0  0  0  0  0  0  0  0  0  0  0  0
   34.5033    5.3346   15.4234 N   0  0  0  0  0  0  0  0  0  0  0  0
   37.9548    8.0017   17.6766 O   0  0  0  0  0  0  0  0  0  0  0  0
   38.8237    8.9700   15.1537 O   0  0  0  0  0  0  0  0  0  0  0  0
  1  2  1  0  0  0  0
  1 12  1  6  0  0  0
  1 13  1  0  0  0  0
  2  3  1  0  0  0  0
  2 10  1  6  0  0  0
  4  3  1  6  0  0  0
  4  5  1  0  0  0  0
  4 14  1  0  0  0  0
  5  6  1  0  0  0  0
  5 13  1  1  0  0  0
  6  7  1  0  0  0  0
  6 15  1  1  0  0  0
  7  8  1  0  0  0  0
  7 11  1  1  0  0  0
  8 14  1  0  0  0  0
  8 16  1  6  0  0  0
  9 11  1  0  0  0  0
 17 16  1  1  0  0  0
 17 18  1  0  0  0  0
 17 24  1  0  0  0  0
 18 19  1  0  0  0  0
 18 25  1  1  0  0  0
 19 20  1  0  0  0  0
 19 26  1  6  0  0  0
 20 21  1  0  0  0  0
 20 23  1  1  0  0  0
 21 22  1  6  0  0  0
 21 24  1  0  0  0  0
 22 27  1  0  0  0  0
 28 12  1  1  0  0  0
 28 29  1  0  0  0  0
 28 33  1  0  0  0  0
 29 30  1  0  0  0  0
 29 36  1  1  0  0  0
 30 31  1  0  0  0  0
 30 37  1  6  0  0  0
 31 32  1  0  0  0  0
 31 34  1  6  0  0  0
 32 33  1  0  0  0  0
 33 35  1  1  0  0  0
M  END
>  <CHROM.1>
136.99275298,121.73506651,58.46256218,-161.58371086,-63.24151958,76.73966915
33.11223643,7.31827246,18.37009146,-0.09526525,-0.35058734,2.87476639

>  <Name>
1yrj_lig

>  <RI>
0

>  <Rbt.Current_Directory>
/home/itssahil/PROJECTS/Mol_Feturizer/New_Systems/rnas/1yrj

>  <Rbt.Executable>
rbdock ($Id: //depot/dev/client3/rdock/2013.1/src/exe/rbdock.cxx#4 $)

>  <Rbt.Library>
libRbt.so (2013.1, Build901 2013/11/27)

>  <Rbt.Parameter_File>
/export/apps/rDock/src/rDock_2013.1_src/data/scripts/dock_solv.prm

>  <Rbt.Receptor>
prm/blind_docking_100.prm

>  <SCORE>
-12.0051

>  <SCORE.INTER>
-9.13754

>  <SCORE.INTER.CONST>
1

>  <SCORE.INTER.POLAR>
-1.08632

>  <SCORE.INTER.ROT>
6

>  <SCORE.INTER.SOLV>
14.3338

>  <SCORE.INTER.VDW>
-14.8486

>  <SCORE.INTER.norm>
-0.246961

>  <SCORE.INTRA>
-2.87262

>  <SCORE.INTRA.DIHEDRAL>
-5.69229

>  <SCORE.INTRA.DIHEDRAL.0>
15.6389

>  <SCORE.INTRA.POLAR>
0

>  <SCORE.INTRA.POLAR.0>
0

>  <SCORE.INTRA.REPUL>
0

>  <SCORE.INTRA.REPUL.0>
0

>  <SCORE.INTRA.SOLV>
-0.360162

>  <SCORE.INTRA.SOLV.lig_0>
-90.9181

>  <SCORE.INTRA.VDW>
0.153601

>  <SCORE.INTRA.VDW.0>
-3.14158

>  <SCORE.INTRA.norm>
-0.0776385

>  <SCORE.RESTR>
0.00503175

>  <SCORE.RESTR.CAVITY>
0.00503175

>  <SCORE.RESTR.norm>
0.000135993

>  <SCORE.SYSTEM>
0

>  <SCORE.SYSTEM.CONST>
0

>  <SCORE.SYSTEM.DIHEDRAL>
0

>  <SCORE.SYSTEM.SOLV>
0

>  <SCORE.SYSTEM.norm>
0

>  <SCORE.heavy>
37

>  <SCORE.norm>
-0.324463

>  <RMSD>
14.766

$$$$
1yrj_lig
 OpenBabel11021811423D
libRbt.so/2013.1/901 2013/11/27
 37 40  0  0  0  0  0  0  0  0999 V2000
   29.2761   10.4839   19.6029 C   0  0  1  0  0  0  0  0  0  0  0  0
   30.1417   11.6549   19.0980 C   0  0  1  0  0  0  0  0  0  0  0  0
   31.1255   11.2083   18.0049 C   0  0  0  0  0  0  0  0  0  0  0  0
   31.9925   10.0294   18.5189 C   0  0  1  0  0  0  0  0  0  0  0  0
   31.0882    8.8647   18.9648 C   0  0  1  0  0  0  0  0  0  0  0  0
   31.9991    7.6689   19.4731 C   0  0  1  0  0  0  0  0  0  0  0  0
   32.9343    7.2131   18.3412 C   0  0  1  0  0  0  0  0  0  0  0  0
   33.7837    8.4289   17.8975 C   0  0  2  0  0  0  0  0  0  0  0  0
   34.3411    5.1742   17.7327 C   0  0  0  0  0  0  0  0  0  0  0  0
   29.3205   12.7776   18.6160 N   0  0  0  0  0  0  0  0  0  0  0  0
   33.7613    6.0527   18.7962 N   0  0  0  0  0  0  0  0  0  0  0  0
   28.2521   10.0805   18.6745 O   0  0  0  0  0  0  0  0  0  0  0  0
   30.1583    9.3678   19.9960 O   0  0  0  0  0  0  0  0  0  0  0  0
   32.9324    9.5360   17.4866 O   0  0  0  0  0  0  0  0  0  0  0  0
   32.8135    8.1181   20.5359 O   0  0  0  0  0  0  0  0  0  0  0  0
   34.6411    8.1083   16.8014 O   0  0  0  0  0  0  0  0  0  0  0  0
   34.0246    8.3271   15.5108 C   0  0  2  0  0  0  0  0  0  0  0  0
   33.1645    7.1437   15.0381 C   0  0  1  0  0  0  0  0  0  0  0  0
   34.0459    5.9146   14.6908 C   0  0  2  0  0  0  0  0  0  0  0  0
   35.0583    6.2898   13.6330 C   0  0  1  0  0  0  0  0  0  0  0  0
   35.9262    7.4617   14.1494 C   0  0  1  0  0  0  0  0  0  0  0  0
   36.9489    7.9395   13.1209 C   0  0  0  0  0  0  0  0  0  0  0  0
   35.8837    5.1030   13.3276 N   0  0  0  0  0  0  0  0  0  0  0  0
   35.0601    8.6051   14.4884 O   0  0  0  0  0  0  0  0  0  0  0  0
   32.2007    6.8491   16.0595 O   0  0  0  0  0  0  0  0  0  0  0  0
   33.2207    4.8570   14.1833 O   0  0  0  0  0  0  0  0  0  0  0  0
   36.4095    7.8114   11.8323 O   0  0  0  0  0  0  0  0  0  0  0  0
   27.3457    8.8763   18.8811 C   0  0  1  0  0  0  0  0  0  0  0  0
   27.8984    7.7342   18.0002 C   0  0  1  0  0  0  0  0  0  0  0  0
   27.0799    6.4342   18.1909 C   0  0  2  0  0  0  0  0  0  0  0  0
   27.1094    6.0081   19.6635 C   0  0  1  0  0  0  0  0  0  0  0  0
   26.5229    7.1312   20.5565 C   0  0  0  0  0  0  0  0  0  0  0  0
   27.3569    8.4022   20.3646 C   0  0  2  0  0  0  0  0  0  0  0  0
   26.3160    4.7713   19.8406 N   0  0  0  0  0  0  0  0  0  0  0  0
   26.7856    9.4280   21.2330 N   0  0  0  0  0  0  0  0  0  0  0  0
   27.8210    8.1290   16.6131 O   0  0  0  0  0  0  0  0  0  0  0  0
   27.6534    5.3973   17.3659 O   0  0  0  0  0  0  0  0  0  0  0  0
  1  2  1  0  0  0  0
  1 12  1  6  0  0  0
  1 13  1  0  0  0  0
  2  3  1  0  0  0  0
  2 10  1  6  0  0  0
  4  3  1  6  0  0  0
  4  5  1  0  0  0  0
  4 14  1  0  0  0  0
  5  6  1  0  0  0  0
  5 13  1  1  0  0  0
  6  7  1  0  0  0  0
  6 15  1  1  0  0  0
  7  8  1  0  0  0  0
  7 11  1  1  0  0  0
  8 14  1  0  0  0  0
  8 16  1  6  0  0  0
  9 11  1  0  0  0  0
 17 16  1  1  0  0  0
 17 18  1  0  0  0  0
 17 24  1  0  0  0  0
 18 19  1  0  0  0  0
 18 25  1  1  0  0  0
 19 20  1  0  0  0  0
 19 26  1  6  0  0  0
 20 21  1  0  0  0  0
 20 23  1  1  0  0  0
 21 22  1  6  0  0  0
 21 24  1  0  0  0  0
 22 27  1  0  0  0  0
 28 12  1  1  0  0  0
 28 29  1  0  0  0  0
 28 33  1  0  0  0  0
 29 30  1  0  0  0  0
 29 36  1  6  0  0  0
 30 31  1  0  0  0  0
 30 37  1  6  0  0  0
 31 32  1  0  0  0  0
 31 34  1  6  0  0  0
 32 33  1  0  0  0  0
 33 35  1  1  0  0  0
M  END
>  <CHROM.1>
174.52666554,158.25591098,89.55345980,-84.31836624,34.00484051,-101.34665078
31.45026960,7.91851107,17.40434175,-2.76437431,-0.50912743,-2.71955760

>  <Name>
1yrj_lig

>  <RI>
0

>  <Rbt.Current_Directory>
/home/itssahil/PROJECTS/Mol_Feturizer/New_Systems/rnas/1yrj

>  <Rbt.Executable>
rbdock ($Id: //depot/dev/client3/rdock/2013.1/src/exe/rbdock.cxx#4 $)

>  <Rbt.Library>
libRbt.so (2013.1, Build901 2013/11/27)

>  <Rbt.Parameter_File>
/export/apps/rDock/src/rDock_2013.1_src/data/scripts/dock_solv.prm

>  <Rbt.Receptor>
prm/blind_docking_40.prm

>  <SCORE>
0.52215

>  <SCORE.INTER>
-6.97616

>  <SCORE.INTER.CONST>
1

>  <SCORE.INTER.POLAR>
-1.72446

>  <SCORE.INTER.ROT>
6

>  <SCORE.INTER.SOLV>
21.2135

>  <SCORE.INTER.VDW>
-13.5737

>  <SCORE.INTER.norm>
-0.188545

>  <SCORE.INTRA>
4.80802

>  <SCORE.INTRA.DIHEDRAL>
-1.31483

>  <SCORE.INTRA.DIHEDRAL.0>
15.6389

>  <SCORE.INTRA.POLAR>
0

>  <SCORE.INTRA.POLAR.0>
0

>  <SCORE.INTRA.REPUL>
0

>  <SCORE.INTRA.REPUL.0>
0

>  <SCORE.INTRA.SOLV>
1.43957

>  <SCORE.INTRA.SOLV.lig_0>
-90.9181

>  <SCORE.INTRA.VDW>
4.74564

>  <SCORE.INTRA.VDW.0>
-3.14158

>  <SCORE.INTRA.norm>
0.129946

>  <SCORE.RESTR>
2.69029

>  <SCORE.RESTR.CAVITY>
2.69029

>  <SCORE.RESTR.norm>
0.0727106

>  <SCORE.SYSTEM>
0

>  <SCORE.SYSTEM.CONST>
0

>  <SCORE.SYSTEM.DIHEDRAL>
0

>  <SCORE.SYSTEM.SOLV>
0

>  <SCORE.SYSTEM.norm>
0

>  <SCORE.heavy>
37

>  <SCORE.norm>
0.0141122

>  <RMSD>
14.781

$$$$
1yrj_lig
 OpenBabel11021811423D
libRbt.so/2013.1/901 2013/11/27
 37 40  0  0  0  0  0  0  0  0999 V2000
   28.7856   10.2710   20.2288 C   0  0  1  0  0  0  0  0  0  0  0  0
   29.6352   11.4404   19.6938 C   0  0  1  0  0  0  0  0  0  0  0  0
   30.3712   11.0657   18.3976 C   0  0  0  0  0  0  0  0  0  0  0  0
   31.2222    9.7882   18.6194 C   0  0  1  0  0  0  0  0  0  0  0  0
   30.3247    8.6339   19.1044 C   0  0  1  0  0  0  0  0  0  0  0  0
   31.2165    7.3377   19.3107 C   0  0  1  0  0  0  0  0  0  0  0  0
   31.8972    6.9612   17.9847 C   0  0  1  0  0  0  0  0  0  0  0  0
   32.7452    8.1689   17.5172 C   0  0  2  0  0  0  0  0  0  0  0  0
   33.1480    5.0140   16.9121 C   0  0  0  0  0  0  0  0  0  0  0  0
   28.8304   12.6559   19.4891 N   0  0  0  0  0  0  0  0  0  0  0  0
   32.6999    5.7110   18.1581 N   0  0  0  0  0  0  0  0  0  0  0  0
   27.5846   10.0355   19.4703 O   0  0  0  0  0  0  0  0  0  0  0  0
   29.6349    9.0686   20.3359 O   0  0  0  0  0  0  0  0  0  0  0  0
   31.9224    9.3626   17.3860 O   0  0  0  0  0  0  0  0  0  0  0  0
   32.2393    7.6154   20.2442 O   0  0  0  0  0  0  0  0  0  0  0  0
   33.3664    7.9268   16.2542 O   0  0  0  0  0  0  0  0  0  0  0  0
   34.6425    8.5930   16.1082 C   0  0  2  0  0  0  0  0  0  0  0  0
   34.8142    9.2890   14.7482 C   0  0  1  0  0  0  0  0  0  0  0  0
   34.9387    8.2521   13.6004 C   0  0  2  0  0  0  0  0  0  0  0  0
   36.0998    7.3227   13.8704 C   0  0  1  0  0  0  0  0  0  0  0  0
   35.8835    6.6164   15.2297 C   0  0  1  0  0  0  0  0  0  0  0  0
   37.0379    5.6907   15.6066 C   0  0  0  0  0  0  0  0  0  0  0  0
   36.1897    6.3462   12.7651 N   0  0  0  0  0  0  0  0  0  0  0  0
   35.7498    7.6265   16.2947 O   0  0  0  0  0  0  0  0  0  0  0  0
   33.7079   10.1822   14.5548 O   0  0  0  0  0  0  0  0  0  0  0  0
   35.1725    8.9317   12.3593 O   0  0  0  0  0  0  0  0  0  0  0  0
   38.2500    6.3884   15.4984 O   0  0  0  0  0  0  0  0  0  0  0  0
   27.0176    8.6526   19.1862 C   0  0  1  0  0  0  0  0  0  0  0  0
   27.6419    8.1687   17.8588 C   0  0  1  0  0  0  0  0  0  0  0  0
   27.1775    6.7332   17.5126 C   0  0  2  0  0  0  0  0  0  0  0  0
   27.5627    5.7713   18.6428 C   0  0  1  0  0  0  0  0  0  0  0  0
   26.9124    6.2244   19.9749 C   0  0  0  0  0  0  0  0  0  0  0  0
   27.3979    7.6395   20.3063 C   0  0  2  0  0  0  0  0  0  0  0  0
   27.1060    4.4032   18.3105 N   0  0  0  0  0  0  0  0  0  0  0  0
   26.7791    8.0221   21.5726 N   0  0  0  0  0  0  0  0  0  0  0  0
   27.2329    9.0553   16.7946 O   0  0  0  0  0  0  0  0  0  0  0  0
   27.8085    6.3238   16.2801 O   0  0  0  0  0  0  0  0  0  0  0  0
  1  2  1  0  0  0  0
  1 12  1  6  0  0  0
  1 13  1  0  0  0  0
  2  3  1  0  0  0  0
  2 10  1  6  0  0  0
  4  3  1  6  0  0  0
  4  5  1  0  0  0  0
  4 14  1  0  0  0  0
  5  6  1  0  0  0  0
  5 13  1  1  0  0  0
  6  7  1  0  0  0  0
  6 15  1  1  0  0  0
  7  8  1  0  0  0  0
  7 11  1  1  0  0  0
  8 14  1  0  0  0  0
  8 16  1  6  0  0  0
  9 11  1  0  0  0  0
 17 16  1  6  0  0  0
 17 18  1  0  0  0  0
 17 24  1  0  0  0  0
 18 19  1  0  0  0  0
 18 25  1  6  0  0  0
 19 20  1  0  0  0  0
 19 26  1  6  0  0  0
 20 21  1  0  0  0  0
 20 23  1  6  0  0  0
 21 22  1  1  0  0  0
 21 24  1  0  0  0  0
 22 27  1  0  0  0  0
 28 12  1  1  0  0  0
 28 29  1  0  0  0  0
 28 33  1  0  0  0  0
 29 30  1  0  0  0  0
 29 36  1  6  0  0  0
 30 31  1  0  0  0  0
 30 37  1  6  0  0  0
 31 32  1  0  0  0  0
 31 34  1  6  0  0  0
 32 33  1  0  0  0  0
 33 35  1  1  0  0  0
M  END
>  <CHROM.1>
142.92238151,165.20878401,-148.33373062,-135.11288455,51.19043877,-90.17887704
31.41195786,8.03886459,17.43317868,-2.96657146,-0.50925494,-3.00041594

>  <Name>
1yrj_lig

>  <RI>
0

>  <Rbt.Current_Directory>
/home/itssahil/PROJECTS/Mol_Feturizer/New_Systems/rnas/1yrj

>  <Rbt.Executable>
rbdock ($Id: //depot/dev/client3/rdock/2013.1/src/exe/rbdock.cxx#4 $)

>  <Rbt.Library>
libRbt.so (2013.1, Build901 2013/11/27)

>  <Rbt.Parameter_File>
/export/apps/rDock/src/rDock_2013.1_src/data/scripts/dock_solv.prm

>  <Rbt.Receptor>
prm/blind_docking_40.prm

>  <SCORE>
2.82765

>  <SCORE.INTER>
-5.25305

>  <SCORE.INTER.CONST>
1

>  <SCORE.INTER.POLAR>
-1.54325

>  <SCORE.INTER.ROT>
6

>  <SCORE.INTER.SOLV>
22.2372

>  <SCORE.INTER.VDW>
-13.3703

>  <SCORE.INTER.norm>
-0.141974

>  <SCORE.INTRA>
1.66495

>  <SCORE.INTRA.DIHEDRAL>
3.3507

>  <SCORE.INTRA.DIHEDRAL.0>
15.6389

>  <SCORE.INTRA.POLAR>
0

>  <SCORE.INTRA.POLAR.0>
0

>  <SCORE.INTRA.REPUL>
0

>  <SCORE.INTRA.REPUL.0>
0

>  <SCORE.INTRA.SOLV>
0.0930434

>  <SCORE.INTRA.SOLV.lig_0>
-90.9181

>  <SCORE.INTRA.VDW>
-0.0569185

>  <SCORE.INTRA.VDW.0>
-3.14158

>  <SCORE.INTRA.norm>
0.0449988

>  <SCORE.RESTR>
6.41575

>  <SCORE.RESTR.CAVITY>
6.41575

>  <SCORE.RESTR.norm>
0.173399

>  <SCORE.SYSTEM>
0

>  <SCORE.SYSTEM.CONST>
0

>  <SCORE.SYSTEM.DIHEDRAL>
0

>  <SCORE.SYSTEM.SOLV>
0

>  <SCORE.SYSTEM.norm>
0

>  <SCORE.heavy>
37

>  <SCORE.norm>
0.0764229

>  <RMSD>
14.785

$$$$
1yrj_lig
 OpenBabel11021811423D
libRbt.so/2013.1/901 2013/11/27
 37 40  0  0  0  0  0  0  0  0999 V2000
   36.8175    5.8399   19.0335 C   0  0  1  0  0  0  0  0  0  0  0  0
   35.9397    5.0574   20.0298 C   0  0  1  0  0  0  0  0  0  0  0  0
   34.4738    5.5169   19.9832 C   0  0  0  0  0  0  0  0  0  0  0  0
   34.3886    7.0477   20.2177 C   0  0  1  0  0  0  0  0  0  0  0  0
   35.2392    7.7902   19.1697 C   0  0  1  0  0  0  0  0  0  0  0  0
   35.1243    9.3523   19.4238 C   0  0  1  0  0  0  0  0  0  0  0  0
   33.6533    9.7870   19.3197 C   0  0  1  0  0  0  0  0  0  0  0  0
   32.8364    8.9784   20.3566 C   0  0  2  0  0  0  0  0  0  0  0  0
   32.9567   12.0525   18.3770 C   0  0  0  0  0  0  0  0  0  0  0  0
   36.0246    3.6038   19.8132 N   0  0  0  0  0  0  0  0  0  0  0  0
   33.5421   11.2667   19.5080 N   0  0  0  0  0  0  0  0  0  0  0  0
   36.6134    5.4579   17.6604 O   0  0  0  0  0  0  0  0  0  0  0  0
   36.6249    7.2864   19.2555 O   0  0  0  0  0  0  0  0  0  0  0  0
   32.9967    7.5473   20.1436 O   0  0  0  0  0  0  0  0  0  0  0  0
   35.5581    9.6478   20.7349 O   0  0  0  0  0  0  0  0  0  0  0  0
   31.4415    9.2762   20.2852 O   0  0  0  0  0  0  0  0  0  0  0  0
   30.8394    8.8935   19.0264 C   0  0  2  0  0  0  0  0  0  0  0  0
   29.4810    9.5668   18.7714 C   0  0  1  0  0  0  0  0  0  0  0  0
   28.3976    9.0274   19.7428 C   0  0  2  0  0  0  0  0  0  0  0  0
   28.2805    7.5271   19.6009 C   0  0  1  0  0  0  0  0  0  0  0  0
   29.6541    6.8776   19.8921 C   0  0  1  0  0  0  0  0  0  0  0  0
   29.6393    5.3600   19.7238 C   0  0  0  0  0  0  0  0  0  0  0  0
   27.2469    7.0435   20.5397 N   0  0  0  0  0  0  0  0  0  0  0  0
   30.6639    7.4236   18.9677 O   0  0  0  0  0  0  0  0  0  0  0  0
   29.6522   10.9871   18.8841 O   0  0  0  0  0  0  0  0  0  0  0  0
   27.1297    9.6196   19.4286 O   0  0  0  0  0  0  0  0  0  0  0  0
   28.8167    4.7895   20.7065 O   0  0  0  0  0  0  0  0  0  0  0  0
   36.0983    6.4019   16.5843 C   0  0  1  0  0  0  0  0  0  0  0  0
   37.3295    6.9327   15.8172 C   0  0  1  0  0  0  0  0  0  0  0  0
   36.9058    7.8563   14.6495 C   0  0  2  0  0  0  0  0  0  0  0  0
   35.9885    7.0945   13.6855 C   0  0  1  0  0  0  0  0  0  0  0  0
   34.7297    6.5873   14.4345 C   0  0  0  0  0  0  0  0  0  0  0  0
   35.1709    5.6632   15.5743 C   0  0  2  0  0  0  0  0  0  0  0  0
   35.5783    7.9864   12.5780 N   0  0  0  0  0  0  0  0  0  0  0  0
   33.9599    5.1937   16.2420 N   0  0  0  0  0  0  0  0  0  0  0  0
   38.1609    7.6881   16.7249 O   0  0  0  0  0  0  0  0  0  0  0  0
   38.0903    8.3020   13.9545 O   0  0  0  0  0  0  0  0  0  0  0  0
  1  2  1  0  0  0  0
  1 12  1  6  0  0  0
  1 13  1  0  0  0  0
  2  3  1  0  0  0  0
  2 10  1  6  0  0  0
  4  3  1  6  0  0  0
  4  5  1  0  0  0  0
  4 14  1  0  0  0  0
  5  6  1  0  0  0  0
  5 13  1  1  0  0  0
  6  7  1  0  0  0  0
  6 15  1  1  0  0  0
  7  8  1  0  0  0  0
  7 11  1  1  0  0  0
  8 14  1  0  0  0  0
  8 16  1  6  0  0  0
  9 11  1  0  0  0  0
 17 16  1  1  0  0  0
 17 18  1  0  0  0  0
 17 24  1  0  0  0  0
 18 19  1  0  0  0  0
 18 25  1  1  0  0  0
 19 20  1  0  0  0  0
 19 26  1  6  0  0  0
 20 21  1  0  0  0  0
 20 23  1  1  0  0  0
 21 22  1  6  0  0  0
 21 24  1  0  0  0  0
 22 27  1  0  0  0  0
 28 12  1  1  0  0  0
 28 29  1  0  0  0  0
 28 33  1  0  0  0  0
 29 30  1  0  0  0  0
 29 36  1  1  0  0  0
 30 31  1  0  0  0  0
 30 37  1  6  0  0  0
 31 32  1  0  0  0  0
 31 34  1  6  0  0  0
 32 33  1  0  0  0  0
 33 35  1  1  0  0  0
M  END
>  <CHROM.1>
117.89908089,119.99774365,64.10050022,-162.88074013,-66.46578928,97.61382409
33.39113659,7.65459423,18.36768871,-0.07798129,-0.47854645,2.61894992

>  <Name>
1yrj_lig

>  <RI>
224

>  <Rbt.Current_Directory>
/home/itssahil/PROJECTS/Mol_Feturizer/New_Systems/rnas/1yrj

>  <Rbt.Executable>
rbdock ($Id: //depot/dev/client3/rdock/2013.1/src/exe/rbdock.cxx#4 $)

>  <Rbt.Library>
libRbt.so (2013.1, Build901 2013/11/27)

>  <Rbt.Parameter_File>
/export/apps/rDock/src/rDock_2013.1_src/data/scripts/dock_solv.prm

>  <Rbt.Receptor>
prm/blind_docking_80.prm

>  <SCORE>
-12.0683

>  <SCORE.INTER>
-11.6974

>  <SCORE.INTER.CONST>
1

>  <SCORE.INTER.POLAR>
-1.28559

>  <SCORE.INTER.ROT>
6

>  <SCORE.INTER.SOLV>
17.6382

>  <SCORE.INTER.VDW>
-16.9924

>  <SCORE.INTER.norm>
-0.316147

>  <SCORE.INTRA>
-0.370847

>  <SCORE.INTRA.DIHEDRAL>
-0.724816

>  <SCORE.INTRA.DIHEDRAL.0>
15.6389

>  <SCORE.INTRA.POLAR>
0

>  <SCORE.INTRA.POLAR.0>
0

>  <SCORE.INTRA.REPUL>
0

>  <SCORE.INTRA.REPUL.0>
0

>  <SCORE.INTRA.SOLV>
0.66356

>  <SCORE.INTRA.SOLV.lig_0>
-90.9181

>  <SCORE.INTRA.VDW>
-0.340219

>  <SCORE.INTRA.VDW.0>
-3.14158

>  <SCORE.INTRA.norm>
-0.0100229

>  <SCORE.RESTR>
0

>  <SCORE.RESTR.CAVITY>
0

>  <SCORE.RESTR.norm>
0

>  <SCORE.SYSTEM>
0

>  <SCORE.SYSTEM.CONST>
0

>  <SCORE.SYSTEM.DIHEDRAL>
0

>  <SCORE.SYSTEM.SOLV>
0

>  <SCORE.SYSTEM.norm>
0

>  <SCORE.heavy>
37

>  <SCORE.norm>
-0.32617

>  <RMSD>
14.786

$$$$
1yrj_lig
 OpenBabel11021811423D
libRbt.so/2013.1/901 2013/11/27
 37 40  0  0  0  0  0  0  0  0999 V2000
   29.0135    9.8287   19.9098 C   0  0  1  0  0  0  0  0  0  0  0  0
   30.1966   10.7247   19.4941 C   0  0  1  0  0  0  0  0  0  0  0  0
   31.0540   10.0680   18.4004 C   0  0  0  0  0  0  0  0  0  0  0  0
   31.5272    8.6662   18.8657 C   0  0  1  0  0  0  0  0  0  0  0  0
   30.3113    7.7901   19.2219 C   0  0  1  0  0  0  0  0  0  0  0  0
   30.8220    6.3597   19.6815 C   0  0  1  0  0  0  0  0  0  0  0  0
   31.6317    5.7101   18.5475 C   0  0  1  0  0  0  0  0  0  0  0  0
   32.8096    6.6507   18.1951 C   0  0  2  0  0  0  0  0  0  0  0  0
   32.6096    3.4522   17.8752 C   0  0  0  0  0  0  0  0  0  0  0  0
   29.7499   12.0580   19.0586 N   0  0  0  0  0  0  0  0  0  0  0  0
   32.0742    4.3403   18.9539 N   0  0  0  0  0  0  0  0  0  0  0  0
   27.9542    9.7822   18.9357 O   0  0  0  0  0  0  0  0  0  0  0  0
   29.5241    8.4883   20.2583 O   0  0  0  0  0  0  0  0  0  0  0  0
   32.3268    7.9743   17.8290 O   0  0  0  0  0  0  0  0  0  0  0  0
   31.6884    6.5037   20.7874 O   0  0  0  0  0  0  0  0  0  0  0  0
   33.5820    6.1510   17.1028 O   0  0  0  0  0  0  0  0  0  0  0  0
   33.0143    6.4669   15.8099 C   0  0  2  0  0  0  0  0  0  0  0  0
   33.5760    5.6014   14.6701 C   0  0  1  0  0  0  0  0  0  0  0  0
   35.0615    5.9477   14.3841 C   0  0  2  0  0  0  0  0  0  0  0  0
   35.1922    7.4157   14.0487 C   0  0  1  0  0  0  0  0  0  0  0  0
   34.6467    8.2591   15.2254 C   0  0  1  0  0  0  0  0  0  0  0  0
   34.6957    9.7605   14.9507 C   0  0  0  0  0  0  0  0  0  0  0  0
   36.6152    7.7151   13.7866 N   0  0  0  0  0  0  0  0  0  0  0  0
   33.2424    7.8941   15.4846 O   0  0  0  0  0  0  0  0  0  0  0  0
   33.3983    4.2214   15.0208 O   0  0  0  0  0  0  0  0  0  0  0  0
   35.5304    5.1774   13.2689 O   0  0  0  0  0  0  0  0  0  0  0  0
   36.0297   10.1941   14.9650 O   0  0  0  0  0  0  0  0  0  0  0  0
   26.9793    8.6226   18.7966 C   0  0  1  0  0  0  0  0  0  0  0  0
   27.2235    7.9865   17.4103 C   0  0  1  0  0  0  0  0  0  0  0  0
   26.3209    6.7473   17.1964 C   0  0  2  0  0  0  0  0  0  0  0  0
   26.5881    5.7092   18.2928 C   0  0  1  0  0  0  0  0  0  0  0  0
   26.3112    6.3233   19.6889 C   0  0  0  0  0  0  0  0  0  0  0  0
   27.2256    7.5369   19.8858 C   0  0  2  0  0  0  0  0  0  0  0  0
   25.7142    4.5323   18.0887 N   0  0  0  0  0  0  0  0  0  0  0  0
   26.9482    8.0747   21.2149 N   0  0  0  0  0  0  0  0  0  0  0  0
   26.9227    8.9590   16.3858 O   0  0  0  0  0  0  0  0  0  0  0  0
   26.6076    6.1802   15.9000 O   0  0  0  0  0  0  0  0  0  0  0  0
  1  2  1  0  0  0  0
  1 12  1  6  0  0  0
  1 13  1  0  0  0  0
  2  3  1  0  0  0  0
  2 10  1  6  0  0  0
  4  3  1  6  0  0  0
  4  5  1  0  0  0  0
  4 14  1  0  0  0  0
  5  6  1  0  0  0  0
  5 13  1  1  0  0  0
  6  7  1  0  0  0  0
  6 15  1  1  0  0  0
  7  8  1  0  0  0  0
  7 11  1  1  0  0  0
  8 14  1  0  0  0  0
  8 16  1  6  0  0  0
  9 11  1  0  0  0  0
 17 16  1  1  0  0  0
 17 18  1  0  0  0  0
 17 24  1  0  0  0  0
 18 19  1  0  0  0  0
 18 25  1  1  0  0  0
 19 20  1  0  0  0  0
 19 26  1  6  0  0  0
 20 21  1  0  0  0  0
 20 23  1  1  0  0  0
 21 22  1  6  0  0  0
 21 24  1  0  0  0  0
 22 27  1  0  0  0  0
 28 12  1  1  0  0  0
 28 29  1  0  0  0  0
 28 33  1  0  0  0  0
 29 30  1  0  0  0  0
 29 36  1  6  0  0  0
 30 31  1  0  0  0  0
 30 37  1  6  0  0  0
 31 32  1  0  0  0  0
 31 34  1  6  0  0  0
 32 33  1  0  0  0  0
 33 35  1  1  0  0  0
M  END
>  <CHROM.1>
154.57813978,166.93336316,82.59938565,-162.65258990,-70.64368247,-115.36316499
30.97342274,7.39444163,17.47425059,-2.91427020,-0.45847617,-2.85414376

>  <Name>
1yrj_lig

>  <RI>
0

>  <Rbt.Current_Directory>
/home/itssahil/PROJECTS/Mol_Feturizer/New_Systems/rnas/1yrj

>  <Rbt.Executable>
rbdock ($Id: //depot/dev/client3/rdock/2013.1/src/exe/rbdock.cxx#4 $)

>  <Rbt.Library>
libRbt.so (2013.1, Build901 2013/11/27)

>  <Rbt.Parameter_File>
/export/apps/rDock/src/rDock_2013.1_src/data/scripts/dock_solv.prm

>  <Rbt.Receptor>
prm/blind_docking_40.prm

>  <SCORE>
-3.53752

>  <SCORE.INTER>
-11.9881

>  <SCORE.INTER.CONST>
1

>  <SCORE.INTER.POLAR>
-1.3375

>  <SCORE.INTER.ROT>
6

>  <SCORE.INTER.SOLV>
14.6725

>  <SCORE.INTER.VDW>
-16.0246

>  <SCORE.INTER.norm>
-0.324004

>  <SCORE.INTRA>
3.18413

>  <SCORE.INTRA.DIHEDRAL>
-1.61418

>  <SCORE.INTRA.DIHEDRAL.0>
15.6389

>  <SCORE.INTRA.POLAR>
0

>  <SCORE.INTRA.POLAR.0>
0

>  <SCORE.INTRA.REPUL>
0

>  <SCORE.INTRA.REPUL.0>
0

>  <SCORE.INTRA.SOLV>
1.17029

>  <SCORE.INTRA.SOLV.lig_0>
-90.9181

>  <SCORE.INTRA.VDW>
3.40608

>  <SCORE.INTRA.VDW.0>
-3.14158

>  <SCORE.INTRA.norm>
0.0860576

>  <SCORE.RESTR>
5.26649

>  <SCORE.RESTR.CAVITY>
5.26649

>  <SCORE.RESTR.norm>
0.142338

>  <SCORE.SYSTEM>
0

>  <SCORE.SYSTEM.CONST>
0

>  <SCORE.SYSTEM.DIHEDRAL>
0

>  <SCORE.SYSTEM.SOLV>
0

>  <SCORE.SYSTEM.norm>
0

>  <SCORE.heavy>
37

>  <SCORE.norm>
-0.0956087

>  <RMSD>
14.810

$$$$
1yrj_lig
 OpenBabel11021811423D
libRbt.so/2013.1/901 2013/11/27
 37 40  0  0  0  0  0  0  0  0999 V2000
   30.2287   10.3200   20.6329 C   0  0  1  0  0  0  0  0  0  0  0  0
   31.2293   11.2665   19.9413 C   0  0  1  0  0  0  0  0  0  0  0  0
   31.9665   10.5726   18.7849 C   0  0  0  0  0  0  0  0  0  0  0  0
   32.6532    9.2779   19.2927 C   0  0  1  0  0  0  0  0  0  0  0  0
   31.6088    8.3416   19.9297 C   0  0  1  0  0  0  0  0  0  0  0  0
   32.3344    7.0214   20.4282 C   0  0  1  0  0  0  0  0  0  0  0  0
   33.0177    6.3258   19.2396 C   0  0  1  0  0  0  0  0  0  0  0  0
   34.0185    7.3230   18.6069 C   0  0  2  0  0  0  0  0  0  0  0  0
   33.8574    3.9880   18.6600 C   0  0  0  0  0  0  0  0  0  0  0  0
   30.5806   12.4990   19.4647 N   0  0  0  0  0  0  0  0  0  0  0  0
   33.6615    5.0537   19.6920 N   0  0  0  0  0  0  0  0  0  0  0  0
   29.0390   10.0729   19.8605 O   0  0  0  0  0  0  0  0  0  0  0  0
   30.9270    9.0767   21.0141 O   0  0  0  0  0  0  0  0  0  0  0  0
   33.3465    8.5502   18.2053 O   0  0  0  0  0  0  0  0  0  0  0  0
   33.3454    7.3624   21.3535 O   0  0  0  0  0  0  0  0  0  0  0  0
   34.6560    6.7770   17.4514 O   0  0  0  0  0  0  0  0  0  0  0  0
   33.9827    7.1122   16.2154 C   0  0  2  0  0  0  0  0  0  0  0  0
   34.3035    6.1441   15.0650 C   0  0  1  0  0  0  0  0  0  0  0  0
   35.7758    6.2968   14.5989 C   0  0  2  0  0  0  0  0  0  0  0  0
   36.0368    7.7250   14.1781 C   0  0  1  0  0  0  0  0  0  0  0  0
   35.7336    8.6706   15.3645 C   0  0  1  0  0  0  0  0  0  0  0  0
   35.9249   10.1439   15.0114 C   0  0  0  0  0  0  0  0  0  0  0  0
   37.4448    7.8396   13.7451 N   0  0  0  0  0  0  0  0  0  0  0  0
   34.3361    8.4885   15.7959 O   0  0  0  0  0  0  0  0  0  0  0  0
   34.0082    4.8095   15.5017 O   0  0  0  0  0  0  0  0  0  0  0  0
   36.0192    5.4353   13.4784 O   0  0  0  0  0  0  0  0  0  0  0  0
   35.6231   10.9348   16.1300 O   0  0  0  0  0  0  0  0  0  0  0  0
   28.4165    8.6970   19.6772 C   0  0  1  0  0  0  0  0  0  0  0  0
   26.9113    8.8322   19.9966 C   0  0  1  0  0  0  0  0  0  0  0  0
   26.1693    7.4921   19.7734 C   0  0  2  0  0  0  0  0  0  0  0  0
   26.3476    7.0302   18.3223 C   0  0  1  0  0  0  0  0  0  0  0  0
   27.8533    6.8545   17.9987 C   0  0  0  0  0  0  0  0  0  0  0  0
   28.5645    8.1952   18.2103 C   0  0  2  0  0  0  0  0  0  0  0  0
   25.6453    5.7433   18.1189 N   0  0  0  0  0  0  0  0  0  0  0  0
   29.9724    7.9933   17.8790 N   0  0  0  0  0  0  0  0  0  0  0  0
   26.7557    9.2213   21.3787 O   0  0  0  0  0  0  0  0  0  0  0  0
   24.7674    7.6821   20.0618 O   0  0  0  0  0  0  0  0  0  0  0  0
  1  2  1  0  0  0  0
  1 12  1  6  0  0  0
  1 13  1  0  0  0  0
  2  3  1  0  0  0  0
  2 10  1  6  0  0  0
  4  3  1  6  0  0  0
  4  5  1  0  0  0  0
  4 14  1  0  0  0  0
  5  6  1  0  0  0  0
  5 13  1  1  0  0  0
  6  7  1  0  0  0  0
  6 15  1  1  0  0  0
  7  8  1  0  0  0  0
  7 11  1  1  0  0  0
  8 14  1  0  0  0  0
  8 16  1  6  0  0  0
  9 11  1  0  0  0  0
 17 16  1  1  0  0  0
 17 18  1  0  0  0  0
 17 24  1  0  0  0  0
 18 19  1  0  0  0  0
 18 25  1  1  0  0  0
 19 20  1  0  0  0  0
 19 26  1  6  0  0  0
 20 21  1  0  0  0  0
 20 23  1  1  0  0  0
 21 22  1  6  0  0  0
 21 24  1  0  0  0  0
 22 27  1  0  0  0  0
 28 12  1  6  0  0  0
 28 29  1  0  0  0  0
 28 33  1  0  0  0  0
 29 30  1  0  0  0  0
 29 36  1  1  0  0  0
 30 31  1  0  0  0  0
 30 37  1  6  0  0  0
 31 32  1  0  0  0  0
 31 34  1  1  0  0  0
 32 33  1  0  0  0  0
 33 35  1  1  0  0  0
M  END
>  <CHROM.1>
135.61317692,154.90907449,93.38051340,-158.13198084,179.57978219,130.48152925
31.83404653,7.97154532,18.08484497,-2.82309418,-0.41198943,-2.69526837

>  <Name>
1yrj_lig

>  <RI>
224

>  <Rbt.Current_Directory>
/home/itssahil/PROJECTS/Mol_Feturizer/New_Systems/rnas/1yrj

>  <Rbt.Executable>
rbdock ($Id: //depot/dev/client3/rdock/2013.1/src/exe/rbdock.cxx#4 $)

>  <Rbt.Library>
libRbt.so (2013.1, Build901 2013/11/27)

>  <Rbt.Parameter_File>
/export/apps/rDock/src/rDock_2013.1_src/data/scripts/dock_solv.prm

>  <Rbt.Receptor>
prm/blind_docking_80.prm

>  <SCORE>
-8.615

>  <SCORE.INTER>
-14.7569

>  <SCORE.INTER.CONST>
1

>  <SCORE.INTER.POLAR>
-1.82023

>  <SCORE.INTER.ROT>
6

>  <SCORE.INTER.SOLV>
9.19159

>  <SCORE.INTER.VDW>
-14.4343

>  <SCORE.INTER.norm>
-0.398834

>  <SCORE.INTRA>
4.78515

>  <SCORE.INTRA.DIHEDRAL>
3.84254

>  <SCORE.INTRA.DIHEDRAL.0>
15.6389

>  <SCORE.INTRA.POLAR>
0

>  <SCORE.INTRA.POLAR.0>
0

>  <SCORE.INTRA.REPUL>
0

>  <SCORE.INTRA.REPUL.0>
0

>  <SCORE.INTRA.SOLV>
3.08157

>  <SCORE.INTRA.SOLV.lig_0>
-90.9181

>  <SCORE.INTRA.VDW>
1.32309

>  <SCORE.INTRA.VDW.0>
-3.14158

>  <SCORE.INTRA.norm>
0.129328

>  <SCORE.RESTR>
1.35671

>  <SCORE.RESTR.CAVITY>
1.35671

>  <SCORE.RESTR.norm>
0.0366679

>  <SCORE.SYSTEM>
0

>  <SCORE.SYSTEM.CONST>
0

>  <SCORE.SYSTEM.DIHEDRAL>
0

>  <SCORE.SYSTEM.SOLV>
0

>  <SCORE.SYSTEM.norm>
0

>  <SCORE.heavy>
37

>  <SCORE.norm>
-0.232838

>  <RMSD>
14.818

$$$$
1yrj_lig
 OpenBabel11021811423D
libRbt.so/2013.1/901 2013/11/27
 37 40  0  0  0  0  0  0  0  0999 V2000
   28.9967    9.8204   19.9252 C   0  0  1  0  0  0  0  0  0  0  0  0
   30.1804   10.7249   19.5298 C   0  0  1  0  0  0  0  0  0  0  0  0
   31.0494   10.0833   18.4364 C   0  0  0  0  0  0  0  0  0  0  0  0
   31.5234    8.6779   18.8902 C   0  0  1  0  0  0  0  0  0  0  0  0
   30.3073    7.7939   19.2261 C   0  0  1  0  0  0  0  0  0  0  0  0
   30.8189    6.3602   19.6742 C   0  0  1  0  0  0  0  0  0  0  0  0
   31.6406    5.7259   18.5402 C   0  0  1  0  0  0  0  0  0  0  0  0
   32.8184    6.6743   18.2086 C   0  0  2  0  0  0  0  0  0  0  0  0
   32.6870    3.5002   17.8637 C   0  0  0  0  0  0  0  0  0  0  0  0
   29.7329   12.0615   19.1053 N   0  0  0  0  0  0  0  0  0  0  0  0
   32.0843    4.3532   18.9353 N   0  0  0  0  0  0  0  0  0  0  0  0
   27.9461    9.7812   18.9414 O   0  0  0  0  0  0  0  0  0  0  0  0
   29.5088    8.4779   20.2632 O   0  0  0  0  0  0  0  0  0  0  0  0
   32.3343    8.0003   17.8530 O   0  0  0  0  0  0  0  0  0  0  0  0
   31.6752    6.4947   20.7892 O   0  0  0  0  0  0  0  0  0  0  0  0
   33.6020    6.1893   17.1176 O   0  0  0  0  0  0  0  0  0  0  0  0
   33.0326    6.4979   15.8237 C   0  0  2  0  0  0  0  0  0  0  0  0
   33.6164    5.6483   14.6830 C   0  0  1  0  0  0  0  0  0  0  0  0
   35.0954    6.0263   14.4038 C   0  0  2  0  0  0  0  0  0  0  0  0
   35.1967    7.4980   14.0739 C   0  0  1  0  0  0  0  0  0  0  0  0
   34.6295    8.3257   15.2514 C   0  0  1  0  0  0  0  0  0  0  0  0
   34.6483    9.8287   14.9821 C   0  0  0  0  0  0  0  0  0  0  0  0
   36.6142    7.8277   13.8182 N   0  0  0  0  0  0  0  0  0  0  0  0
   33.2322    7.9307   15.5041 O   0  0  0  0  0  0  0  0  0  0  0  0
   33.4662    4.2636   15.0283 O   0  0  0  0  0  0  0  0  0  0  0  0
   35.5844    5.2699   13.2877 O   0  0  0  0  0  0  0  0  0  0  0  0
   33.8595   10.4842   15.9393 O   0  0  0  0  0  0  0  0  0  0  0  0
   26.9615    8.6306   18.7964 C   0  0  1  0  0  0  0  0  0  0  0  0
   27.1932    8.0062   17.4027 C   0  0  1  0  0  0  0  0  0  0  0  0
   26.2799    6.7761   17.1818 C   0  0  2  0  0  0  0  0  0  0  0  0
   26.5450    5.7254   18.2665 C   0  0  1  0  0  0  0  0  0  0  0  0
   26.2804    6.3280   19.6700 C   0  0  0  0  0  0  0  0  0  0  0  0
   27.2053    7.5325   19.8736 C   0  0  2  0  0  0  0  0  0  0  0  0
   25.6609    4.5573   18.0559 N   0  0  0  0  0  0  0  0  0  0  0  0
   26.9392    8.0594   21.2094 N   0  0  0  0  0  0  0  0  0  0  0  0
   26.8944    8.9909   16.3893 O   0  0  0  0  0  0  0  0  0  0  0  0
   26.5551    6.2195   15.8783 O   0  0  0  0  0  0  0  0  0  0  0  0
  1  2  1  0  0  0  0
  1 12  1  6  0  0  0
  1 13  1  0  0  0  0
  2  3  1  0  0  0  0
  2 10  1  6  0  0  0
  4  3  1  6  0  0  0
  4  5  1  0  0  0  0
  4 14  1  0  0  0  0
  5  6  1  0  0  0  0
  5 13  1  1  0  0  0
  6  7  1  0  0  0  0
  6 15  1  1  0  0  0
  7  8  1  0  0  0  0
  7 11  1  1  0  0  0
  8 14  1  0  0  0  0
  8 16  1  6  0  0  0
  9 11  1  0  0  0  0
 17 16  1  1  0  0  0
 17 18  1  0  0  0  0
 17 24  1  0  0  0  0
 18 19  1  0  0  0  0
 18 25  1  1  0  0  0
 19 20  1  0  0  0  0
 19 26  1  6  0  0  0
 20 21  1  0  0  0  0
 20 23  1  1  0  0  0
 21 22  1  6  0  0  0
 21 24  1  0  0  0  0
 22 27  1  0  0  0  0
 28 12  1  1  0  0  0
 28 29  1  0  0  0  0
 28 33  1  0  0  0  0
 29 30  1  0  0  0  0
 29 36  1  6  0  0  0
 30 31  1  0  0  0  0
 30 37  1  6  0  0  0
 31 32  1  0  0  0  0
 31 34  1  6  0  0  0
 32 33  1  0  0  0  0
 33 35  1  1  0  0  0
M  END
>  <CHROM.1>
155.66588770,169.51926701,81.60262822,-162.91878285,166.85478491,-116.47704328
30.90355295,7.42991356,17.51078355,-2.89983276,-0.45258941,-2.86532681

>  <Name>
1yrj_lig

>  <RI>
0

>  <Rbt.Current_Directory>
/home/itssahil/PROJECTS/Mol_Feturizer/New_Systems/rnas/1yrj

>  <Rbt.Executable>
rbdock ($Id: //depot/dev/client3/rdock/2013.1/src/exe/rbdock.cxx#4 $)

>  <Rbt.Library>
libRbt.so (2013.1, Build901 2013/11/27)

>  <Rbt.Parameter_File>
/export/apps/rDock/src/rDock_2013.1_src/data/scripts/dock_solv.prm

>  <Rbt.Receptor>
prm/blind_docking_40.prm

>  <SCORE>
-4.96382

>  <SCORE.INTER>
-12.118

>  <SCORE.INTER.CONST>
1

>  <SCORE.INTER.POLAR>
-1.36296

>  <SCORE.INTER.ROT>
6

>  <SCORE.INTER.SOLV>
14.579

>  <SCORE.INTER.VDW>
-15.9952

>  <SCORE.INTER.norm>
-0.327515

>  <SCORE.INTRA>
2.68296

>  <SCORE.INTRA.DIHEDRAL>
-1.82028

>  <SCORE.INTRA.DIHEDRAL.0>
15.6389

>  <SCORE.INTRA.POLAR>
0

>  <SCORE.INTRA.POLAR.0>
0

>  <SCORE.INTRA.REPUL>
0

>  <SCORE.INTRA.REPUL.0>
0

>  <SCORE.INTRA.SOLV>
0.531148

>  <SCORE.INTRA.SOLV.lig_0>
-90.9181

>  <SCORE.INTRA.VDW>
3.32753

>  <SCORE.INTRA.VDW.0>
-3.14158

>  <SCORE.INTRA.norm>
0.0725125

>  <SCORE.RESTR>
4.47126

>  <SCORE.RESTR.CAVITY>
4.47126

>  <SCORE.RESTR.norm>
0.120845

>  <SCORE.SYSTEM>
0

>  <SCORE.SYSTEM.CONST>
0

>  <SCORE.SYSTEM.DIHEDRAL>
0

>  <SCORE.SYSTEM.SOLV>
0

>  <SCORE.SYSTEM.norm>
0

>  <SCORE.heavy>
37

>  <SCORE.norm>
-0.134157

>  <RMSD>
14.867

$$$$
1yrj_lig
 OpenBabel11021811423D
libRbt.so/2013.1/901 2013/11/27
 37 40  0  0  0  0  0  0  0  0999 V2000
   36.7455    5.9186   19.1251 C   0  0  1  0  0  0  0  0  0  0  0  0
   35.8980    4.6362   19.2380 C   0  0  1  0  0  0  0  0  0  0  0  0
   34.5328    4.7910   18.5490 C   0  0  0  0  0  0  0  0  0  0  0  0
   33.7877    6.0272   19.1167 C   0  0  1  0  0  0  0  0  0  0  0  0
   34.6494    7.2913   18.9369 C   0  0  1  0  0  0  0  0  0  0  0  0
   33.8596    8.5412   19.5132 C   0  0  1  0  0  0  0  0  0  0  0  0
   32.5238    8.6977   18.7686 C   0  0  1  0  0  0  0  0  0  0  0  0
   31.7193    7.3861   18.9391 C   0  0  2  0  0  0  0  0  0  0  0  0
   30.7899   10.5215   18.3515 C   0  0  0  0  0  0  0  0  0  0  0  0
   36.6063    3.4606   18.7059 N   0  0  0  0  0  0  0  0  0  0  0  0
   31.7956    9.9037   19.2713 N   0  0  0  0  0  0  0  0  0  0  0  0
   37.2952    6.1337   17.8118 O   0  0  0  0  0  0  0  0  0  0  0  0
   35.9485    7.0657   19.6023 O   0  0  0  0  0  0  0  0  0  0  0  0
   32.4800    6.2428   18.4562 O   0  0  0  0  0  0  0  0  0  0  0  0
   33.5583    8.3188   20.8749 O   0  0  0  0  0  0  0  0  0  0  0  0
   30.4842    7.4217   18.2231 O   0  0  0  0  0  0  0  0  0  0  0  0
   29.7429    6.1816   18.3008 C   0  0  2  0  0  0  0  0  0  0  0  0
   28.2906    6.3085   17.8126 C   0  0  1  0  0  0  0  0  0  0  0  0
   27.4450    7.1688   18.7889 C   0  0  2  0  0  0  0  0  0  0  0  0
   27.4876    6.5663   20.1745 C   0  0  1  0  0  0  0  0  0  0  0  0
   28.9576    6.4794   20.6488 C   0  0  1  0  0  0  0  0  0  0  0  0
   29.0985    5.8352   22.0261 C   0  0  0  0  0  0  0  0  0  0  0  0
   26.6790    7.4084   21.0803 N   0  0  0  0  0  0  0  0  0  0  0  0
   29.7377    5.6736   19.6925 O   0  0  0  0  0  0  0  0  0  0  0  0
   28.3060    6.8518   16.4846 O   0  0  0  0  0  0  0  0  0  0  0  0
   26.0819    7.2040   18.3443 O   0  0  0  0  0  0  0  0  0  0  0  0
   30.4560    5.7684   22.3733 O   0  0  0  0  0  0  0  0  0  0  0  0
   37.5116    7.5083   17.1969 C   0  0  1  0  0  0  0  0  0  0  0  0
   36.1513    7.9732   16.6316 C   0  0  1  0  0  0  0  0  0  0  0  0
   36.2497    9.3999   16.0393 C   0  0  2  0  0  0  0  0  0  0  0  0
   36.7217   10.3830   17.1172 C   0  0  1  0  0  0  0  0  0  0  0  0
   38.1041    9.9488   17.6678 C   0  0  0  0  0  0  0  0  0  0  0  0
   37.9800    8.5424   18.2631 C   0  0  2  0  0  0  0  0  0  0  0  0
   36.8242   11.7426   16.5414 N   0  0  0  0  0  0  0  0  0  0  0  0
   39.2942    8.1778   18.7855 N   0  0  0  0  0  0  0  0  0  0  0  0
   35.7409    7.0663   15.5852 O   0  0  0  0  0  0  0  0  0  0  0  0
   34.9492    9.7919   15.5498 O   0  0  0  0  0  0  0  0  0  0  0  0
  1  2  1  0  0  0  0
  1 12  1  6  0  0  0
  1 13  1  0  0  0  0
  2  3  1  0  0  0  0
  2 10  1  6  0  0  0
  4  3  1  6  0  0  0
  4  5  1  0  0  0  0
  4 14  1  0  0  0  0
  5  6  1  0  0  0  0
  5 13  1  1  0  0  0
  6  7  1  0  0  0  0
  6 15  1  1  0  0  0
  7  8  1  0  0  0  0
  7 11  1  1  0  0  0
  8 14  1  0  0  0  0
  8 16  1  6  0  0  0
  9 11  1  0  0  0  0
 17 16  1  1  0  0  0
 17 18  1  0  0  0  0
 17 24  1  0  0  0  0
 18 19  1  0  0  0  0
 18 25  1  6  0  0  0
 19 20  1  0  0  0  0
 19 26  1  6  0  0  0
 20 21  1  0  0  0  0
 20 23  1  1  0  0  0
 21 22  1  1  0  0  0
 21 24  1  0  0  0  0
 22 27  1  0  0  0  0
 28 12  1  1  0  0  0
 28 29  1  0  0  0  0
 28 33  1  0  0  0  0
 29 30  1  0  0  0  0
 29 36  1  6  0  0  0
 30 31  1  0  0  0  0
 30 37  1  1  0  0  0
 31 32  1  0  0  0  0
 31 34  1  6  0  0  0
 32 33  1  0  0  0  0
 33 35  1  6  0  0  0
M  END
>  <CHROM.1>
146.75879357,156.59473593,176.72625270,166.96386849,178.83655277,-81.15875770
33.04966383,7.40724332,18.60688162,-0.23542155,-0.10595447,2.58317349

>  <Name>
1yrj_lig

>  <RI>
224

>  <Rbt.Current_Directory>
/home/itssahil/PROJECTS/Mol_Feturizer/New_Systems/rnas/1yrj

>  <Rbt.Executable>
rbdock ($Id: //depot/dev/client3/rdock/2013.1/src/exe/rbdock.cxx#4 $)

>  <Rbt.Library>
libRbt.so (2013.1, Build901 2013/11/27)

>  <Rbt.Parameter_File>
/export/apps/rDock/src/rDock_2013.1_src/data/scripts/dock_solv.prm

>  <Rbt.Receptor>
prm/blind_docking_80.prm

>  <SCORE>
-11.3193

>  <SCORE.INTER>
-7.17244

>  <SCORE.INTER.CONST>
1

>  <SCORE.INTER.POLAR>
-0.648814

>  <SCORE.INTER.ROT>
6

>  <SCORE.INTER.SOLV>
22.0154

>  <SCORE.INTER.VDW>
-17.5574

>  <SCORE.INTER.norm>
-0.19385

>  <SCORE.INTRA>
-4.14689

>  <SCORE.INTRA.DIHEDRAL>
-8.15313

>  <SCORE.INTRA.DIHEDRAL.0>
15.6389

>  <SCORE.INTRA.POLAR>
0

>  <SCORE.INTRA.POLAR.0>
0

>  <SCORE.INTRA.REPUL>
0.00504129

>  <SCORE.INTRA.REPUL.0>
0

>  <SCORE.INTRA.SOLV>
-1.08674

>  <SCORE.INTRA.SOLV.lig_0>
-90.9181

>  <SCORE.INTRA.VDW>
0.447836

>  <SCORE.INTRA.VDW.0>
-3.14158

>  <SCORE.INTRA.norm>
-0.112078

>  <SCORE.RESTR>
0

>  <SCORE.RESTR.CAVITY>
0

>  <SCORE.RESTR.norm>
0

>  <SCORE.SYSTEM>
0

>  <SCORE.SYSTEM.CONST>
0

>  <SCORE.SYSTEM.DIHEDRAL>
0

>  <SCORE.SYSTEM.SOLV>
0

>  <SCORE.SYSTEM.norm>
0

>  <SCORE.heavy>
37

>  <SCORE.norm>
-0.305928

>  <RMSD>
14.900

$$$$
1yrj_lig
 OpenBabel11021811423D
libRbt.so/2013.1/901 2013/11/27
 37 40  0  0  0  0  0  0  0  0999 V2000
   36.9209    5.9755   19.3273 C   0  0  1  0  0  0  0  0  0  0  0  0
   35.8456    5.0130   19.8685 C   0  0  1  0  0  0  0  0  0  0  0  0
   34.4367    5.4074   19.3977 C   0  0  0  0  0  0  0  0  0  0  0  0
   34.1399    6.8801   19.7833 C   0  0  1  0  0  0  0  0  0  0  0  0
   35.2098    7.8095   19.1797 C   0  0  1  0  0  0  0  0  0  0  0  0
   34.8758    9.3088   19.5778 C   0  0  1  0  0  0  0  0  0  0  0  0
   33.4829    9.6870   19.0484 C   0  0  1  0  0  0  0  0  0  0  0  0
   32.4543    8.6955   19.6444 C   0  0  2  0  0  0  0  0  0  0  0  0
   33.9237   12.1597   18.6036 C   0  0  0  0  0  0  0  0  0  0  0  0
   36.1293    3.6139   19.5092 N   0  0  0  0  0  0  0  0  0  0  0  0
   33.1810   11.1150   19.3757 N   0  0  0  0  0  0  0  0  0  0  0  0
   37.2051    5.7954   17.9273 O   0  0  0  0  0  0  0  0  0  0  0  0
   36.5347    7.3619   19.6549 O   0  0  0  0  0  0  0  0  0  0  0  0
   32.8058    7.3215   19.3164 O   0  0  0  0  0  0  0  0  0  0  0  0
   34.8360    9.4231   20.9849 O   0  0  0  0  0  0  0  0  0  0  0  0
   31.1351    8.9370   19.1534 O   0  0  0  0  0  0  0  0  0  0  0  0
   30.0997    8.3979   20.0084 C   0  0  2  0  0  0  0  0  0  0  0  0
   29.5800    7.0271   19.5453 C   0  0  1  0  0  0  0  0  0  0  0  0
   28.7761    7.1505   18.2236 C   0  0  2  0  0  0  0  0  0  0  0  0
   27.6292    8.1177   18.4074 C   0  0  1  0  0  0  0  0  0  0  0  0
   28.1861    9.4935   18.8439 C   0  0  1  0  0  0  0  0  0  0  0  0
   27.0876   10.5228   19.1002 C   0  0  0  0  0  0  0  0  0  0  0  0
   26.8871    8.2173   17.1335 N   0  0  0  0  0  0  0  0  0  0  0  0
   28.9593    9.3401   20.0893 O   0  0  0  0  0  0  0  0  0  0  0  0
   30.6995    6.1385   19.4186 O   0  0  0  0  0  0  0  0  0  0  0  0
   28.2437    5.8690   17.8612 O   0  0  0  0  0  0  0  0  0  0  0  0
   27.6613   11.7973   19.2204 O   0  0  0  0  0  0  0  0  0  0  0  0
   36.4633    6.5153   16.8111 C   0  0  1  0  0  0  0  0  0  0  0  0
   37.4915    7.4101   16.0845 C   0  0  1  0  0  0  0  0  0  0  0  0
   36.8468    8.1396   14.8810 C   0  0  2  0  0  0  0  0  0  0  0  0
   36.2693    7.1160   13.8963 C   0  0  1  0  0  0  0  0  0  0  0  0
   35.2081    6.2345   14.6032 C   0  0  0  0  0  0  0  0  0  0  0  0
   35.8708    5.5100   15.7796 C   0  0  2  0  0  0  0  0  0  0  0  0
   35.6449    7.8203   12.7541 N   0  0  0  0  0  0  0  0  0  0  0  0
   34.8465    4.6791   16.4065 N   0  0  0  0  0  0  0  0  0  0  0  0
   37.9924    8.3996   17.0096 O   0  0  0  0  0  0  0  0  0  0  0  0
   37.8551    8.9393   14.2263 O   0  0  0  0  0  0  0  0  0  0  0  0
  1  2  1  0  0  0  0
  1 12  1  6  0  0  0
  1 13  1  0  0  0  0
  2  3  1  0  0  0  0
  2 10  1  6  0  0  0
  4  3  1  6  0  0  0
  4  5  1  0  0  0  0
  4 14  1  0  0  0  0
  5  6  1  0  0  0  0
  5 13  1  1  0  0  0
  6  7  1  0  0  0  0
  6 15  1  1  0  0  0
  7  8  1  0  0  0  0
  7 11  1  1  0  0  0
  8 14  1  0  0  0  0
  8 16  1  6  0  0  0
  9 11  1  0  0  0  0
 17 16  1  6  0  0  0
 17 18  1  0  0  0  0
 17 24  1  0  0  0  0
 18 19  1  0  0  0  0
 18 25  1  6  0  0  0
 19 20  1  0  0  0  0
 19 26  1  1  0  0  0
 20 21  1  0  0  0  0
 20 23  1  6  0  0  0
 21 22  1  1  0  0  0
 21 24  1  0  0  0  0
 22 27  1  0  0  0  0
 28 12  1  1  0  0  0
 28 29  1  0  0  0  0
 28 33  1  0  0  0  0
 29 30  1  0  0  0  0
 29 36  1  1  0  0  0
 30 31  1  0  0  0  0
 30 37  1  6  0  0  0
 31 32  1  0  0  0  0
 31 34  1  6  0  0  0
 32 33  1  0  0  0  0
 33 35  1  1  0  0  0
M  END
>  <CHROM.1>
89.18255260,72.23292738,-158.72487242,-97.39743065,-168.02200796,116.34844252
33.26618089,7.79642448,18.14610426,0.00775882,-0.37189146,2.43689940

>  <Name>
1yrj_lig

>  <RI>
0

>  <Rbt.Current_Directory>
/home/itssahil/PROJECTS/Mol_Feturizer/New_Systems/rnas/1yrj

>  <Rbt.Executable>
rbdock ($Id: //depot/dev/client3/rdock/2013.1/src/exe/rbdock.cxx#4 $)

>  <Rbt.Library>
libRbt.so (2013.1, Build901 2013/11/27)

>  <Rbt.Parameter_File>
/export/apps/rDock/src/rDock_2013.1_src/data/scripts/dock_solv.prm

>  <Rbt.Receptor>
prm/blind_docking_100.prm

>  <SCORE>
-7.71751

>  <SCORE.INTER>
-10.5807

>  <SCORE.INTER.CONST>
1

>  <SCORE.INTER.POLAR>
-1.70137

>  <SCORE.INTER.ROT>
6

>  <SCORE.INTER.SOLV>
16.7334

>  <SCORE.INTER.VDW>
-14.5604

>  <SCORE.INTER.norm>
-0.285966

>  <SCORE.INTRA>
2.5425

>  <SCORE.INTRA.DIHEDRAL>
2.53725

>  <SCORE.INTRA.DIHEDRAL.0>
15.6389

>  <SCORE.INTRA.POLAR>
0

>  <SCORE.INTRA.POLAR.0>
0

>  <SCORE.INTRA.REPUL>
0

>  <SCORE.INTRA.REPUL.0>
0

>  <SCORE.INTRA.SOLV>
1.92141

>  <SCORE.INTRA.SOLV.lig_0>
-90.9181

>  <SCORE.INTRA.VDW>
0.313177

>  <SCORE.INTRA.VDW.0>
-3.14158

>  <SCORE.INTRA.norm>
0.0687163

>  <SCORE.RESTR>
0.320732

>  <SCORE.RESTR.CAVITY>
0.320732

>  <SCORE.RESTR.norm>
0.00866843

>  <SCORE.SYSTEM>
0

>  <SCORE.SYSTEM.CONST>
0

>  <SCORE.SYSTEM.DIHEDRAL>
0

>  <SCORE.SYSTEM.SOLV>
0

>  <SCORE.SYSTEM.norm>
0

>  <SCORE.heavy>
37

>  <SCORE.norm>
-0.208581

>  <RMSD>
14.901

$$$$
1yrj_lig
 OpenBabel11021811423D
libRbt.so/2013.1/901 2013/11/27
 37 40  0  0  0  0  0  0  0  0999 V2000
   37.0883   10.2001   17.8850 C   0  0  1  0  0  0  0  0  0  0  0  0
   36.6682    9.4662   19.1735 C   0  0  1  0  0  0  0  0  0  0  0  0
   35.2872    8.8067   19.0311 C   0  0  0  0  0  0  0  0  0  0  0  0
   34.2359    9.8621   18.5990 C   0  0  1  0  0  0  0  0  0  0  0  0
   34.6718   10.5329   17.2826 C   0  0  1  0  0  0  0  0  0  0  0  0
   33.5742   11.5970   16.8569 C   0  0  1  0  0  0  0  0  0  0  0  0
   32.2180   10.8967   16.6735 C   0  0  1  0  0  0  0  0  0  0  0  0
   31.8504   10.1995   18.0058 C   0  0  2  0  0  0  0  0  0  0  0  0
   30.6029   12.7789   17.2697 C   0  0  0  0  0  0  0  0  0  0  0  0
   37.6681    8.4689   19.5890 N   0  0  0  0  0  0  0  0  0  0  0  0
   31.1887   11.8842   16.2231 N   0  0  0  0  0  0  0  0  0  0  0  0
   37.4845    9.3160   16.8199 O   0  0  0  0  0  0  0  0  0  0  0  0
   36.0097   11.1248   17.4843 O   0  0  0  0  0  0  0  0  0  0  0  0
   32.8930    9.2674   18.4101 O   0  0  0  0  0  0  0  0  0  0  0  0
   33.4194   12.5496   17.8879 O   0  0  0  0  0  0  0  0  0  0  0  0
   30.6276    9.4687   17.9050 O   0  0  0  0  0  0  0  0  0  0  0  0
   30.3496    8.6569   19.0701 C   0  0  2  0  0  0  0  0  0  0  0  0
   29.8591    7.2417   18.7233 C   0  0  1  0  0  0  0  0  0  0  0  0
   28.4394    7.2788   18.0978 C   0  0  2  0  0  0  0  0  0  0  0  0
   27.4768    7.9557   19.0464 C   0  0  1  0  0  0  0  0  0  0  0  0
   27.9815    9.3858   19.3521 C   0  0  1  0  0  0  0  0  0  0  0  0
   27.0907   10.1288   20.3452 C   0  0  0  0  0  0  0  0  0  0  0  0
   26.1377    7.9799   18.4223 N   0  0  0  0  0  0  0  0  0  0  0  0
   29.3374    9.3182   19.9262 O   0  0  0  0  0  0  0  0  0  0  0  0
   30.8208    6.6312   17.8507 O   0  0  0  0  0  0  0  0  0  0  0  0
   27.9831    5.9406   17.8567 O   0  0  0  0  0  0  0  0  0  0  0  0
   25.8609   10.4244   19.7384 O   0  0  0  0  0  0  0  0  0  0  0  0
   36.5570    8.2995   16.1712 C   0  0  1  0  0  0  0  0  0  0  0  0
   36.4254    8.6885   14.6822 C   0  0  1  0  0  0  0  0  0  0  0  0
   35.5492    7.6702   13.9131 C   0  0  2  0  0  0  0  0  0  0  0  0
   36.1560    6.2666   14.0262 C   0  0  1  0  0  0  0  0  0  0  0  0
   36.2599    5.8479   15.5150 C   0  0  0  0  0  0  0  0  0  0  0  0
   37.1436    6.8590   16.2529 C   0  0  2  0  0  0  0  0  0  0  0  0
   35.3076    5.2966   13.2983 N   0  0  0  0  0  0  0  0  0  0  0  0
   37.2311    6.4212   17.6434 N   0  0  0  0  0  0  0  0  0  0  0  0
   35.8093    9.9914   14.5880 O   0  0  0  0  0  0  0  0  0  0  0  0
   35.4809    8.0677   12.5267 O   0  0  0  0  0  0  0  0  0  0  0  0
  1  2  1  0  0  0  0
  1 12  1  6  0  0  0
  1 13  1  0  0  0  0
  2  3  1  0  0  0  0
  2 10  1  6  0  0  0
  4  3  1  6  0  0  0
  4  5  1  0  0  0  0
  4 14  1  0  0  0  0
  5  6  1  0  0  0  0
  5 13  1  1  0  0  0
  6  7  1  0  0  0  0
  6 15  1  1  0  0  0
  7  8  1  0  0  0  0
  7 11  1  1  0  0  0
  8 14  1  0  0  0  0
  8 16  1  6  0  0  0
  9 11  1  0  0  0  0
 17 16  1  6  0  0  0
 17 18  1  0  0  0  0
 17 24  1  0  0  0  0
 18 19  1  0  0  0  0
 18 25  1  6  0  0  0
 19 20  1  0  0  0  0
 19 26  1  1  0  0  0
 20 21  1  0  0  0  0
 20 23  1  6  0  0  0
 21 22  1  1  0  0  0
 21 24  1  0  0  0  0
 22 27  1  0  0  0  0
 28 12  1  1  0  0  0
 28 29  1  0  0  0  0
 28 33  1  0  0  0  0
 29 30  1  0  0  0  0
 29 36  1  1  0  0  0
 30 31  1  0  0  0  0
 30 37  1  6  0  0  0
 31 32  1  0  0  0  0
 31 34  1  6  0  0  0
 32 33  1  0  0  0  0
 33 35  1  1  0  0  0
M  END
>  <CHROM.1>
62.44275018,-78.59370287,171.94546772,-135.69623619,-69.40592745,117.86393609
32.89753274,8.96321240,17.35778464,-0.22978925,0.26399413,0.47535703

>  <Name>
1yrj_lig

>  <RI>
0

>  <Rbt.Current_Directory>
/home/itssahil/PROJECTS/Mol_Feturizer/New_Systems/rnas/1yrj

>  <Rbt.Executable>
rbdock ($Id: //depot/dev/client3/rdock/2013.1/src/exe/rbdock.cxx#4 $)

>  <Rbt.Library>
libRbt.so (2013.1, Build901 2013/11/27)

>  <Rbt.Parameter_File>
/export/apps/rDock/src/rDock_2013.1_src/data/scripts/dock_solv.prm

>  <Rbt.Receptor>
prm/blind_docking_100.prm

>  <SCORE>
-10.3711

>  <SCORE.INTER>
-12.7845

>  <SCORE.INTER.CONST>
1

>  <SCORE.INTER.POLAR>
-1.86194

>  <SCORE.INTER.ROT>
6

>  <SCORE.INTER.SOLV>
20.1602

>  <SCORE.INTER.VDW>
-16.6366

>  <SCORE.INTER.norm>
-0.345527

>  <SCORE.INTRA>
2.37226

>  <SCORE.INTRA.DIHEDRAL>
-1.4249

>  <SCORE.INTRA.DIHEDRAL.0>
15.6389

>  <SCORE.INTRA.POLAR>
0

>  <SCORE.INTRA.POLAR.0>
0

>  <SCORE.INTRA.REPUL>
0

>  <SCORE.INTRA.REPUL.0>
0

>  <SCORE.INTRA.SOLV>
3.52166

>  <SCORE.INTRA.SOLV.lig_0>
-90.9181

>  <SCORE.INTRA.VDW>
1.32388

>  <SCORE.INTRA.VDW.0>
-3.14158

>  <SCORE.INTRA.norm>
0.0641151

>  <SCORE.RESTR>
0.0411077

>  <SCORE.RESTR.CAVITY>
0.0411077

>  <SCORE.RESTR.norm>
0.00111102

>  <SCORE.SYSTEM>
0

>  <SCORE.SYSTEM.CONST>
0

>  <SCORE.SYSTEM.DIHEDRAL>
0

>  <SCORE.SYSTEM.SOLV>
0

>  <SCORE.SYSTEM.norm>
0

>  <SCORE.heavy>
37

>  <SCORE.norm>
-0.280301

>  <RMSD>
14.906

$$$$
1yrj_lig
 OpenBabel11021811423D
libRbt.so/2013.1/901 2013/11/27
 37 40  0  0  0  0  0  0  0  0999 V2000
   27.3103    5.2728   17.9736 C   0  0  1  0  0  0  0  0  0  0  0  0
   28.0946    4.1855   18.7339 C   0  0  1  0  0  0  0  0  0  0  0  0
   29.2769    4.7767   19.5181 C   0  0  0  0  0  0  0  0  0  0  0  0
   30.1927    5.5901   18.5666 C   0  0  1  0  0  0  0  0  0  0  0  0
   29.3786    6.6955   17.8679 C   0  0  1  0  0  0  0  0  0  0  0  0
   30.3404    7.5195   16.9118 C   0  0  1  0  0  0  0  0  0  0  0  0
   31.4818    8.1388   17.7346 C   0  0  1  0  0  0  0  0  0  0  0  0
   32.2356    6.9935   18.4532 C   0  0  2  0  0  0  0  0  0  0  0  0
   32.3255   10.4430   17.0375 C   0  0  0  0  0  0  0  0  0  0  0  0
   27.2257    3.4079   19.6325 N   0  0  0  0  0  0  0  0  0  0  0  0
   32.3650    8.9591   16.8487 N   0  0  0  0  0  0  0  0  0  0  0  0
   26.4922    6.0967   18.8252 O   0  0  0  0  0  0  0  0  0  0  0  0
   28.2516    6.0612   17.1545 O   0  0  0  0  0  0  0  0  0  0  0  0
   31.3285    6.2140   19.2830 O   0  0  0  0  0  0  0  0  0  0  0  0
   30.9272    6.6457   15.9701 O   0  0  0  0  0  0  0  0  0  0  0  0
   33.2792    7.4876   19.2937 O   0  0  0  0  0  0  0  0  0  0  0  0
   34.6018    7.1119   18.8430 C   0  0  2  0  0  0  0  0  0  0  0  0
   34.9992    7.7649   17.5091 C   0  0  1  0  0  0  0  0  0  0  0  0
   34.1612    7.1935   16.3345 C   0  0  2  0  0  0  0  0  0  0  0  0
   34.3328    5.6935   16.2621 C   0  0  1  0  0  0  0  0  0  0  0  0
   33.8976    5.0640   17.6067 C   0  0  1  0  0  0  0  0  0  0  0  0
   34.0842    3.5488   17.6392 C   0  0  0  0  0  0  0  0  0  0  0  0
   33.5211    5.1792   15.1396 N   0  0  0  0  0  0  0  0  0  0  0  0
   34.6969    5.6401   18.7028 O   0  0  0  0  0  0  0  0  0  0  0  0
   34.8514    9.1862   17.6400 O   0  0  0  0  0  0  0  0  0  0  0  0
   34.6082    7.7679   15.0987 O   0  0  0  0  0  0  0  0  0  0  0  0
   33.5120    3.0332   18.8117 O   0  0  0  0  0  0  0  0  0  0  0  0
   26.5590    7.6162   18.8544 C   0  0  1  0  0  0  0  0  0  0  0  0
   27.7776    8.0017   19.7217 C   0  0  1  0  0  0  0  0  0  0  0  0
   27.9741    9.5366   19.7600 C   0  0  2  0  0  0  0  0  0  0  0  0
   28.1643   10.0759   18.3373 C   0  0  1  0  0  0  0  0  0  0  0  0
   26.9312    9.7281   17.4648 C   0  0  0  0  0  0  0  0  0  0  0  0
   26.7653    8.2052   17.4274 C   0  0  2  0  0  0  0  0  0  0  0  0
   28.3404   11.5448   18.3803 N   0  0  0  0  0  0  0  0  0  0  0  0
   25.6080    7.9182   16.5841 N   0  0  0  0  0  0  0  0  0  0  0  0
   27.5648    7.5298   21.0700 O   0  0  0  0  0  0  0  0  0  0  0  0
   29.1370    9.8377   20.5610 O   0  0  0  0  0  0  0  0  0  0  0  0
  1  2  1  0  0  0  0
  1 12  1  1  0  0  0
  1 13  1  0  0  0  0
  2  3  1  0  0  0  0
  2 10  1  1  0  0  0
  4  3  1  1  0  0  0
  4  5  1  0  0  0  0
  4 14  1  0  0  0  0
  5  6  1  0  0  0  0
  5 13  1  6  0  0  0
  6  7  1  0  0  0  0
  6 15  1  6  0  0  0
  7  8  1  0  0  0  0
  7 11  1  6  0  0  0
  8 14  1  0  0  0  0
  8 16  1  1  0  0  0
  9 11  1  0  0  0  0
 17 16  1  6  0  0  0
 17 18  1  0  0  0  0
 17 24  1  0  0  0  0
 18 19  1  0  0  0  0
 18 25  1  1  0  0  0
 19 20  1  0  0  0  0
 19 26  1  6  0  0  0
 20 21  1  0  0  0  0
 20 23  1  6  0  0  0
 21 22  1  6  0  0  0
 21 24  1  0  0  0  0
 22 27  1  0  0  0  0
 28 12  1  6  0  0  0
 28 29  1  0  0  0  0
 28 33  1  0  0  0  0
 29 30  1  0  0  0  0
 29 36  1  1  0  0  0
 30 31  1  0  0  0  0
 30 37  1  1  0  0  0
 31 32  1  0  0  0  0
 31 34  1  1  0  0  0
 32 33  1  0  0  0  0
 33 35  1  6  0  0  0
M  END
>  <CHROM.1>
126.21154681,110.42273059,-113.89917791,66.88311773,-172.42622743,-79.99295977
30.64807724,7.06898485,18.05469779,2.98602590,0.21824954,-0.10835433

>  <Name>
1yrj_lig

>  <RI>
0

>  <Rbt.Current_Directory>
/home/itssahil/PROJECTS/Mol_Feturizer/New_Systems/rnas/1yrj

>  <Rbt.Executable>
rbdock ($Id: //depot/dev/client3/rdock/2013.1/src/exe/rbdock.cxx#4 $)

>  <Rbt.Library>
libRbt.so (2013.1, Build901 2013/11/27)

>  <Rbt.Parameter_File>
/export/apps/rDock/src/rDock_2013.1_src/data/scripts/dock_solv.prm

>  <Rbt.Receptor>
prm/blind_docking_40.prm

>  <SCORE>
10.9547

>  <SCORE.INTER>
-2.06259

>  <SCORE.INTER.CONST>
1

>  <SCORE.INTER.POLAR>
-0.276257

>  <SCORE.INTER.ROT>
6

>  <SCORE.INTER.SOLV>
13.3825

>  <SCORE.INTER.VDW>
-12.515

>  <SCORE.INTER.norm>
-0.0557458

>  <SCORE.INTRA>
7.08898

>  <SCORE.INTRA.DIHEDRAL>
1.69472

>  <SCORE.INTRA.DIHEDRAL.0>
15.6389

>  <SCORE.INTRA.POLAR>
0

>  <SCORE.INTRA.POLAR.0>
0

>  <SCORE.INTRA.REPUL>
0

>  <SCORE.INTRA.REPUL.0>
0

>  <SCORE.INTRA.SOLV>
5.67467

>  <SCORE.INTRA.SOLV.lig_0>
-90.9181

>  <SCORE.INTRA.VDW>
3.40428

>  <SCORE.INTRA.VDW.0>
-3.14158

>  <SCORE.INTRA.norm>
0.191594

>  <SCORE.RESTR>
5.92831

>  <SCORE.RESTR.CAVITY>
5.92831

>  <SCORE.RESTR.norm>
0.160225

>  <SCORE.SYSTEM>
0

>  <SCORE.SYSTEM.CONST>
0

>  <SCORE.SYSTEM.DIHEDRAL>
0

>  <SCORE.SYSTEM.SOLV>
0

>  <SCORE.SYSTEM.norm>
0

>  <SCORE.heavy>
37

>  <SCORE.norm>
0.296073

>  <RMSD>
14.941

$$$$
1yrj_lig
 OpenBabel11021811423D
libRbt.so/2013.1/901 2013/11/27
 37 40  0  0  0  0  0  0  0  0999 V2000
   30.9067   10.0832   20.0790 C   0  0  1  0  0  0  0  0  0  0  0  0
   31.4477   11.4675   19.6709 C   0  0  1  0  0  0  0  0  0  0  0  0
   32.6150   11.3546   18.6774 C   0  0  0  0  0  0  0  0  0  0  0  0
   33.7290   10.4502   19.2663 C   0  0  1  0  0  0  0  0  0  0  0  0
   33.1549    9.0631   19.6117 C   0  0  1  0  0  0  0  0  0  0  0  0
   34.3162    8.1551   20.1991 C   0  0  1  0  0  0  0  0  0  0  0  0
   35.4433    8.0211   19.1622 C   0  0  1  0  0  0  0  0  0  0  0  0
   35.9503    9.4416   18.8138 C   0  0  2  0  0  0  0  0  0  0  0  0
   36.9526    5.9954   18.8081 C   0  0  0  0  0  0  0  0  0  0  0  0
   30.3903   12.3297   19.1181 N   0  0  0  0  0  0  0  0  0  0  0  0
   36.5193    7.1253   19.6884 N   0  0  0  0  0  0  0  0  0  0  0  0
   30.1302    9.4406   19.0507 O   0  0  0  0  0  0  0  0  0  0  0  0
   32.0288    9.2475   20.5494 O   0  0  0  0  0  0  0  0  0  0  0  0
   34.8620   10.2780   18.3287 O   0  0  0  0  0  0  0  0  0  0  0  0
   34.8671    8.7778   21.3406 O   0  0  0  0  0  0  0  0  0  0  0  0
   36.9615    9.4141   17.8057 O   0  0  0  0  0  0  0  0  0  0  0  0
   38.1001   10.2515   18.1157 C   0  0  2  0  0  0  0  0  0  0  0  0
   37.8504   11.7440   17.8437 C   0  0  1  0  0  0  0  0  0  0  0  0
   37.7385   12.0246   16.3215 C   0  0  2  0  0  0  0  0  0  0  0  0
   38.9940   11.5606   15.6192 C   0  0  1  0  0  0  0  0  0  0  0  0
   39.2012   10.0511   15.8873 C   0  0  1  0  0  0  0  0  0  0  0  0
   40.4786    9.5066   15.2520 C   0  0  0  0  0  0  0  0  0  0  0  0
   38.8556   11.8363   14.1741 N   0  0  0  0  0  0  0  0  0  0  0  0
   39.2842    9.8148   17.3397 O   0  0  0  0  0  0  0  0  0  0  0  0
   36.6708   12.1422   18.5571 O   0  0  0  0  0  0  0  0  0  0  0  0
   37.5815   13.4330   16.1007 O   0  0  0  0  0  0  0  0  0  0  0  0
   40.5366    8.1174   15.4378 O   0  0  0  0  0  0  0  0  0  0  0  0
   29.2182    8.2479   19.2961 C   0  0  1  0  0  0  0  0  0  0  0  0
   28.4666    7.9703   17.9755 C   0  0  1  0  0  0  0  0  0  0  0  0
   27.5559    6.7249   18.1011 C   0  0  2  0  0  0  0  0  0  0  0  0
   28.3945    5.4993   18.4829 C   0  0  1  0  0  0  0  0  0  0  0  0
   29.1261    5.7500   19.8263 C   0  0  0  0  0  0  0  0  0  0  0  0
   30.0330    6.9757   19.6747 C   0  0  2  0  0  0  0  0  0  0  0  0
   27.5164    4.3150   18.6122 N   0  0  0  0  0  0  0  0  0  0  0  0
   30.7157    7.1675   20.9514 N   0  0  0  0  0  0  0  0  0  0  0  0
   27.6442    9.1127   17.6520 O   0  0  0  0  0  0  0  0  0  0  0  0
   26.8993    6.4983   16.8354 O   0  0  0  0  0  0  0  0  0  0  0  0
  1  2  1  0  0  0  0
  1 12  1  6  0  0  0
  1 13  1  0  0  0  0
  2  3  1  0  0  0  0
  2 10  1  6  0  0  0
  4  3  1  6  0  0  0
  4  5  1  0  0  0  0
  4 14  1  0  0  0  0
  5  6  1  0  0  0  0
  5 13  1  1  0  0  0
  6  7  1  0  0  0  0
  6 15  1  1  0  0  0
  7  8  1  0  0  0  0
  7 11  1  1  0  0  0
  8 14  1  0  0  0  0
  8 16  1  6  0  0  0
  9 11  1  0  0  0  0
 17 16  1  6  0  0  0
 17 18  1  0  0  0  0
 17 24  1  0  0  0  0
 18 19  1  0  0  0  0
 18 25  1  1  0  0  0
 19 20  1  0  0  0  0
 19 26  1  1  0  0  0
 20 21  1  0  0  0  0
 20 23  1  6  0  0  0
 21 22  1  6  0  0  0
 21 24  1  0  0  0  0
 22 27  1  0  0  0  0
 28 12  1  6  0  0  0
 28 29  1  0  0  0  0
 28 33  1  0  0  0  0
 29 30  1  0  0  0  0
 29 36  1  1  0  0  0
 30 31  1  0  0  0  0
 30 37  1  6  0  0  0
 31 32  1  0  0  0  0
 31 34  1  1  0  0  0
 32 33  1  0  0  0  0
 33 35  1  1  0  0  0
M  END
>  <CHROM.1>
-164.76559480,128.35305875,-134.11165234,-78.70168110,-174.87585082,174.05613163
33.84978555,9.18345758,18.31660110,2.81948160,-0.18195564,3.00952727

>  <Name>
1yrj_lig

>  <RI>
0

>  <Rbt.Current_Directory>
/home/itssahil/PROJECTS/Mol_Feturizer/New_Systems/rnas/1yrj

>  <Rbt.Executable>
rbdock ($Id: //depot/dev/client3/rdock/2013.1/src/exe/rbdock.cxx#4 $)

>  <Rbt.Library>
libRbt.so (2013.1, Build901 2013/11/27)

>  <Rbt.Parameter_File>
/export/apps/rDock/src/rDock_2013.1_src/data/scripts/dock_solv.prm

>  <Rbt.Receptor>
prm/blind_docking_100.prm

>  <SCORE>
-10.8264

>  <SCORE.INTER>
-8.95291

>  <SCORE.INTER.CONST>
1

>  <SCORE.INTER.POLAR>
0

>  <SCORE.INTER.ROT>
6

>  <SCORE.INTER.SOLV>
9.50302

>  <SCORE.INTER.VDW>
-16.7363

>  <SCORE.INTER.norm>
-0.24197

>  <SCORE.INTRA>
-1.87352

>  <SCORE.INTRA.DIHEDRAL>
-5.23012

>  <SCORE.INTRA.DIHEDRAL.0>
15.6389

>  <SCORE.INTRA.POLAR>
0

>  <SCORE.INTRA.POLAR.0>
0

>  <SCORE.INTRA.REPUL>
0

>  <SCORE.INTRA.REPUL.0>
0

>  <SCORE.INTRA.SOLV>
0.638411

>  <SCORE.INTRA.SOLV.lig_0>
-90.9181

>  <SCORE.INTRA.VDW>
0.422336

>  <SCORE.INTRA.VDW.0>
-3.14158

>  <SCORE.INTRA.norm>
-0.0506356

>  <SCORE.RESTR>
0

>  <SCORE.RESTR.CAVITY>
0

>  <SCORE.RESTR.norm>
0

>  <SCORE.SYSTEM>
0

>  <SCORE.SYSTEM.CONST>
0

>  <SCORE.SYSTEM.DIHEDRAL>
0

>  <SCORE.SYSTEM.SOLV>
0

>  <SCORE.SYSTEM.norm>
0

>  <SCORE.heavy>
37

>  <SCORE.norm>
-0.292606

>  <RMSD>
14.943

$$$$
1yrj_lig
 OpenBabel11021811423D
libRbt.so/2013.1/901 2013/11/27
 37 40  0  0  0  0  0  0  0  0999 V2000
   29.3253   10.3557   19.6332 C   0  0  1  0  0  0  0  0  0  0  0  0
   30.4696   11.1440   18.9665 C   0  0  1  0  0  0  0  0  0  0  0  0
   31.2161   10.2961   17.9242 C   0  0  0  0  0  0  0  0  0  0  0  0
   31.7222    8.9810   18.5724 C   0  0  1  0  0  0  0  0  0  0  0  0
   30.5397    8.2032   19.1804 C   0  0  1  0  0  0  0  0  0  0  0  0
   31.0824    6.8582   19.8243 C   0  0  1  0  0  0  0  0  0  0  0  0
   31.7776    6.0116   18.7457 C   0  0  1  0  0  0  0  0  0  0  0  0
   32.9230    6.8545   18.1341 C   0  0  2  0  0  0  0  0  0  0  0  0
   33.5859    4.7253   20.0034 C   0  0  0  0  0  0  0  0  0  0  0  0
   29.9923   12.3959   18.3566 N   0  0  0  0  0  0  0  0  0  0  0  0
   32.2479    4.7191   19.3335 N   0  0  0  0  0  0  0  0  0  0  0  0
   28.1787   10.1713   18.7820 O   0  0  0  0  0  0  0  0  0  0  0  0
   29.8580    9.0811   20.1530 O   0  0  0  0  0  0  0  0  0  0  0  0
   32.4162    8.1091   17.5973 O   0  0  0  0  0  0  0  0  0  0  0  0
   32.0500    7.1650   20.8062 O   0  0  0  0  0  0  0  0  0  0  0  0
   33.5860    6.1633   17.0747 O   0  0  0  0  0  0  0  0  0  0  0  0
   33.0028    6.4158   15.7749 C   0  0  2  0  0  0  0  0  0  0  0  0
   33.5861    5.5288   14.6628 C   0  0  1  0  0  0  0  0  0  0  0  0
   35.0587    5.9109   14.3565 C   0  0  2  0  0  0  0  0  0  0  0  0
   35.1418    7.3696   13.9693 C   0  0  1  0  0  0  0  0  0  0  0  0
   34.5755    8.2364   15.1188 C   0  0  1  0  0  0  0  0  0  0  0  0
   34.5763    9.7280   14.7917 C   0  0  0  0  0  0  0  0  0  0  0  0
   36.5536    7.7038   13.6888 N   0  0  0  0  0  0  0  0  0  0  0  0
   33.1846    7.8372   15.3986 O   0  0  0  0  0  0  0  0  0  0  0  0
   33.4533    4.1571   15.0625 O   0  0  0  0  0  0  0  0  0  0  0  0
   35.5464    5.1170   13.2662 O   0  0  0  0  0  0  0  0  0  0  0  0
   33.8702   10.4238   15.7843 O   0  0  0  0  0  0  0  0  0  0  0  0
   27.2137    9.0011   18.8998 C   0  0  1  0  0  0  0  0  0  0  0  0
   27.7311    7.8883   17.9617 C   0  0  1  0  0  0  0  0  0  0  0  0
   26.8498    6.6195   18.0593 C   0  0  2  0  0  0  0  0  0  0  0  0
   26.8294    6.1060   19.5039 C   0  0  1  0  0  0  0  0  0  0  0  0
   26.2771    7.2006   20.4523 C   0  0  0  0  0  0  0  0  0  0  0  0
   27.1727    8.4399   20.3520 C   0  0  2  0  0  0  0  0  0  0  0  0
   25.9764    4.8997   19.5923 N   0  0  0  0  0  0  0  0  0  0  0  0
   26.6316    9.4383   21.2703 N   0  0  0  0  0  0  0  0  0  0  0  0
   27.7004    8.3679   16.5997 O   0  0  0  0  0  0  0  0  0  0  0  0
   27.3916    5.6073   17.1838 O   0  0  0  0  0  0  0  0  0  0  0  0
  1  2  1  0  0  0  0
  1 12  1  6  0  0  0
  1 13  1  0  0  0  0
  2  3  1  0  0  0  0
  2 10  1  6  0  0  0
  4  3  1  6  0  0  0
  4  5  1  0  0  0  0
  4 14  1  0  0  0  0
  5  6  1  0  0  0  0
  5 13  1  1  0  0  0
  6  7  1  0  0  0  0
  6 15  1  1  0  0  0
  7  8  1  0  0  0  0
  7 11  1  1  0  0  0
  8 14  1  0  0  0  0
  8 16  1  6  0  0  0
  9 11  1  0  0  0  0
 17 16  1  1  0  0  0
 17 18  1  0  0  0  0
 17 24  1  0  0  0  0
 18 19  1  0  0  0  0
 18 25  1  1  0  0  0
 19 20  1  0  0  0  0
 19 26  1  6  0  0  0
 20 21  1  0  0  0  0
 20 23  1  1  0  0  0
 21 22  1  6  0  0  0
 21 24  1  0  0  0  0
 22 27  1  0  0  0  0
 28 12  1  1  0  0  0
 28 29  1  0  0  0  0
 28 33  1  0  0  0  0
 29 30  1  0  0  0  0
 29 36  1  6  0  0  0
 30 31  1  0  0  0  0
 30 37  1  6  0  0  0
 31 32  1  0  0  0  0
 31 34  1  6  0  0  0
 32 33  1  0  0  0  0
 33 35  1  1  0  0  0
M  END
>  <CHROM.1>
152.46076359,-85.39400219,90.29463713,-172.05703016,171.14163089,-91.45677131
31.09375651,7.64209636,17.67473431,-2.95657880,-0.56696011,-3.09481514

>  <Name>
1yrj_lig

>  <RI>
0

>  <Rbt.Current_Directory>
/home/itssahil/PROJECTS/Mol_Feturizer/New_Systems/rnas/1yrj

>  <Rbt.Executable>
rbdock ($Id: //depot/dev/client3/rdock/2013.1/src/exe/rbdock.cxx#4 $)

>  <Rbt.Library>
libRbt.so (2013.1, Build901 2013/11/27)

>  <Rbt.Parameter_File>
/export/apps/rDock/src/rDock_2013.1_src/data/scripts/dock_solv.prm

>  <Rbt.Receptor>
prm/blind_docking_40.prm

>  <SCORE>
0.605945

>  <SCORE.INTER>
-6.31267

>  <SCORE.INTER.CONST>
1

>  <SCORE.INTER.POLAR>
-1.30441

>  <SCORE.INTER.ROT>
6

>  <SCORE.INTER.SOLV>
16.2056

>  <SCORE.INTER.VDW>
-12.8623

>  <SCORE.INTER.norm>
-0.170613

>  <SCORE.INTRA>
1.91217

>  <SCORE.INTRA.DIHEDRAL>
-3.9052

>  <SCORE.INTRA.DIHEDRAL.0>
15.6389

>  <SCORE.INTRA.POLAR>
0

>  <SCORE.INTRA.POLAR.0>
0

>  <SCORE.INTRA.REPUL>
0

>  <SCORE.INTRA.REPUL.0>
0

>  <SCORE.INTRA.SOLV>
-0.287508

>  <SCORE.INTRA.SOLV.lig_0>
-90.9181

>  <SCORE.INTRA.VDW>
4.00852

>  <SCORE.INTRA.VDW.0>
-3.14158

>  <SCORE.INTRA.norm>
0.0516803

>  <SCORE.RESTR>
5.00645

>  <SCORE.RESTR.CAVITY>
5.00645

>  <SCORE.RESTR.norm>
0.135309

>  <SCORE.SYSTEM>
0

>  <SCORE.SYSTEM.CONST>
0

>  <SCORE.SYSTEM.DIHEDRAL>
0

>  <SCORE.SYSTEM.SOLV>
0

>  <SCORE.SYSTEM.norm>
0

>  <SCORE.heavy>
37

>  <SCORE.norm>
0.0163769

>  <RMSD>
14.957

$$$$
1yrj_lig
 OpenBabel11021811423D
libRbt.so/2013.1/901 2013/11/27
 37 40  0  0  0  0  0  0  0  0999 V2000
   28.0521    8.4677   20.2548 C   0  0  1  0  0  0  0  0  0  0  0  0
   28.5619    9.8685   19.8633 C   0  0  1  0  0  0  0  0  0  0  0  0
   29.3247    9.8467   18.5292 C   0  0  0  0  0  0  0  0  0  0  0  0
   30.4766    8.8099   18.5920 C   0  0  1  0  0  0  0  0  0  0  0  0
   29.9150    7.4173   18.9359 C   0  0  1  0  0  0  0  0  0  0  0  0
   31.1105    6.3748   18.9809 C   0  0  1  0  0  0  0  0  0  0  0  0
   31.8192    6.3406   17.6171 C   0  0  1  0  0  0  0  0  0  0  0  0
   32.3201    7.7700   17.2973 C   0  0  2  0  0  0  0  0  0  0  0  0
   32.8192    4.2036   16.6477 C   0  0  0  0  0  0  0  0  0  0  0  0
   27.4710   10.8554   19.8098 N   0  0  0  0  0  0  0  0  0  0  0  0
   32.9159    5.3236   17.6354 N   0  0  0  0  0  0  0  0  0  0  0  0
   26.9243    8.0253   19.4766 O   0  0  0  0  0  0  0  0  0  0  0  0
   29.1796    7.5160   20.2129 O   0  0  0  0  0  0  0  0  0  0  0  0
   31.2197    8.7228   17.3141 O   0  0  0  0  0  0  0  0  0  0  0  0
   32.0612    6.7921   19.9384 O   0  0  0  0  0  0  0  0  0  0  0  0
   32.9397    7.8424   16.0126 O   0  0  0  0  0  0  0  0  0  0  0  0
   34.3206    8.2711   16.0676 C   0  0  2  0  0  0  0  0  0  0  0  0
   34.8888    8.6726   14.6967 C   0  0  1  0  0  0  0  0  0  0  0  0
   35.0457    7.4364   13.7718 C   0  0  2  0  0  0  0  0  0  0  0  0
   35.9346    6.4084   14.4335 C   0  0  1  0  0  0  0  0  0  0  0  0
   35.3215    6.0035   15.7950 C   0  0  1  0  0  0  0  0  0  0  0  0
   36.1832    4.9995   16.5574 C   0  0  0  0  0  0  0  0  0  0  0  0
   36.0608    5.2439   13.5327 N   0  0  0  0  0  0  0  0  0  0  0  0
   35.1675    7.1998   16.6420 O   0  0  0  0  0  0  0  0  0  0  0  0
   34.0305    9.6714   14.1266 O   0  0  0  0  0  0  0  0  0  0  0  0
   35.6467    7.8345   12.5320 O   0  0  0  0  0  0  0  0  0  0  0  0
   35.4990    4.5747   17.7060 O   0  0  0  0  0  0  0  0  0  0  0  0
   26.8774    6.7031   18.7257 C   0  0  1  0  0  0  0  0  0  0  0  0
   26.6232    5.5947   19.7711 C   0  0  1  0  0  0  0  0  0  0  0  0
   26.4908    4.2082   19.0957 C   0  0  2  0  0  0  0  0  0  0  0  0
   25.3436    4.2286   18.0785 C   0  0  1  0  0  0  0  0  0  0  0  0
   25.6038    5.3124   17.0013 C   0  0  0  0  0  0  0  0  0  0  0  0
   25.7151    6.6770   17.6893 C   0  0  2  0  0  0  0  0  0  0  0  0
   25.2298    2.9037   17.4288 N   0  0  0  0  0  0  0  0  0  0  0  0
   25.9416    7.6702   16.6428 N   0  0  0  0  0  0  0  0  0  0  0  0
   27.7329    5.5542   20.6945 O   0  0  0  0  0  0  0  0  0  0  0  0
   26.2303    3.2173   20.1130 O   0  0  0  0  0  0  0  0  0  0  0  0
  1  2  1  0  0  0  0
  1 12  1  6  0  0  0
  1 13  1  0  0  0  0
  2  3  1  0  0  0  0
  2 10  1  6  0  0  0
  4  3  1  6  0  0  0
  4  5  1  0  0  0  0
  4 14  1  0  0  0  0
  5  6  1  0  0  0  0
  5 13  1  1  0  0  0
  6  7  1  0  0  0  0
  6 15  1  1  0  0  0
  7  8  1  0  0  0  0
  7 11  1  1  0  0  0
  8 14  1  0  0  0  0
  8 16  1  6  0  0  0
  9 11  1  0  0  0  0
 17 16  1  6  0  0  0
 17 18  1  0  0  0  0
 17 24  1  0  0  0  0
 18 19  1  0  0  0  0
 18 25  1  6  0  0  0
 19 20  1  0  0  0  0
 19 26  1  6  0  0  0
 20 21  1  0  0  0  0
 20 23  1  6  0  0  0
 21 22  1  1  0  0  0
 21 24  1  0  0  0  0
 22 27  1  0  0  0  0
 28 12  1  1  0  0  0
 28 29  1  0  0  0  0
 28 33  1  0  0  0  0
 29 30  1  0  0  0  0
 29 36  1  1  0  0  0
 30 31  1  0  0  0  0
 30 37  1  1  0  0  0
 31 32  1  0  0  0  0
 31 34  1  6  0  0  0
 32 33  1  0  0  0  0
 33 35  1  6  0  0  0
M  END
>  <CHROM.1>
126.38733108,119.87876849,-120.07578512,-166.22956819,-173.75791749,76.81983154
30.77318963,6.82188038,17.52208502,3.11559141,-0.43585467,-3.02765901

>  <Name>
1yrj_lig

>  <RI>
0

>  <Rbt.Current_Directory>
/home/itssahil/PROJECTS/Mol_Feturizer/New_Systems/rnas/1yrj

>  <Rbt.Executable>
rbdock ($Id: //depot/dev/client3/rdock/2013.1/src/exe/rbdock.cxx#4 $)

>  <Rbt.Library>
libRbt.so (2013.1, Build901 2013/11/27)

>  <Rbt.Parameter_File>
/export/apps/rDock/src/rDock_2013.1_src/data/scripts/dock_solv.prm

>  <Rbt.Receptor>
prm/blind_docking_40.prm

>  <SCORE>
-6.2714

>  <SCORE.INTER>
-8.94814

>  <SCORE.INTER.CONST>
1

>  <SCORE.INTER.POLAR>
-1.25505

>  <SCORE.INTER.ROT>
6

>  <SCORE.INTER.SOLV>
18.6497

>  <SCORE.INTER.VDW>
-15.5985

>  <SCORE.INTER.norm>
-0.241842

>  <SCORE.INTRA>
1.2601

>  <SCORE.INTRA.DIHEDRAL>
2.04555

>  <SCORE.INTRA.DIHEDRAL.0>
15.6389

>  <SCORE.INTRA.POLAR>
0

>  <SCORE.INTRA.POLAR.0>
0

>  <SCORE.INTRA.REPUL>
0

>  <SCORE.INTRA.REPUL.0>
0

>  <SCORE.INTRA.SOLV>
0.198535

>  <SCORE.INTRA.SOLV.lig_0>
-90.9181

>  <SCORE.INTRA.VDW>
0.138058

>  <SCORE.INTRA.VDW.0>
-3.14158

>  <SCORE.INTRA.norm>
0.0340568

>  <SCORE.RESTR>
1.41664

>  <SCORE.RESTR.CAVITY>
1.41664

>  <SCORE.RESTR.norm>
0.0382876

>  <SCORE.SYSTEM>
0

>  <SCORE.SYSTEM.CONST>
0

>  <SCORE.SYSTEM.DIHEDRAL>
0

>  <SCORE.SYSTEM.SOLV>
0

>  <SCORE.SYSTEM.norm>
0

>  <SCORE.heavy>
37

>  <SCORE.norm>
-0.169497

>  <RMSD>
14.968

$$$$
1yrj_lig
 OpenBabel11021811423D
libRbt.so/2013.1/901 2013/11/27
 37 40  0  0  0  0  0  0  0  0999 V2000
   36.8165    6.0607   19.3524 C   0  0  1  0  0  0  0  0  0  0  0  0
   35.8687    4.8608   19.5453 C   0  0  1  0  0  0  0  0  0  0  0  0
   34.4974    5.1056   18.8957 C   0  0  0  0  0  0  0  0  0  0  0  0
   33.8800    6.4216   19.4366 C   0  0  1  0  0  0  0  0  0  0  0  0
   34.8381    7.5996   19.1771 C   0  0  1  0  0  0  0  0  0  0  0  0
   34.1777    8.9334   19.7275 C   0  0  1  0  0  0  0  0  0  0  0  0
   32.8337    9.1754   19.0214 C   0  0  1  0  0  0  0  0  0  0  0  0
   31.9284    7.9448   19.2716 C   0  0  2  0  0  0  0  0  0  0  0  0
   32.5608   11.6940   18.7237 C   0  0  0  0  0  0  0  0  0  0  0  0
   36.4559    3.6095   19.0386 N   0  0  0  0  0  0  0  0  0  0  0  0
   32.2284   10.4574   19.4980 N   0  0  0  0  0  0  0  0  0  0  0  0
   37.3347    6.1781   18.0141 O   0  0  0  0  0  0  0  0  0  0  0  0
   36.1368    7.2891   19.8082 O   0  0  0  0  0  0  0  0  0  0  0  0
   32.5722    6.7231   18.8110 O   0  0  0  0  0  0  0  0  0  0  0  0
   33.9081    8.7894   21.1063 O   0  0  0  0  0  0  0  0  0  0  0  0
   30.6756    8.0588   18.5955 O   0  0  0  0  0  0  0  0  0  0  0  0
   29.5510    8.1941   19.4958 C   0  0  2  0  0  0  0  0  0  0  0  0
   29.2551    6.9159   20.2972 C   0  0  1  0  0  0  0  0  0  0  0  0
   28.7074    5.7925   19.3772 C   0  0  2  0  0  0  0  0  0  0  0  0
   27.4631    6.2716   18.6651 C   0  0  1  0  0  0  0  0  0  0  0  0
   27.7998    7.5397   17.8454 C   0  0  1  0  0  0  0  0  0  0  0  0
   26.5836    8.1220   17.1288 C   0  0  0  0  0  0  0  0  0  0  0  0
   26.9690    5.1842   17.7952 N   0  0  0  0  0  0  0  0  0  0  0  0
   28.3348    8.5795   18.7427 O   0  0  0  0  0  0  0  0  0  0  0  0
   30.4546    6.5221   20.9791 O   0  0  0  0  0  0  0  0  0  0  0  0
   28.3720    4.6429   20.1664 O   0  0  0  0  0  0  0  0  0  0  0  0
   26.2844    7.3377   16.0049 O   0  0  0  0  0  0  0  0  0  0  0  0
   37.5477    7.5042   17.2997 C   0  0  1  0  0  0  0  0  0  0  0  0
   36.1790    7.9404   16.7320 C   0  0  1  0  0  0  0  0  0  0  0  0
   36.2751    9.3212   16.0389 C   0  0  2  0  0  0  0  0  0  0  0  0
   36.7776   10.3732   17.0347 C   0  0  1  0  0  0  0  0  0  0  0  0
   38.1683    9.9664   17.5852 C   0  0  0  0  0  0  0  0  0  0  0  0
   38.0468    8.6063   18.2804 C   0  0  2  0  0  0  0  0  0  0  0  0
   36.8776   11.6881   16.3628 N   0  0  0  0  0  0  0  0  0  0  0  0
   39.3693    8.2676   18.7992 N   0  0  0  0  0  0  0  0  0  0  0  0
   35.7393    6.9660   15.7607 O   0  0  0  0  0  0  0  0  0  0  0  0
   34.9671    9.6894   15.5506 O   0  0  0  0  0  0  0  0  0  0  0  0
  1  2  1  0  0  0  0
  1 12  1  6  0  0  0
  1 13  1  0  0  0  0
  2  3  1  0  0  0  0
  2 10  1  6  0  0  0
  4  3  1  6  0  0  0
  4  5  1  0  0  0  0
  4 14  1  0  0  0  0
  5  6  1  0  0  0  0
  5 13  1  1  0  0  0
  6  7  1  0  0  0  0
  6 15  1  1  0  0  0
  7  8  1  0  0  0  0
  7 11  1  1  0  0  0
  8 14  1  0  0  0  0
  8 16  1  6  0  0  0
  9 11  1  0  0  0  0
 17 16  1  6  0  0  0
 17 18  1  0  0  0  0
 17 24  1  0  0  0  0
 18 19  1  0  0  0  0
 18 25  1  6  0  0  0
 19 20  1  0  0  0  0
 19 26  1  1  0  0  0
 20 21  1  0  0  0  0
 20 23  1  6  0  0  0
 21 22  1  1  0  0  0
 21 24  1  0  0  0  0
 22 27  1  0  0  0  0
 28 12  1  1  0  0  0
 28 29  1  0  0  0  0
 28 33  1  0  0  0  0
 29 30  1  0  0  0  0
 29 36  1  6  0  0  0
 30 31  1  0  0  0  0
 30 37  1  1  0  0  0
 31 32  1  0  0  0  0
 31 34  1  6  0  0  0
 32 33  1  0  0  0  0
 33 35  1  6  0  0  0
M  END
>  <CHROM.1>
142.09076384,91.25066576,-113.03442591,-69.11649823,-76.07004526,-81.39652297
33.09999782,7.68032653,18.48227604,-0.15577782,-0.01423284,2.72258410

>  <Name>
1yrj_lig

>  <RI>
224

>  <Rbt.Current_Directory>
/home/itssahil/PROJECTS/Mol_Feturizer/New_Systems/rnas/1yrj

>  <Rbt.Executable>
rbdock ($Id: //depot/dev/client3/rdock/2013.1/src/exe/rbdock.cxx#4 $)

>  <Rbt.Library>
libRbt.so (2013.1, Build901 2013/11/27)

>  <Rbt.Parameter_File>
/export/apps/rDock/src/rDock_2013.1_src/data/scripts/dock_solv.prm

>  <Rbt.Receptor>
prm/blind_docking_80.prm

>  <SCORE>
-5.58961

>  <SCORE.INTER>
-6.58976

>  <SCORE.INTER.CONST>
1

>  <SCORE.INTER.POLAR>
-0.728851

>  <SCORE.INTER.ROT>
6

>  <SCORE.INTER.SOLV>
17.8369

>  <SCORE.INTER.VDW>
-15.5093

>  <SCORE.INTER.norm>
-0.178102

>  <SCORE.INTRA>
0.884503

>  <SCORE.INTRA.DIHEDRAL>
0.300281

>  <SCORE.INTRA.DIHEDRAL.0>
15.6389

>  <SCORE.INTRA.POLAR>
0

>  <SCORE.INTRA.POLAR.0>
0

>  <SCORE.INTRA.REPUL>
0

>  <SCORE.INTRA.REPUL.0>
0

>  <SCORE.INTRA.SOLV>
0.545119

>  <SCORE.INTRA.SOLV.lig_0>
-90.9181

>  <SCORE.INTRA.VDW>
0.461803

>  <SCORE.INTRA.VDW.0>
-3.14158

>  <SCORE.INTRA.norm>
0.0239055

>  <SCORE.RESTR>
0.115644

>  <SCORE.RESTR.CAVITY>
0.115644

>  <SCORE.RESTR.norm>
0.0031255

>  <SCORE.SYSTEM>
0

>  <SCORE.SYSTEM.CONST>
0

>  <SCORE.SYSTEM.DIHEDRAL>
0

>  <SCORE.SYSTEM.SOLV>
0

>  <SCORE.SYSTEM.norm>
0

>  <SCORE.heavy>
37

>  <SCORE.norm>
-0.151071

>  <RMSD>
14.971

$$$$
1yrj_lig
 OpenBabel11021811423D
libRbt.so/2013.1/901 2013/11/27
 37 40  0  0  0  0  0  0  0  0999 V2000
   36.0253    5.0293   18.7242 C   0  0  1  0  0  0  0  0  0  0  0  0
   35.2576    3.7109   18.9429 C   0  0  1  0  0  0  0  0  0  0  0  0
   33.7389    3.9049   18.8083 C   0  0  0  0  0  0  0  0  0  0  0  0
   33.2576    5.0199   19.7730 C   0  0  1  0  0  0  0  0  0  0  0  0
   34.0147    6.3301   19.4848 C   0  0  1  0  0  0  0  0  0  0  0  0
   33.4949    7.4558   20.4751 C   0  0  1  0  0  0  0  0  0  0  0  0
   31.9839    7.6604   20.2790 C   0  0  1  0  0  0  0  0  0  0  0  0
   31.2765    6.3068   20.5317 C   0  0  2  0  0  0  0  0  0  0  0  0
   31.1508   10.0588   20.5241 C   0  0  0  0  0  0  0  0  0  0  0  0
   35.7178    2.6493   18.0328 N   0  0  0  0  0  0  0  0  0  0  0  0
   31.4951    8.7553   21.1733 N   0  0  0  0  0  0  0  0  0  0  0  0
   36.0771    5.4457   17.3469 O   0  0  0  0  0  0  0  0  0  0  0  0
   35.4625    6.0667   19.6106 O   0  0  0  0  0  0  0  0  0  0  0  0
   31.8035    5.2725   19.6532 O   0  0  0  0  0  0  0  0  0  0  0  0
   33.6925    7.0353   21.8088 O   0  0  0  0  0  0  0  0  0  0  0  0
   29.8684    6.3918   20.3092 O   0  0  0  0  0  0  0  0  0  0  0  0
   29.4933    6.1661   18.9301 C   0  0  2  0  0  0  0  0  0  0  0  0
   29.2210    7.4642   18.1527 C   0  0  1  0  0  0  0  0  0  0  0  0
   27.9264    8.1568   18.6555 C   0  0  2  0  0  0  0  0  0  0  0  0
   26.7550    7.2095   18.5322 C   0  0  1  0  0  0  0  0  0  0  0  0
   27.0465    5.9277   19.3480 C   0  0  1  0  0  0  0  0  0  0  0  0
   25.9311    4.8904   19.2400 C   0  0  0  0  0  0  0  0  0  0  0  0
   25.5407    7.8943   19.0219 N   0  0  0  0  0  0  0  0  0  0  0  0
   28.2900    5.3047   18.8604 O   0  0  0  0  0  0  0  0  0  0  0  0
   30.3719    8.3127   18.2724 O   0  0  0  0  0  0  0  0  0  0  0  0
   27.6621    9.3211   17.8608 O   0  0  0  0  0  0  0  0  0  0  0  0
   26.3012    3.7326   19.9403 O   0  0  0  0  0  0  0  0  0  0  0  0
   36.3158    6.8809   16.9024 C   0  0  1  0  0  0  0  0  0  0  0  0
   37.7412    7.2666   17.3559 C   0  0  1  0  0  0  0  0  0  0  0  0
   38.1090    8.6962   16.8898 C   0  0  2  0  0  0  0  0  0  0  0  0
   38.0122    8.7902   15.3625 C   0  0  1  0  0  0  0  0  0  0  0  0
   36.5758    8.4413   14.8957 C   0  0  0  0  0  0  0  0  0  0  0  0
   36.2391    7.0181   15.3529 C   0  0  2  0  0  0  0  0  0  0  0  0
   38.3541   10.1621   14.9247 N   0  0  0  0  0  0  0  0  0  0  0  0
   34.8895    6.7213   14.8801 N   0  0  0  0  0  0  0  0  0  0  0  0
   37.8058    7.2204   18.7979 O   0  0  0  0  0  0  0  0  0  0  0  0
   39.4554    8.9939   17.3178 O   0  0  0  0  0  0  0  0  0  0  0  0
  1  2  1  0  0  0  0
  1 12  1  6  0  0  0
  1 13  1  0  0  0  0
  2  3  1  0  0  0  0
  2 10  1  6  0  0  0
  4  3  1  6  0  0  0
  4  5  1  0  0  0  0
  4 14  1  0  0  0  0
  5  6  1  0  0  0  0
  5 13  1  1  0  0  0
  6  7  1  0  0  0  0
  6 15  1  1  0  0  0
  7  8  1  0  0  0  0
  7 11  1  1  0  0  0
  8 14  1  0  0  0  0
  8 16  1  6  0  0  0
  9 11  1  0  0  0  0
 17 16  1  1  0  0  0
 17 18  1  0  0  0  0
 17 24  1  0  0  0  0
 18 19  1  0  0  0  0
 18 25  1  1  0  0  0
 19 20  1  0  0  0  0
 19 26  1  6  0  0  0
 20 21  1  0  0  0  0
 20 23  1  1  0  0  0
 21 22  1  6  0  0  0
 21 24  1  0  0  0  0
 22 27  1  0  0  0  0
 28 12  1  6  0  0  0
 28 29  1  0  0  0  0
 28 33  1  0  0  0  0
 29 30  1  0  0  0  0
 29 36  1  1  0  0  0
 30 31  1  0  0  0  0
 30 37  1  6  0  0  0
 31 32  1  0  0  0  0
 31 34  1  1  0  0  0
 32 33  1  0  0  0  0
 33 35  1  1  0  0  0
M  END
>  <CHROM.1>
157.60753339,106.80908316,86.77065659,-100.05548655,176.64527721,64.62720593
32.73956941,6.80249506,18.54185356,-0.18112344,-0.18106070,2.68954178

>  <Name>
1yrj_lig

>  <RI>
224

>  <Rbt.Current_Directory>
/home/itssahil/PROJECTS/Mol_Feturizer/New_Systems/rnas/1yrj

>  <Rbt.Executable>
rbdock ($Id: //depot/dev/client3/rdock/2013.1/src/exe/rbdock.cxx#4 $)

>  <Rbt.Library>
libRbt.so (2013.1, Build901 2013/11/27)

>  <Rbt.Parameter_File>
/export/apps/rDock/src/rDock_2013.1_src/data/scripts/dock_solv.prm

>  <Rbt.Receptor>
prm/blind_docking_80.prm

>  <SCORE>
-9.25026

>  <SCORE.INTER>
-8.76237

>  <SCORE.INTER.CONST>
1

>  <SCORE.INTER.POLAR>
-0.849745

>  <SCORE.INTER.ROT>
6

>  <SCORE.INTER.SOLV>
13.3794

>  <SCORE.INTER.VDW>
-15.0689

>  <SCORE.INTER.norm>
-0.236821

>  <SCORE.INTRA>
-0.487894

>  <SCORE.INTRA.DIHEDRAL>
-3.79358

>  <SCORE.INTRA.DIHEDRAL.0>
15.6389

>  <SCORE.INTRA.POLAR>
0

>  <SCORE.INTRA.POLAR.0>
0

>  <SCORE.INTRA.REPUL>
0

>  <SCORE.INTRA.REPUL.0>
0

>  <SCORE.INTRA.SOLV>
-1.15299

>  <SCORE.INTRA.SOLV.lig_0>
-90.9181

>  <SCORE.INTRA.VDW>
1.98539

>  <SCORE.INTRA.VDW.0>
-3.14158

>  <SCORE.INTRA.norm>
-0.0131863

>  <SCORE.RESTR>
0

>  <SCORE.RESTR.CAVITY>
0

>  <SCORE.RESTR.norm>
0

>  <SCORE.SYSTEM>
0

>  <SCORE.SYSTEM.CONST>
0

>  <SCORE.SYSTEM.DIHEDRAL>
0

>  <SCORE.SYSTEM.SOLV>
0

>  <SCORE.SYSTEM.norm>
0

>  <SCORE.heavy>
37

>  <SCORE.norm>
-0.250007

>  <RMSD>
15.030

$$$$
1yrj_lig
 OpenBabel11021811423D
libRbt.so/2013.1/901 2013/11/27
 37 40  0  0  0  0  0  0  0  0999 V2000
   36.3557    6.1493   19.4422 C   0  0  1  0  0  0  0  0  0  0  0  0
   35.5623    4.8382   19.6064 C   0  0  1  0  0  0  0  0  0  0  0  0
   34.2470    4.8628   18.8115 C   0  0  0  0  0  0  0  0  0  0  0  0
   33.4050    6.1013   19.2150 C   0  0  1  0  0  0  0  0  0  0  0  0
   34.2184    7.3895   18.9869 C   0  0  1  0  0  0  0  0  0  0  0  0
   33.3306    8.6400   19.3945 C   0  0  1  0  0  0  0  0  0  0  0  0
   32.0486    8.6633   18.5463 C   0  0  1  0  0  0  0  0  0  0  0  0
   31.2952    7.3301   18.7734 C   0  0  2  0  0  0  0  0  0  0  0  0
   31.5139   11.1213   18.1237 C   0  0  0  0  0  0  0  0  0  0  0  0
   36.3623    3.6610   19.2304 N   0  0  0  0  0  0  0  0  0  0  0  0
   31.2298    9.8672   18.8890 N   0  0  0  0  0  0  0  0  0  0  0  0
   36.9919    6.2823   18.1574 O   0  0  0  0  0  0  0  0  0  0  0  0
   35.4730    7.2889   19.7597 O   0  0  0  0  0  0  0  0  0  0  0  0
   32.1421    6.1920   18.4472 O   0  0  0  0  0  0  0  0  0  0  0  0
   32.9386    8.5169   20.7456 O   0  0  0  0  0  0  0  0  0  0  0  0
   30.1170    7.2408   17.9713 O   0  0  0  0  0  0  0  0  0  0  0  0
   29.3604    6.0289   18.2005 C   0  0  2  0  0  0  0  0  0  0  0  0
   27.8668    6.1707   17.8651 C   0  0  1  0  0  0  0  0  0  0  0  0
   27.1528    7.1080   18.8751 C   0  0  2  0  0  0  0  0  0  0  0  0
   27.3327    6.5822   20.2808 C   0  0  1  0  0  0  0  0  0  0  0  0
   28.8434    6.4791   20.5981 C   0  0  1  0  0  0  0  0  0  0  0  0
   29.1192    5.9083   21.9874 C   0  0  0  0  0  0  0  0  0  0  0  0
   26.6474    7.4963   21.2179 N   0  0  0  0  0  0  0  0  0  0  0  0
   29.4957    5.5992   19.6119 O   0  0  0  0  0  0  0  0  0  0  0  0
   27.7494    6.6389   16.5138 O   0  0  0  0  0  0  0  0  0  0  0  0
   25.7504    7.1581   18.5787 O   0  0  0  0  0  0  0  0  0  0  0  0
   30.5046    5.8111   22.1853 O   0  0  0  0  0  0  0  0  0  0  0  0
   37.4007    7.6142   17.5464 C   0  0  1  0  0  0  0  0  0  0  0  0
   38.4168    8.2647   18.5109 C   0  0  1  0  0  0  0  0  0  0  0  0
   38.9487    9.6033   17.9440 C   0  0  2  0  0  0  0  0  0  0  0  0
   39.6110    9.3685   16.5812 C   0  0  1  0  0  0  0  0  0  0  0  0
   38.5913    8.7495   15.5912 C   0  0  0  0  0  0  0  0  0  0  0  0
   38.0907    7.4193   16.1638 C   0  0  2  0  0  0  0  0  0  0  0  0
   40.1071   10.6535   16.0400 N   0  0  0  0  0  0  0  0  0  0  0  0
   37.1491    6.8609   15.1972 N   0  0  0  0  0  0  0  0  0  0  0  0
   37.7677    8.5242   19.7748 O   0  0  0  0  0  0  0  0  0  0  0  0
   39.9095   10.1529   18.8710 O   0  0  0  0  0  0  0  0  0  0  0  0
  1  2  1  0  0  0  0
  1 12  1  6  0  0  0
  1 13  1  0  0  0  0
  2  3  1  0  0  0  0
  2 10  1  6  0  0  0
  4  3  1  6  0  0  0
  4  5  1  0  0  0  0
  4 14  1  0  0  0  0
  5  6  1  0  0  0  0
  5 13  1  1  0  0  0
  6  7  1  0  0  0  0
  6 15  1  1  0  0  0
  7  8  1  0  0  0  0
  7 11  1  1  0  0  0
  8 14  1  0  0  0  0
  8 16  1  6  0  0  0
  9 11  1  0  0  0  0
 17 16  1  1  0  0  0
 17 18  1  0  0  0  0
 17 24  1  0  0  0  0
 18 19  1  0  0  0  0
 18 25  1  6  0  0  0
 19 20  1  0  0  0  0
 19 26  1  6  0  0  0
 20 21  1  0  0  0  0
 20 23  1  1  0  0  0
 21 22  1  1  0  0  0
 21 24  1  0  0  0  0
 22 27  1  0  0  0  0
 28 12  1  1  0  0  0
 28 29  1  0  0  0  0
 28 33  1  0  0  0  0
 29 30  1  0  0  0  0
 29 36  1  1  0  0  0
 30 31  1  0  0  0  0
 30 37  1  1  0  0  0
 31 32  1  0  0  0  0
 31 34  1  6  0  0  0
 32 33  1  0  0  0  0
 33 35  1  6  0  0  0
M  END
>  <CHROM.1>
157.45424358,88.71594967,-177.63660565,154.57432897,178.35054962,60.37545952
33.28760265,7.36439778,18.72909976,-0.22493088,-0.06877305,2.56872912

>  <Name>
1yrj_lig

>  <RI>
0

>  <Rbt.Current_Directory>
/home/itssahil/PROJECTS/Mol_Feturizer/New_Systems/rnas/1yrj

>  <Rbt.Executable>
rbdock ($Id: //depot/dev/client3/rdock/2013.1/src/exe/rbdock.cxx#4 $)

>  <Rbt.Library>
libRbt.so (2013.1, Build901 2013/11/27)

>  <Rbt.Parameter_File>
/export/apps/rDock/src/rDock_2013.1_src/data/scripts/dock_solv.prm

>  <Rbt.Receptor>
prm/blind_docking_100.prm

>  <SCORE>
-16.0056

>  <SCORE.INTER>
-11.2756

>  <SCORE.INTER.CONST>
1

>  <SCORE.INTER.POLAR>
-0.786514

>  <SCORE.INTER.ROT>
6

>  <SCORE.INTER.SOLV>
20.3303

>  <SCORE.INTER.VDW>
-19.2721

>  <SCORE.INTER.norm>
-0.304746

>  <SCORE.INTRA>
-4.73002

>  <SCORE.INTRA.DIHEDRAL>
-10.0073

>  <SCORE.INTRA.DIHEDRAL.0>
15.6389

>  <SCORE.INTRA.POLAR>
0

>  <SCORE.INTRA.POLAR.0>
0

>  <SCORE.INTRA.REPUL>
0.00350864

>  <SCORE.INTRA.REPUL.0>
0

>  <SCORE.INTRA.SOLV>
-2.31848

>  <SCORE.INTRA.SOLV.lig_0>
-90.9181

>  <SCORE.INTRA.VDW>
1.41533

>  <SCORE.INTRA.VDW.0>
-3.14158

>  <SCORE.INTRA.norm>
-0.127838

>  <SCORE.RESTR>
0

>  <SCORE.RESTR.CAVITY>
0

>  <SCORE.RESTR.norm>
0

>  <SCORE.SYSTEM>
0

>  <SCORE.SYSTEM.CONST>
0

>  <SCORE.SYSTEM.DIHEDRAL>
0

>  <SCORE.SYSTEM.SOLV>
0

>  <SCORE.SYSTEM.norm>
0

>  <SCORE.heavy>
37

>  <SCORE.norm>
-0.432584

>  <RMSD>
15.037

$$$$
1yrj_lig
 OpenBabel11021811423D
libRbt.so/2013.1/901 2013/11/27
 37 40  0  0  0  0  0  0  0  0999 V2000
   29.7516    8.2954   18.9943 C   0  0  1  0  0  0  0  0  0  0  0  0
   30.2042    9.7607   18.8412 C   0  0  1  0  0  0  0  0  0  0  0  0
   31.5803    9.8660   18.1647 C   0  0  0  0  0  0  0  0  0  0  0  0
   32.6213    9.0185   18.9418 C   0  0  1  0  0  0  0  0  0  0  0  0
   32.1521    7.5537   19.0260 C   0  0  1  0  0  0  0  0  0  0  0  0
   33.2394    6.7074   19.8132 C   0  0  1  0  0  0  0  0  0  0  0  0
   34.5896    6.7923   19.0831 C   0  0  1  0  0  0  0  0  0  0  0  0
   34.9909    8.2840   18.9819 C   0  0  2  0  0  0  0  0  0  0  0  0
   35.7717    4.5447   19.3220 C   0  0  0  0  0  0  0  0  0  0  0  0
   29.2143   10.5682   18.1098 N   0  0  0  0  0  0  0  0  0  0  0  0
   35.6080    5.9562   19.7910 N   0  0  0  0  0  0  0  0  0  0  0  0
   29.3269    7.6901   17.7588 O   0  0  0  0  0  0  0  0  0  0  0  0
   30.8205    7.5290   19.6644 O   0  0  0  0  0  0  0  0  0  0  0  0
   33.9581    9.0559   18.3061 O   0  0  0  0  0  0  0  0  0  0  0  0
   33.4220    7.2593   21.1003 O   0  0  0  0  0  0  0  0  0  0  0  0
   36.2098    8.4600   18.2589 O   0  0  0  0  0  0  0  0  0  0  0  0
   37.0678    9.4784   18.8250 C   0  0  2  0  0  0  0  0  0  0  0  0
   36.6084   10.9098   18.5032 C   0  0  1  0  0  0  0  0  0  0  0  0
   36.7950   11.2323   16.9967 C   0  0  2  0  0  0  0  0  0  0  0  0
   38.2420   11.0394   16.6047 C   0  0  1  0  0  0  0  0  0  0  0  0
   38.6651    9.5835   16.9128 C   0  0  1  0  0  0  0  0  0  0  0  0
   40.1330    9.3126   16.5911 C   0  0  0  0  0  0  0  0  0  0  0  0
   38.3868   11.3488   15.1671 N   0  0  0  0  0  0  0  0  0  0  0  0
   38.4583    9.3023   18.3448 O   0  0  0  0  0  0  0  0  0  0  0  0
   35.2438   11.0517   18.9235 O   0  0  0  0  0  0  0  0  0  0  0  0
   36.4284   12.5960   16.7462 O   0  0  0  0  0  0  0  0  0  0  0  0
   40.3406    9.4466   15.2102 O   0  0  0  0  0  0  0  0  0  0  0  0
   28.4742    6.4328   17.6787 C   0  0  1  0  0  0  0  0  0  0  0  0
   28.9202    5.5063   18.8314 C   0  0  1  0  0  0  0  0  0  0  0  0
   28.0618    4.2190   18.8786 C   0  0  2  0  0  0  0  0  0  0  0  0
   26.5824    4.5822   19.0538 C   0  0  1  0  0  0  0  0  0  0  0  0
   26.1111    5.4825   17.8833 C   0  0  0  0  0  0  0  0  0  0  0  0
   26.9622    6.7565   17.8653 C   0  0  2  0  0  0  0  0  0  0  0  0
   25.7666    3.3478   19.0870 N   0  0  0  0  0  0  0  0  0  0  0  0
   26.4772    7.5835   16.7637 N   0  0  0  0  0  0  0  0  0  0  0  0
   30.3007    5.1332   18.6291 O   0  0  0  0  0  0  0  0  0  0  0  0
   28.5040    3.4044   19.9856 O   0  0  0  0  0  0  0  0  0  0  0  0
  1  2  1  0  0  0  0
  1 12  1  6  0  0  0
  1 13  1  0  0  0  0
  2  3  1  0  0  0  0
  2 10  1  6  0  0  0
  4  3  1  6  0  0  0
  4  5  1  0  0  0  0
  4 14  1  0  0  0  0
  5  6  1  0  0  0  0
  5 13  1  1  0  0  0
  6  7  1  0  0  0  0
  6 15  1  1  0  0  0
  7  8  1  0  0  0  0
  7 11  1  1  0  0  0
  8 14  1  0  0  0  0
  8 16  1  6  0  0  0
  9 11  1  0  0  0  0
 17 16  1  6  0  0  0
 17 18  1  0  0  0  0
 17 24  1  0  0  0  0
 18 19  1  0  0  0  0
 18 25  1  6  0  0  0
 19 20  1  0  0  0  0
 19 26  1  1  0  0  0
 20 21  1  0  0  0  0
 20 23  1  6  0  0  0
 21 22  1  1  0  0  0
 21 24  1  0  0  0  0
 22 27  1  0  0  0  0
 28 12  1  1  0  0  0
 28 29  1  0  0  0  0
 28 33  1  0  0  0  0
 29 30  1  0  0  0  0
 29 36  1  6  0  0  0
 30 31  1  0  0  0  0
 30 37  1  1  0  0  0
 31 32  1  0  0  0  0
 31 34  1  6  0  0  0
 32 33  1  0  0  0  0
 33 35  1  6  0  0  0
M  END
>  <CHROM.1>
-161.60685538,92.57408537,-140.63454047,-76.92769114,-64.47502094,-36.46858571
32.92296598,7.97981767,18.31735471,2.71941797,0.02042744,2.77980943

>  <Name>
1yrj_lig

>  <RI>
0

>  <Rbt.Current_Directory>
/home/itssahil/PROJECTS/Mol_Feturizer/New_Systems/rnas/1yrj

>  <Rbt.Executable>
rbdock ($Id: //depot/dev/client3/rdock/2013.1/src/exe/rbdock.cxx#4 $)

>  <Rbt.Library>
libRbt.so (2013.1, Build901 2013/11/27)

>  <Rbt.Parameter_File>
/export/apps/rDock/src/rDock_2013.1_src/data/scripts/dock_solv.prm

>  <Rbt.Receptor>
prm/blind_docking_100.prm

>  <SCORE>
-7.91873

>  <SCORE.INTER>
-7.13639

>  <SCORE.INTER.CONST>
1

>  <SCORE.INTER.POLAR>
0

>  <SCORE.INTER.ROT>
6

>  <SCORE.INTER.SOLV>
8.7046

>  <SCORE.INTER.VDW>
-15.2591

>  <SCORE.INTER.norm>
-0.192875

>  <SCORE.INTRA>
-0.786429

>  <SCORE.INTRA.DIHEDRAL>
-4.27127

>  <SCORE.INTRA.DIHEDRAL.0>
15.6389

>  <SCORE.INTRA.POLAR>
0

>  <SCORE.INTRA.POLAR.0>
0

>  <SCORE.INTRA.REPUL>
0

>  <SCORE.INTRA.REPUL.0>
0

>  <SCORE.INTRA.SOLV>
-0.119717

>  <SCORE.INTRA.SOLV.lig_0>
-90.9181

>  <SCORE.INTRA.VDW>
1.40906

>  <SCORE.INTRA.VDW.0>
-3.14158

>  <SCORE.INTRA.norm>
-0.0212548

>  <SCORE.RESTR>
0.00409057

>  <SCORE.RESTR.CAVITY>
0.00409057

>  <SCORE.RESTR.norm>
0.000110556

>  <SCORE.SYSTEM>
0

>  <SCORE.SYSTEM.CONST>
0

>  <SCORE.SYSTEM.DIHEDRAL>
0

>  <SCORE.SYSTEM.SOLV>
0

>  <SCORE.SYSTEM.norm>
0

>  <SCORE.heavy>
37

>  <SCORE.norm>
-0.21402

>  <RMSD>
15.090

$$$$
1yrj_lig
 OpenBabel11021811423D
libRbt.so/2013.1/901 2013/11/27
 37 40  0  0  0  0  0  0  0  0999 V2000
   33.8099    6.4788   16.7421 C   0  0  1  0  0  0  0  0  0  0  0  0
   33.2010    5.2287   17.4068 C   0  0  1  0  0  0  0  0  0  0  0  0
   31.6820    5.3653   17.5972 C   0  0  0  0  0  0  0  0  0  0  0  0
   31.3598    6.6570   18.3931 C   0  0  1  0  0  0  0  0  0  0  0  0
   31.9432    7.8838   17.6667 C   0  0  1  0  0  0  0  0  0  0  0  0
   31.5888    9.1908   18.4938 C   0  0  1  0  0  0  0  0  0  0  0  0
   30.0626    9.3244   18.6218 C   0  0  1  0  0  0  0  0  0  0  0  0
   29.5223    8.0483   19.3118 C   0  0  2  0  0  0  0  0  0  0  0  0
   29.6019   11.8321   18.5444 C   0  0  0  0  0  0  0  0  0  0  0  0
   33.5115    4.0008   16.6564 N   0  0  0  0  0  0  0  0  0  0  0  0
   29.7185   10.5809   19.3569 N   0  0  0  0  0  0  0  0  0  0  0  0
   33.5197    6.5845   15.3358 O   0  0  0  0  0  0  0  0  0  0  0  0
   33.3959    7.6764   17.4992 O   0  0  0  0  0  0  0  0  0  0  0  0
   29.9031    6.8550   18.5700 O   0  0  0  0  0  0  0  0  0  0  0  0
   32.1117    9.0754   19.8006 O   0  0  0  0  0  0  0  0  0  0  0  0
   28.0980    8.0611   19.4154 O   0  0  0  0  0  0  0  0  0  0  0  0
   27.6016    7.3223   20.5562 C   0  0  2  0  0  0  0  0  0  0  0  0
   28.3209    5.9809   20.7730 C   0  0  1  0  0  0  0  0  0  0  0  0
   27.9724    4.9706   19.6477 C   0  0  2  0  0  0  0  0  0  0  0  0
   26.4761    4.7657   19.5855 C   0  0  1  0  0  0  0  0  0  0  0  0
   25.7840    6.1268   19.3374 C   0  0  1  0  0  0  0  0  0  0  0  0
   24.2609    6.0202   19.3083 C   0  0  0  0  0  0  0  0  0  0  0  0
   26.1759    3.8045   18.5041 N   0  0  0  0  0  0  0  0  0  0  0  0
   26.1493    7.0689   20.4105 O   0  0  0  0  0  0  0  0  0  0  0  0
   29.7310    6.2327   20.8585 O   0  0  0  0  0  0  0  0  0  0  0  0
   28.5985    3.7094   19.9206 O   0  0  0  0  0  0  0  0  0  0  0  0
   23.8704    5.2086   18.2328 O   0  0  0  0  0  0  0  0  0  0  0  0
   34.4452    7.2455   14.3254 C   0  0  1  0  0  0  0  0  0  0  0  0
   35.0145    8.5167   14.9932 C   0  0  1  0  0  0  0  0  0  0  0  0
   36.0269    9.2307   14.0651 C   0  0  2  0  0  0  0  0  0  0  0  0
   37.1748    8.2780   13.7108 C   0  0  1  0  0  0  0  0  0  0  0  0
   36.6211    7.0132   13.0061 C   0  0  0  0  0  0  0  0  0  0  0  0
   35.6348    6.3140   13.9475 C   0  0  2  0  0  0  0  0  0  0  0  0
   38.1329    8.9632   12.8147 N   0  0  0  0  0  0  0  0  0  0  0  0
   35.1507    5.1219   13.2567 N   0  0  0  0  0  0  0  0  0  0  0  0
   33.9290    9.4258   15.2784 O   0  0  0  0  0  0  0  0  0  0  0  0
   36.5439   10.3938   14.7468 O   0  0  0  0  0  0  0  0  0  0  0  0
  1  2  1  0  0  0  0
  1 12  1  6  0  0  0
  1 13  1  0  0  0  0
  2  3  1  0  0  0  0
  2 10  1  6  0  0  0
  4  3  1  6  0  0  0
  4  5  1  0  0  0  0
  4 14  1  0  0  0  0
  5  6  1  0  0  0  0
  5 13  1  1  0  0  0
  6  7  1  0  0  0  0
  6 15  1  1  0  0  0
  7  8  1  0  0  0  0
  7 11  1  1  0  0  0
  8 14  1  0  0  0  0
  8 16  1  6  0  0  0
  9 11  1  0  0  0  0
 17 16  1  6  0  0  0
 17 18  1  0  0  0  0
 17 24  1  0  0  0  0
 18 19  1  0  0  0  0
 18 25  1  6  0  0  0
 19 20  1  0  0  0  0
 19 26  1  1  0  0  0
 20 21  1  0  0  0  0
 20 23  1  6  0  0  0
 21 22  1  1  0  0  0
 21 24  1  0  0  0  0
 22 27  1  0  0  0  0
 28 12  1  1  0  0  0
 28 29  1  0  0  0  0
 28 33  1  0  0  0  0
 29 30  1  0  0  0  0
 29 36  1  6  0  0  0
 30 31  1  0  0  0  0
 30 37  1  1  0  0  0
 31 32  1  0  0  0  0
 31 34  1  6  0  0  0
 32 33  1  0  0  0  0
 33 35  1  6  0  0  0
M  END
>  <CHROM.1>
-149.55929873,86.54898288,-150.89067266,-42.63913315,-63.29786454,-40.77517213
31.21842535,7.16544972,17.50895351,-0.02473412,-0.55387301,-2.86069086

>  <Name>
1yrj_lig

>  <RI>
0

>  <Rbt.Current_Directory>
/home/itssahil/PROJECTS/Mol_Feturizer/New_Systems/rnas/1yrj

>  <Rbt.Executable>
rbdock ($Id: //depot/dev/client3/rdock/2013.1/src/exe/rbdock.cxx#4 $)

>  <Rbt.Library>
libRbt.so (2013.1, Build901 2013/11/27)

>  <Rbt.Parameter_File>
/export/apps/rDock/src/rDock_2013.1_src/data/scripts/dock_solv.prm

>  <Rbt.Receptor>
prm/blind_docking_40.prm

>  <SCORE>
1.26741

>  <SCORE.INTER>
-9.91997

>  <SCORE.INTER.CONST>
1

>  <SCORE.INTER.POLAR>
-1.49111

>  <SCORE.INTER.ROT>
6

>  <SCORE.INTER.SOLV>
17.4111

>  <SCORE.INTER.VDW>
-15.0466

>  <SCORE.INTER.norm>
-0.268107

>  <SCORE.INTRA>
4.45673

>  <SCORE.INTRA.DIHEDRAL>
-4.91343

>  <SCORE.INTRA.DIHEDRAL.0>
15.6389

>  <SCORE.INTRA.POLAR>
0

>  <SCORE.INTRA.POLAR.0>
0

>  <SCORE.INTRA.REPUL>
0

>  <SCORE.INTRA.REPUL.0>
0

>  <SCORE.INTRA.SOLV>
1.09939

>  <SCORE.INTRA.SOLV.lig_0>
-90.9181

>  <SCORE.INTRA.VDW>
6.36374

>  <SCORE.INTRA.VDW.0>
-3.14158

>  <SCORE.INTRA.norm>
0.120452

>  <SCORE.RESTR>
6.73065

>  <SCORE.RESTR.CAVITY>
6.73065

>  <SCORE.RESTR.norm>
0.181909

>  <SCORE.SYSTEM>
0

>  <SCORE.SYSTEM.CONST>
0

>  <SCORE.SYSTEM.DIHEDRAL>
0

>  <SCORE.SYSTEM.SOLV>
0

>  <SCORE.SYSTEM.norm>
0

>  <SCORE.heavy>
37

>  <SCORE.norm>
0.0342543

>  <RMSD>
15.103

$$$$
1yrj_lig
 OpenBabel11021811423D
libRbt.so/2013.1/901 2013/11/27
 37 40  0  0  0  0  0  0  0  0999 V2000
   34.4465    6.8689   16.1197 C   0  0  1  0  0  0  0  0  0  0  0  0
   33.4191    5.7438   15.8865 C   0  0  1  0  0  0  0  0  0  0  0  0
   31.9812    6.2844   15.8370 C   0  0  0  0  0  0  0  0  0  0  0  0
   31.6716    7.0909   17.1252 C   0  0  1  0  0  0  0  0  0  0  0  0
   32.6913    8.2336   17.2902 C   0  0  1  0  0  0  0  0  0  0  0  0
   32.3446    9.0495   18.6063 C   0  0  1  0  0  0  0  0  0  0  0  0
   30.9202    9.6185   18.5025 C   0  0  1  0  0  0  0  0  0  0  0  0
   29.9427    8.4373   18.2890 C   0  0  2  0  0  0  0  0  0  0  0  0
   29.4857   11.4192   19.6010 C   0  0  0  0  0  0  0  0  0  0  0  0
   33.7153    4.9729   14.6679 N   0  0  0  0  0  0  0  0  0  0  0  0
   30.6037   10.4314   19.7176 N   0  0  0  0  0  0  0  0  0  0  0  0
   34.6674    7.6979   14.9633 O   0  0  0  0  0  0  0  0  0  0  0  0
   34.0466    7.6470   17.3085 O   0  0  0  0  0  0  0  0  0  0  0  0
   30.3076    7.6670   17.1089 O   0  0  0  0  0  0  0  0  0  0  0  0
   32.3695    8.1791   19.7183 O   0  0  0  0  0  0  0  0  0  0  0  0
   28.5968    8.8836   18.1191 O   0  0  0  0  0  0  0  0  0  0  0  0
   27.6285    7.8095   18.1666 C   0  0  2  0  0  0  0  0  0  0  0  0
   26.6394    7.9323   19.3372 C   0  0  1  0  0  0  0  0  0  0  0  0
   27.3484    7.6923   20.6966 C   0  0  2  0  0  0  0  0  0  0  0  0
   28.0074    6.3320   20.7001 C   0  0  1  0  0  0  0  0  0  0  0  0
   29.0167    6.2503   19.5305 C   0  0  1  0  0  0  0  0  0  0  0  0
   29.6966    4.8868   19.4289 C   0  0  0  0  0  0  0  0  0  0  0  0
   28.6765    6.1350   22.0027 N   0  0  0  0  0  0  0  0  0  0  0  0
   28.3178    6.5013   18.2573 O   0  0  0  0  0  0  0  0  0  0  0  0
   26.0177    9.2238   19.2700 O   0  0  0  0  0  0  0  0  0  0  0  0
   26.3852    7.7396   21.7582 O   0  0  0  0  0  0  0  0  0  0  0  0
   28.7279    3.8982   19.2005 O   0  0  0  0  0  0  0  0  0  0  0  0
   35.6445    8.8634   14.9287 C   0  0  1  0  0  0  0  0  0  0  0  0
   35.1199    9.9267   15.9187 C   0  0  1  0  0  0  0  0  0  0  0  0
   36.0858   11.1330   16.0079 C   0  0  2  0  0  0  0  0  0  0  0  0
   37.4754   10.6596   16.4506 C   0  0  1  0  0  0  0  0  0  0  0  0
   38.0304    9.6184   15.4453 C   0  0  0  0  0  0  0  0  0  0  0  0
   37.0684    8.4273   15.3849 C   0  0  2  0  0  0  0  0  0  0  0  0
   38.3963   11.8159   16.5231 N   0  0  0  0  0  0  0  0  0  0  0  0
   37.6335    7.4639   14.4440 N   0  0  0  0  0  0  0  0  0  0  0  0
   33.8326   10.3988   15.4649 O   0  0  0  0  0  0  0  0  0  0  0  0
   35.5606   12.0808   16.9622 O   0  0  0  0  0  0  0  0  0  0  0  0
  1  2  1  0  0  0  0
  1 12  1  6  0  0  0
  1 13  1  0  0  0  0
  2  3  1  0  0  0  0
  2 10  1  6  0  0  0
  4  3  1  6  0  0  0
  4  5  1  0  0  0  0
  4 14  1  0  0  0  0
  5  6  1  0  0  0  0
  5 13  1  1  0  0  0
  6  7  1  0  0  0  0
  6 15  1  1  0  0  0
  7  8  1  0  0  0  0
  7 11  1  1  0  0  0
  8 14  1  0  0  0  0
  8 16  1  6  0  0  0
  9 11  1  0  0  0  0
 17 16  1  1  0  0  0
 17 18  1  0  0  0  0
 17 24  1  0  0  0  0
 18 19  1  0  0  0  0
 18 25  1  1  0  0  0
 19 20  1  0  0  0  0
 19 26  1  1  0  0  0
 20 21  1  0  0  0  0
 20 23  1  1  0  0  0
 21 22  1  6  0  0  0
 21 24  1  0  0  0  0
 22 27  1  0  0  0  0
 28 12  1  1  0  0  0
 28 29  1  0  0  0  0
 28 33  1  0  0  0  0
 29 30  1  0  0  0  0
 29 36  1  6  0  0  0
 30 31  1  0  0  0  0
 30 37  1  1  0  0  0
 31 32  1  0  0  0  0
 31 34  1  6  0  0  0
 32 33  1  0  0  0  0
 33 35  1  6  0  0  0
M  END
>  <CHROM.1>
-179.19094167,159.93488276,-169.15452392,117.09984832,61.16184181,-65.02256181
31.90284909,8.19352185,17.71610059,-0.08300392,-0.49450780,-2.84967296

>  <Name>
1yrj_lig

>  <RI>
224

>  <Rbt.Current_Directory>
/home/itssahil/PROJECTS/Mol_Feturizer/New_Systems/rnas/1yrj

>  <Rbt.Executable>
rbdock ($Id: //depot/dev/client3/rdock/2013.1/src/exe/rbdock.cxx#4 $)

>  <Rbt.Library>
libRbt.so (2013.1, Build901 2013/11/27)

>  <Rbt.Parameter_File>
/export/apps/rDock/src/rDock_2013.1_src/data/scripts/dock_solv.prm

>  <Rbt.Receptor>
prm/blind_docking_80.prm

>  <SCORE>
-11.6457

>  <SCORE.INTER>
-10.6472

>  <SCORE.INTER.CONST>
1

>  <SCORE.INTER.POLAR>
-0.747882

>  <SCORE.INTER.ROT>
6

>  <SCORE.INTER.SOLV>
17.8776

>  <SCORE.INTER.VDW>
-18.1644

>  <SCORE.INTER.norm>
-0.287763

>  <SCORE.INTRA>
-0.998452

>  <SCORE.INTRA.DIHEDRAL>
-7.4036

>  <SCORE.INTRA.DIHEDRAL.0>
15.6389

>  <SCORE.INTRA.POLAR>
0

>  <SCORE.INTRA.POLAR.0>
0

>  <SCORE.INTRA.REPUL>
0

>  <SCORE.INTRA.REPUL.0>
0

>  <SCORE.INTRA.SOLV>
-0.435043

>  <SCORE.INTRA.SOLV.lig_0>
-90.9181

>  <SCORE.INTRA.VDW>
2.92087

>  <SCORE.INTRA.VDW.0>
-3.14158

>  <SCORE.INTRA.norm>
-0.0269852

>  <SCORE.RESTR>
0

>  <SCORE.RESTR.CAVITY>
0

>  <SCORE.RESTR.norm>
0

>  <SCORE.SYSTEM>
0

>  <SCORE.SYSTEM.CONST>
0

>  <SCORE.SYSTEM.DIHEDRAL>
0

>  <SCORE.SYSTEM.SOLV>
0

>  <SCORE.SYSTEM.norm>
0

>  <SCORE.heavy>
37

>  <SCORE.norm>
-0.314748

>  <RMSD>
15.111

$$$$
1yrj_lig
 OpenBabel11021811423D
libRbt.so/2013.1/901 2013/11/27
 37 40  0  0  0  0  0  0  0  0999 V2000
   28.5796   11.3409   18.9227 C   0  0  1  0  0  0  0  0  0  0  0  0
   29.3853   12.3569   18.0897 C   0  0  1  0  0  0  0  0  0  0  0  0
   30.4322   11.6656   17.2017 C   0  0  0  0  0  0  0  0  0  0  0  0
   31.3548   10.7683   18.0674 C   0  0  1  0  0  0  0  0  0  0  0  0
   30.5122    9.7371   18.8419 C   0  0  1  0  0  0  0  0  0  0  0  0
   31.4799    8.8252   19.7079 C   0  0  1  0  0  0  0  0  0  0  0  0
   32.4801    8.1097   18.7855 C   0  0  1  0  0  0  0  0  0  0  0  0
   33.2646    9.1861   17.9965 C   0  0  2  0  0  0  0  0  0  0  0  0
   34.4284    7.8615   20.4132 C   0  0  0  0  0  0  0  0  0  0  0  0
   28.5110   13.2141   17.2724 N   0  0  0  0  0  0  0  0  0  0  0  0
   33.3636    7.2089   19.5888 N   0  0  0  0  0  0  0  0  0  0  0  0
   27.6157   10.5983   18.1529 O   0  0  0  0  0  0  0  0  0  0  0  0
   29.5176   10.4668   19.6541 O   0  0  0  0  0  0  0  0  0  0  0  0
   32.3588   10.0482   17.2514 O   0  0  0  0  0  0  0  0  0  0  0  0
   32.2273    9.6379   20.5886 O   0  0  0  0  0  0  0  0  0  0  0  0
   34.1775    8.6042   17.0651 O   0  0  0  0  0  0  0  0  0  0  0  0
   33.5711    8.2945   15.7884 C   0  0  2  0  0  0  0  0  0  0  0  0
   33.0972    6.8362   15.6770 C   0  0  1  0  0  0  0  0  0  0  0  0
   34.3012    5.8584   15.6276 C   0  0  2  0  0  0  0  0  0  0  0  0
   35.2041    6.2123   14.4681 C   0  0  1  0  0  0  0  0  0  0  0  0
   35.6873    7.6736   14.6244 C   0  0  1  0  0  0  0  0  0  0  0  0
   36.5700    8.1327   13.4660 C   0  0  0  0  0  0  0  0  0  0  0  0
   36.3411    5.2687   14.4503 N   0  0  0  0  0  0  0  0  0  0  0  0
   34.5223    8.5743   14.6876 O   0  0  0  0  0  0  0  0  0  0  0  0
   32.2194    6.5609   16.7783 O   0  0  0  0  0  0  0  0  0  0  0  0
   33.8265    4.5170   15.4483 O   0  0  0  0  0  0  0  0  0  0  0  0
   35.9516    7.8057   12.2500 O   0  0  0  0  0  0  0  0  0  0  0  0
   27.0230    9.2674   18.5913 C   0  0  1  0  0  0  0  0  0  0  0  0
   27.6493    8.1741   17.6978 C   0  0  1  0  0  0  0  0  0  0  0  0
   27.1586    6.7652   18.1107 C   0  0  2  0  0  0  0  0  0  0  0  0
   27.5138    6.4961   19.5778 C   0  0  1  0  0  0  0  0  0  0  0  0
   26.8609    7.5655   20.4904 C   0  0  0  0  0  0  0  0  0  0  0  0
   27.3723    8.9491   20.0753 C   0  0  2  0  0  0  0  0  0  0  0  0
   27.0323    5.1524   19.9690 N   0  0  0  0  0  0  0  0  0  0  0  0
   26.7501    9.9241   20.9670 N   0  0  0  0  0  0  0  0  0  0  0  0
   27.2682    8.4115   16.3251 O   0  0  0  0  0  0  0  0  0  0  0  0
   27.7922    5.7839   17.2620 O   0  0  0  0  0  0  0  0  0  0  0  0
  1  2  1  0  0  0  0
  1 12  1  6  0  0  0
  1 13  1  0  0  0  0
  2  3  1  0  0  0  0
  2 10  1  6  0  0  0
  4  3  1  6  0  0  0
  4  5  1  0  0  0  0
  4 14  1  0  0  0  0
  5  6  1  0  0  0  0
  5 13  1  1  0  0  0
  6  7  1  0  0  0  0
  6 15  1  1  0  0  0
  7  8  1  0  0  0  0
  7 11  1  1  0  0  0
  8 14  1  0  0  0  0
  8 16  1  6  0  0  0
  9 11  1  0  0  0  0
 17 16  1  1  0  0  0
 17 18  1  0  0  0  0
 17 24  1  0  0  0  0
 18 19  1  0  0  0  0
 18 25  1  1  0  0  0
 19 20  1  0  0  0  0
 19 26  1  6  0  0  0
 20 21  1  0  0  0  0
 20 23  1  1  0  0  0
 21 22  1  6  0  0  0
 21 24  1  0  0  0  0
 22 27  1  0  0  0  0
 28 12  1  6  0  0  0
 28 29  1  0  0  0  0
 28 33  1  0  0  0  0
 29 30  1  0  0  0  0
 29 36  1  6  0  0  0
 30 31  1  0  0  0  0
 30 37  1  6  0  0  0
 31 32  1  0  0  0  0
 31 34  1  1  0  0  0
 32 33  1  0  0  0  0
 33 35  1  1  0  0  0
M  END
>  <CHROM.1>
159.54703747,-74.35614092,86.04186745,-95.45503793,48.63486959,-107.50008052
31.20489092,8.41799876,17.53792638,-2.83202578,-0.48072637,-2.99247811

>  <Name>
1yrj_lig

>  <RI>
0

>  <Rbt.Current_Directory>
/home/itssahil/PROJECTS/Mol_Feturizer/New_Systems/rnas/1yrj

>  <Rbt.Executable>
rbdock ($Id: //depot/dev/client3/rdock/2013.1/src/exe/rbdock.cxx#4 $)

>  <Rbt.Library>
libRbt.so (2013.1, Build901 2013/11/27)

>  <Rbt.Parameter_File>
/export/apps/rDock/src/rDock_2013.1_src/data/scripts/dock_solv.prm

>  <Rbt.Receptor>
prm/blind_docking_40.prm

>  <SCORE>
0.115911

>  <SCORE.INTER>
-10.1207

>  <SCORE.INTER.CONST>
1

>  <SCORE.INTER.POLAR>
-1.93273

>  <SCORE.INTER.ROT>
6

>  <SCORE.INTER.SOLV>
17.313

>  <SCORE.INTER.VDW>
-13.6757

>  <SCORE.INTER.norm>
-0.273532

>  <SCORE.INTRA>
5.94378

>  <SCORE.INTRA.DIHEDRAL>
0.805372

>  <SCORE.INTRA.DIHEDRAL.0>
15.6389

>  <SCORE.INTRA.POLAR>
0

>  <SCORE.INTRA.POLAR.0>
0

>  <SCORE.INTRA.REPUL>
0

>  <SCORE.INTRA.REPUL.0>
0

>  <SCORE.INTRA.SOLV>
1.40426

>  <SCORE.INTRA.SOLV.lig_0>
-90.9181

>  <SCORE.INTRA.VDW>
4.83897

>  <SCORE.INTRA.VDW.0>
-3.14158

>  <SCORE.INTRA.norm>
0.160643

>  <SCORE.RESTR>
4.29282

>  <SCORE.RESTR.CAVITY>
4.29282

>  <SCORE.RESTR.norm>
0.116022

>  <SCORE.SYSTEM>
0

>  <SCORE.SYSTEM.CONST>
0

>  <SCORE.SYSTEM.DIHEDRAL>
0

>  <SCORE.SYSTEM.SOLV>
0

>  <SCORE.SYSTEM.norm>
0

>  <SCORE.heavy>
37

>  <SCORE.norm>
0.00313272

>  <RMSD>
15.120

$$$$
1yrj_lig
 OpenBabel11021811423D
libRbt.so/2013.1/901 2013/11/27
 37 40  0  0  0  0  0  0  0  0999 V2000
   29.5647    9.5023   19.7096 C   0  0  1  0  0  0  0  0  0  0  0  0
   30.3407   10.8337   19.6853 C   0  0  1  0  0  0  0  0  0  0  0  0
   31.7689   10.6530   19.1468 C   0  0  0  0  0  0  0  0  0  0  0  0
   32.5126    9.5663   19.9663 C   0  0  1  0  0  0  0  0  0  0  0  0
   31.7278    8.2416   19.9207 C   0  0  1  0  0  0  0  0  0  0  0  0
   32.5158    7.1453   20.7546 C   0  0  1  0  0  0  0  0  0  0  0  0
   33.9200    6.9524   20.1593 C   0  0  1  0  0  0  0  0  0  0  0  0
   34.6466    8.3192   20.1833 C   0  0  2  0  0  0  0  0  0  0  0  0
   34.4712    4.4770   20.4331 C   0  0  0  0  0  0  0  0  0  0  0  0
   29.6329   11.8684   18.9136 N   0  0  0  0  0  0  0  0  0  0  0  0
   34.6516    5.8843   20.9086 N   0  0  0  0  0  0  0  0  0  0  0  0
   29.1480    9.0529   18.4067 O   0  0  0  0  0  0  0  0  0  0  0  0
   30.3644    8.4923   20.4301 O   0  0  0  0  0  0  0  0  0  0  0  0
   33.8837    9.3266   19.4608 O   0  0  0  0  0  0  0  0  0  0  0  0
   32.6806    7.5950   22.0832 O   0  0  0  0  0  0  0  0  0  0  0  0
   35.9426    8.2441   19.5882 O   0  0  0  0  0  0  0  0  0  0  0  0
   35.9269    7.6861   18.2533 C   0  0  2  0  0  0  0  0  0  0  0  0
   37.3259    7.5642   17.6275 C   0  0  1  0  0  0  0  0  0  0  0  0
   37.9204    8.9618   17.3091 C   0  0  2  0  0  0  0  0  0  0  0  0
   36.9915    9.7181   16.3872 C   0  0  1  0  0  0  0  0  0  0  0  0
   35.6030    9.8497   17.0566 C   0  0  1  0  0  0  0  0  0  0  0  0
   34.5833   10.5618   16.1706 C   0  0  0  0  0  0  0  0  0  0  0  0
   37.5812   11.0436   16.1067 N   0  0  0  0  0  0  0  0  0  0  0  0
   35.0743    8.5086   17.3638 O   0  0  0  0  0  0  0  0  0  0  0  0
   38.1575    6.8119   18.5228 O   0  0  0  0  0  0  0  0  0  0  0  0
   39.1899    8.8096   16.6593 O   0  0  0  0  0  0  0  0  0  0  0  0
   34.3483    9.7944   15.0201 O   0  0  0  0  0  0  0  0  0  0  0  0
   28.3765    7.7652   18.1596 C   0  0  1  0  0  0  0  0  0  0  0  0
   29.3396    6.5940   18.4538 C   0  0  1  0  0  0  0  0  0  0  0  0
   28.6261    5.2295   18.2955 C   0  0  2  0  0  0  0  0  0  0  0  0
   27.4220    5.1552   19.2419 C   0  0  1  0  0  0  0  0  0  0  0  0
   26.4282    6.3040   18.9332 C   0  0  0  0  0  0  0  0  0  0  0  0
   27.1499    7.6439   19.1117 C   0  0  2  0  0  0  0  0  0  0  0  0
   26.7382    3.8530   19.0774 N   0  0  0  0  0  0  0  0  0  0  0  0
   26.1787    8.6976   18.8303 N   0  0  0  0  0  0  0  0  0  0  0  0
   30.4445    6.6476   17.5252 O   0  0  0  0  0  0  0  0  0  0  0  0
   29.5627    4.1752   18.6054 O   0  0  0  0  0  0  0  0  0  0  0  0
  1  2  1  0  0  0  0
  1 12  1  6  0  0  0
  1 13  1  0  0  0  0
  2  3  1  0  0  0  0
  2 10  1  6  0  0  0
  4  3  1  6  0  0  0
  4  5  1  0  0  0  0
  4 14  1  0  0  0  0
  5  6  1  0  0  0  0
  5 13  1  1  0  0  0
  6  7  1  0  0  0  0
  6 15  1  1  0  0  0
  7  8  1  0  0  0  0
  7 11  1  1  0  0  0
  8 14  1  0  0  0  0
  8 16  1  6  0  0  0
  9 11  1  0  0  0  0
 17 16  1  1  0  0  0
 17 18  1  0  0  0  0
 17 24  1  0  0  0  0
 18 19  1  0  0  0  0
 18 25  1  1  0  0  0
 19 20  1  0  0  0  0
 19 26  1  6  0  0  0
 20 21  1  0  0  0  0
 20 23  1  1  0  0  0
 21 22  1  6  0  0  0
 21 24  1  0  0  0  0
 22 27  1  0  0  0  0
 28 12  1  1  0  0  0
 28 29  1  0  0  0  0
 28 33  1  0  0  0  0
 29 30  1  0  0  0  0
 29 36  1  6  0  0  0
 30 31  1  0  0  0  0
 30 37  1  1  0  0  0
 31 32  1  0  0  0  0
 31 34  1  6  0  0  0
 32 33  1  0  0  0  0
 33 35  1  6  0  0  0
M  END
>  <CHROM.1>
179.57268955,88.33873843,53.48484256,-178.22319152,64.06950525,-69.28004235
32.50449767,8.03064475,18.70611216,2.88540272,-0.07719512,2.75955217

>  <Name>
1yrj_lig

>  <RI>
0

>  <Rbt.Current_Directory>
/home/itssahil/PROJECTS/Mol_Feturizer/New_Systems/rnas/1yrj

>  <Rbt.Executable>
rbdock ($Id: //depot/dev/client3/rdock/2013.1/src/exe/rbdock.cxx#4 $)

>  <Rbt.Library>
libRbt.so (2013.1, Build901 2013/11/27)

>  <Rbt.Parameter_File>
/export/apps/rDock/src/rDock_2013.1_src/data/scripts/dock_solv.prm

>  <Rbt.Receptor>
prm/blind_docking_100.prm

>  <SCORE>
-15.0736

>  <SCORE.INTER>
-7.69098

>  <SCORE.INTER.CONST>
1

>  <SCORE.INTER.POLAR>
0

>  <SCORE.INTER.ROT>
6

>  <SCORE.INTER.SOLV>
9.18763

>  <SCORE.INTER.VDW>
-15.7899

>  <SCORE.INTER.norm>
-0.207864

>  <SCORE.INTRA>
-7.38315

>  <SCORE.INTRA.DIHEDRAL>
-14.2762

>  <SCORE.INTRA.DIHEDRAL.0>
15.6389

>  <SCORE.INTRA.POLAR>
0

>  <SCORE.INTRA.POLAR.0>
0

>  <SCORE.INTRA.REPUL>
0

>  <SCORE.INTRA.REPUL.0>
0

>  <SCORE.INTRA.SOLV>
-0.64403

>  <SCORE.INTRA.SOLV.lig_0>
-90.9181

>  <SCORE.INTRA.VDW>
0.0769753

>  <SCORE.INTRA.VDW.0>
-3.14158

>  <SCORE.INTRA.norm>
-0.199544

>  <SCORE.RESTR>
0.000569494

>  <SCORE.RESTR.CAVITY>
0.000569494

>  <SCORE.RESTR.norm>
1.53917e-05

>  <SCORE.SYSTEM>
0

>  <SCORE.SYSTEM.CONST>
0

>  <SCORE.SYSTEM.DIHEDRAL>
0

>  <SCORE.SYSTEM.SOLV>
0

>  <SCORE.SYSTEM.norm>
0

>  <SCORE.heavy>
37

>  <SCORE.norm>
-0.407394

>  <RMSD>
15.142

$$$$
1yrj_lig
 OpenBabel11021811423D
libRbt.so/2013.1/901 2013/11/27
 37 40  0  0  0  0  0  0  0  0999 V2000
   35.5327   10.8487   17.0921 C   0  0  1  0  0  0  0  0  0  0  0  0
   34.2293   11.6693   17.0356 C   0  0  1  0  0  0  0  0  0  0  0  0
   33.0401   10.8942   17.6251 C   0  0  0  0  0  0  0  0  0  0  0  0
   32.8915    9.5250   16.9117 C   0  0  1  0  0  0  0  0  0  0  0  0
   34.1989    8.7200   17.0372 C   0  0  1  0  0  0  0  0  0  0  0  0
   34.0157    7.3208   16.3115 C   0  0  1  0  0  0  0  0  0  0  0  0
   32.8527    6.5507   16.9579 C   0  0  1  0  0  0  0  0  0  0  0  0
   31.5774    7.4214   16.8491 C   0  0  2  0  0  0  0  0  0  0  0  0
   32.9898    4.0120   17.1642 C   0  0  0  0  0  0  0  0  0  0  0  0
   34.3705   12.9721   17.7063 N   0  0  0  0  0  0  0  0  0  0  0  0
   32.7057    5.2092   16.3128 N   0  0  0  0  0  0  0  0  0  0  0  0
   36.0952   10.7487   18.4138 O   0  0  0  0  0  0  0  0  0  0  0  0
   35.2980    9.5294   16.4732 O   0  0  0  0  0  0  0  0  0  0  0  0
   31.7806    8.7216   17.4713 O   0  0  0  0  0  0  0  0  0  0  0  0
   33.6767    7.5353   14.9574 O   0  0  0  0  0  0  0  0  0  0  0  0
   30.4559    6.8052   17.4833 O   0  0  0  0  0  0  0  0  0  0  0  0
   30.5612    6.7746   18.9261 C   0  0  2  0  0  0  0  0  0  0  0  0
   29.5199    5.8615   19.5935 C   0  0  1  0  0  0  0  0  0  0  0  0
   28.0903    6.4499   19.4578 C   0  0  2  0  0  0  0  0  0  0  0  0
   28.0448    7.8351   20.0611 C   0  0  1  0  0  0  0  0  0  0  0  0
   29.0814    8.7366   19.3495 C   0  0  1  0  0  0  0  0  0  0  0  0
   29.1375   10.1475   19.9309 C   0  0  0  0  0  0  0  0  0  0  0  0
   26.6753    8.3697   19.9128 N   0  0  0  0  0  0  0  0  0  0  0  0
   30.4238    8.1421   19.4793 O   0  0  0  0  0  0  0  0  0  0  0  0
   29.6260    4.5541   19.0116 O   0  0  0  0  0  0  0  0  0  0  0  0
   27.1562    5.6138   20.1544 O   0  0  0  0  0  0  0  0  0  0  0  0
   27.9273   10.8077   19.6711 O   0  0  0  0  0  0  0  0  0  0  0  0
   36.5556    9.4426   19.0437 C   0  0  1  0  0  0  0  0  0  0  0  0
   35.3084    8.7688   19.6573 C   0  0  1  0  0  0  0  0  0  0  0  0
   35.6607    7.3912   20.2690 C   0  0  2  0  0  0  0  0  0  0  0  0
   36.2613    6.4786   19.1931 C   0  0  1  0  0  0  0  0  0  0  0  0
   37.5358    7.1261   18.5940 C   0  0  0  0  0  0  0  0  0  0  0  0
   37.1616    8.4794   17.9804 C   0  0  2  0  0  0  0  0  0  0  0  0
   36.6059    5.1675   19.7871 N   0  0  0  0  0  0  0  0  0  0  0  0
   38.3813    9.0475   17.4127 N   0  0  0  0  0  0  0  0  0  0  0  0
   34.7805    9.6159   20.7011 O   0  0  0  0  0  0  0  0  0  0  0  0
   34.4581    6.7976   20.8039 O   0  0  0  0  0  0  0  0  0  0  0  0
  1  2  1  0  0  0  0
  1 12  1  1  0  0  0
  1 13  1  0  0  0  0
  2  3  1  0  0  0  0
  2 10  1  1  0  0  0
  4  3  1  1  0  0  0
  4  5  1  0  0  0  0
  4 14  1  0  0  0  0
  5  6  1  0  0  0  0
  5 13  1  6  0  0  0
  6  7  1  0  0  0  0
  6 15  1  6  0  0  0
  7  8  1  0  0  0  0
  7 11  1  6  0  0  0
  8 14  1  0  0  0  0
  8 16  1  1  0  0  0
  9 11  1  0  0  0  0
 17 16  1  6  0  0  0
 17 18  1  0  0  0  0
 17 24  1  0  0  0  0
 18 19  1  0  0  0  0
 18 25  1  6  0  0  0
 19 20  1  0  0  0  0
 19 26  1  1  0  0  0
 20 21  1  0  0  0  0
 20 23  1  6  0  0  0
 21 22  1  1  0  0  0
 21 24  1  0  0  0  0
 22 27  1  0  0  0  0
 28 12  1  6  0  0  0
 28 29  1  0  0  0  0
 28 33  1  0  0  0  0
 29 30  1  0  0  0  0
 29 36  1  1  0  0  0
 30 31  1  0  0  0  0
 30 37  1  6  0  0  0
 31 32  1  0  0  0  0
 31 34  1  1  0  0  0
 32 33  1  0  0  0  0
 33 35  1  1  0  0  0
M  END
>  <CHROM.1>
131.56848781,114.04086936,70.17043812,-167.79102744,-66.42201971,-83.85523923
32.78674212,8.10064795,18.40787966,0.20964817,0.16228792,-0.03237501

>  <Name>
1yrj_lig

>  <RI>
0

>  <Rbt.Current_Directory>
/home/itssahil/PROJECTS/Mol_Feturizer/New_Systems/rnas/1yrj

>  <Rbt.Executable>
rbdock ($Id: //depot/dev/client3/rdock/2013.1/src/exe/rbdock.cxx#4 $)

>  <Rbt.Library>
libRbt.so (2013.1, Build901 2013/11/27)

>  <Rbt.Parameter_File>
/export/apps/rDock/src/rDock_2013.1_src/data/scripts/dock_solv.prm

>  <Rbt.Receptor>
prm/blind_docking_100.prm

>  <SCORE>
-9.53379

>  <SCORE.INTER>
-8.75342

>  <SCORE.INTER.CONST>
1

>  <SCORE.INTER.POLAR>
0

>  <SCORE.INTER.ROT>
6

>  <SCORE.INTER.SOLV>
12.4022

>  <SCORE.INTER.VDW>
-17.5697

>  <SCORE.INTER.norm>
-0.236579

>  <SCORE.INTRA>
-0.780371

>  <SCORE.INTRA.DIHEDRAL>
-4.11657

>  <SCORE.INTRA.DIHEDRAL.0>
15.6389

>  <SCORE.INTRA.POLAR>
0

>  <SCORE.INTRA.POLAR.0>
0

>  <SCORE.INTRA.REPUL>
0

>  <SCORE.INTRA.REPUL.0>
0

>  <SCORE.INTRA.SOLV>
1.30585

>  <SCORE.INTRA.SOLV.lig_0>
-90.9181

>  <SCORE.INTRA.VDW>
0.624986

>  <SCORE.INTRA.VDW.0>
-3.14158

>  <SCORE.INTRA.norm>
-0.0210911

>  <SCORE.RESTR>
0

>  <SCORE.RESTR.CAVITY>
0

>  <SCORE.RESTR.norm>
0

>  <SCORE.SYSTEM>
0

>  <SCORE.SYSTEM.CONST>
0

>  <SCORE.SYSTEM.DIHEDRAL>
0

>  <SCORE.SYSTEM.SOLV>
0

>  <SCORE.SYSTEM.norm>
0

>  <SCORE.heavy>
37

>  <SCORE.norm>
-0.25767

>  <RMSD>
15.144

$$$$
1yrj_lig
 OpenBabel11021811423D
libRbt.so/2013.1/901 2013/11/27
 37 40  0  0  0  0  0  0  0  0999 V2000
   34.4389    7.0345   16.0273 C   0  0  1  0  0  0  0  0  0  0  0  0
   33.6366    5.7194   16.0762 C   0  0  1  0  0  0  0  0  0  0  0  0
   32.1554    5.9657   16.4046 C   0  0  0  0  0  0  0  0  0  0  0  0
   32.0299    6.7678   17.7262 C   0  0  1  0  0  0  0  0  0  0  0  0
   32.8040    8.0948   17.6135 C   0  0  1  0  0  0  0  0  0  0  0  0
   32.6487    8.9004   18.9718 C   0  0  1  0  0  0  0  0  0  0  0  0
   31.1607    9.1741   19.2442 C   0  0  1  0  0  0  0  0  0  0  0  0
   30.4218    7.8149   19.2990 C   0  0  2  0  0  0  0  0  0  0  0  0
   30.3742   11.3259   20.3657 C   0  0  0  0  0  0  0  0  0  0  0  0
   33.7600    4.9535   14.8251 N   0  0  0  0  0  0  0  0  0  0  0  0
   31.0086    9.9770   20.4970 N   0  0  0  0  0  0  0  0  0  0  0  0
   34.1826    7.8240   14.8509 O   0  0  0  0  0  0  0  0  0  0  0  0
   34.2085    7.7856   17.2769 O   0  0  0  0  0  0  0  0  0  0  0  0
   30.6200    7.0650   18.0671 O   0  0  0  0  0  0  0  0  0  0  0  0
   33.1343    8.1158   20.0410 O   0  0  0  0  0  0  0  0  0  0  0  0
   29.0158    7.9799   19.4875 O   0  0  0  0  0  0  0  0  0  0  0  0
   28.4761    7.1346   20.5304 C   0  0  2  0  0  0  0  0  0  0  0  0
   28.4374    5.6459   20.1488 C   0  0  1  0  0  0  0  0  0  0  0  0
   27.3854    5.3796   19.0394 C   0  0  2  0  0  0  0  0  0  0  0  0
   26.0229    5.8442   19.5002 C   0  0  1  0  0  0  0  0  0  0  0  0
   26.0874    7.3503   19.8480 C   0  0  1  0  0  0  0  0  0  0  0  0
   24.7600    7.8948   20.3710 C   0  0  0  0  0  0  0  0  0  0  0  0
   25.0457    5.5823   18.4232 N   0  0  0  0  0  0  0  0  0  0  0  0
   27.1071    7.5731   20.8887 O   0  0  0  0  0  0  0  0  0  0  0  0
   29.7573    5.2464   19.7521 O   0  0  0  0  0  0  0  0  0  0  0  0
   27.3224    3.9739   18.7615 O   0  0  0  0  0  0  0  0  0  0  0  0
   24.9067    9.2525   20.6921 O   0  0  0  0  0  0  0  0  0  0  0  0
   35.0969    8.9360   14.3591 C   0  0  1  0  0  0  0  0  0  0  0  0
   35.3867    9.8544   15.5668 C   0  0  1  0  0  0  0  0  0  0  0  0
   36.3693   10.9879   15.1848 C   0  0  2  0  0  0  0  0  0  0  0  0
   37.6827   10.3899   14.6667 C   0  0  1  0  0  0  0  0  0  0  0  0
   37.4112    9.4945   13.4309 C   0  0  0  0  0  0  0  0  0  0  0  0
   36.4505    8.3713   13.8352 C   0  0  2  0  0  0  0  0  0  0  0  0
   38.6129   11.4787   14.2929 N   0  0  0  0  0  0  0  0  0  0  0  0
   36.2345    7.5421   12.6525 N   0  0  0  0  0  0  0  0  0  0  0  0
   34.1489   10.4482   16.0153 O   0  0  0  0  0  0  0  0  0  0  0  0
   36.6231   11.7979   16.3528 O   0  0  0  0  0  0  0  0  0  0  0  0
  1  2  1  0  0  0  0
  1 12  1  6  0  0  0
  1 13  1  0  0  0  0
  2  3  1  0  0  0  0
  2 10  1  6  0  0  0
  4  3  1  6  0  0  0
  4  5  1  0  0  0  0
  4 14  1  0  0  0  0
  5  6  1  0  0  0  0
  5 13  1  1  0  0  0
  6  7  1  0  0  0  0
  6 15  1  1  0  0  0
  7  8  1  0  0  0  0
  7 11  1  1  0  0  0
  8 14  1  0  0  0  0
  8 16  1  6  0  0  0
  9 11  1  0  0  0  0
 17 16  1  6  0  0  0
 17 18  1  0  0  0  0
 17 24  1  0  0  0  0
 18 19  1  0  0  0  0
 18 25  1  6  0  0  0
 19 20  1  0  0  0  0
 19 26  1  1  0  0  0
 20 21  1  0  0  0  0
 20 23  1  6  0  0  0
 21 22  1  1  0  0  0
 21 24  1  0  0  0  0
 22 27  1  0  0  0  0
 28 12  1  1  0  0  0
 28 29  1  0  0  0  0
 28 33  1  0  0  0  0
 29 30  1  0  0  0  0
 29 36  1  6  0  0  0
 30 31  1  0  0  0  0
 30 37  1  1  0  0  0
 31 32  1  0  0  0  0
 31 34  1  6  0  0  0
 32 33  1  0  0  0  0
 33 35  1  6  0  0  0
M  END
>  <CHROM.1>
-162.00532481,118.53986065,-131.89434587,-70.88378309,178.64172341,-49.91628920
31.71168902,7.97249445,17.63785559,0.02522171,-0.54776610,-2.63467918

>  <Name>
1yrj_lig

>  <RI>
0

>  <Rbt.Current_Directory>
/home/itssahil/PROJECTS/Mol_Feturizer/New_Systems/rnas/1yrj

>  <Rbt.Executable>
rbdock ($Id: //depot/dev/client3/rdock/2013.1/src/exe/rbdock.cxx#4 $)

>  <Rbt.Library>
libRbt.so (2013.1, Build901 2013/11/27)

>  <Rbt.Parameter_File>
/export/apps/rDock/src/rDock_2013.1_src/data/scripts/dock_solv.prm

>  <Rbt.Receptor>
prm/blind_docking_100.prm

>  <SCORE>
-17.2437

>  <SCORE.INTER>
-14.4913

>  <SCORE.INTER.CONST>
1

>  <SCORE.INTER.POLAR>
-1.66139

>  <SCORE.INTER.ROT>
6

>  <SCORE.INTER.SOLV>
14.0135

>  <SCORE.INTER.VDW>
-16.3941

>  <SCORE.INTER.norm>
-0.391657

>  <SCORE.INTRA>
-2.78545

>  <SCORE.INTRA.DIHEDRAL>
-5.31606

>  <SCORE.INTRA.DIHEDRAL.0>
15.6389

>  <SCORE.INTRA.POLAR>
0

>  <SCORE.INTRA.POLAR.0>
0

>  <SCORE.INTRA.REPUL>
0

>  <SCORE.INTRA.REPUL.0>
0

>  <SCORE.INTRA.SOLV>
-1.07908

>  <SCORE.INTRA.SOLV.lig_0>
-90.9181

>  <SCORE.INTRA.VDW>
0.412124

>  <SCORE.INTRA.VDW.0>
-3.14158

>  <SCORE.INTRA.norm>
-0.0752823

>  <SCORE.RESTR>
0.0330168

>  <SCORE.RESTR.CAVITY>
0.0330168

>  <SCORE.RESTR.norm>
0.000892347

>  <SCORE.SYSTEM>
0

>  <SCORE.SYSTEM.CONST>
0

>  <SCORE.SYSTEM.DIHEDRAL>
0

>  <SCORE.SYSTEM.SOLV>
0

>  <SCORE.SYSTEM.norm>
0

>  <SCORE.heavy>
37

>  <SCORE.norm>
-0.466047

>  <RMSD>
15.145

$$$$
1yrj_lig
 OpenBabel11021811423D
libRbt.so/2013.1/901 2013/11/27
 37 40  0  0  0  0  0  0  0  0999 V2000
   29.4261    9.9479   19.9552 C   0  0  1  0  0  0  0  0  0  0  0  0
   30.1800   11.2908   19.8933 C   0  0  1  0  0  0  0  0  0  0  0  0
   31.3492   11.2443   18.8967 C   0  0  0  0  0  0  0  0  0  0  0  0
   32.2965   10.0659   19.2428 C   0  0  1  0  0  0  0  0  0  0  0  0
   31.5115    8.7405   19.2435 C   0  0  1  0  0  0  0  0  0  0  0  0
   32.5050    7.5518   19.5870 C   0  0  1  0  0  0  0  0  0  0  0  0
   33.6327    7.5016   18.5433 C   0  0  1  0  0  0  0  0  0  0  0  0
   34.3565    8.8700   18.5483 C   0  0  2  0  0  0  0  0  0  0  0  0
   35.2566    5.7419   17.6643 C   0  0  0  0  0  0  0  0  0  0  0  0
   29.2812   12.4114   19.5716 N   0  0  0  0  0  0  0  0  0  0  0  0
   34.5458    6.3524   18.8310 N   0  0  0  0  0  0  0  0  0  0  0  0
   28.5964    9.6979   18.8053 O   0  0  0  0  0  0  0  0  0  0  0  0
   30.3954    8.8627   20.2031 O   0  0  0  0  0  0  0  0  0  0  0  0
   33.4211    9.9542   18.2861 O   0  0  0  0  0  0  0  0  0  0  0  0
   33.1051    7.7899   20.8431 O   0  0  0  0  0  0  0  0  0  0  0  0
   35.3846    8.9325   17.5590 O   0  0  0  0  0  0  0  0  0  0  0  0
   36.1068   10.1863   17.5641 C   0  0  2  0  0  0  0  0  0  0  0  0
   36.4444   10.7005   16.1551 C   0  0  1  0  0  0  0  0  0  0  0  0
   37.5073    9.8005   15.4706 C   0  0  2  0  0  0  0  0  0  0  0  0
   38.7533    9.7359   16.3239 C   0  0  1  0  0  0  0  0  0  0  0  0
   38.3863    9.1879   17.7233 C   0  0  1  0  0  0  0  0  0  0  0  0
   39.5826    9.1342   18.6708 C   0  0  0  0  0  0  0  0  0  0  0  0
   39.7427    8.8701   15.6496 N   0  0  0  0  0  0  0  0  0  0  0  0
   37.3626   10.0516   18.3385 O   0  0  0  0  0  0  0  0  0  0  0  0
   35.2279   10.7754   15.3978 O   0  0  0  0  0  0  0  0  0  0  0  0
   37.8535   10.3499   14.1918 O   0  0  0  0  0  0  0  0  0  0  0  0
   40.0523   10.4354   18.9036 O   0  0  0  0  0  0  0  0  0  0  0  0
   27.7623    8.4396   18.6179 C   0  0  1  0  0  0  0  0  0  0  0  0
   28.7455    7.2526   18.5167 C   0  0  1  0  0  0  0  0  0  0  0  0
   27.9886    5.9082   18.3907 C   0  0  2  0  0  0  0  0  0  0  0  0
   27.0669    5.7108   19.6000 C   0  0  1  0  0  0  0  0  0  0  0  0
   26.0499    6.8769   19.6926 C   0  0  0  0  0  0  0  0  0  0  0  0
   26.8193    8.1945   19.8330 C   0  0  2  0  0  0  0  0  0  0  0  0
   26.3383    4.4293   19.4677 N   0  0  0  0  0  0  0  0  0  0  0  0
   25.8292    9.2633   19.9349 N   0  0  0  0  0  0  0  0  0  0  0  0
   29.5756    7.4263   17.3476 O   0  0  0  0  0  0  0  0  0  0  0  0
   28.9525    4.8352   18.3250 O   0  0  0  0  0  0  0  0  0  0  0  0
  1  2  1  0  0  0  0
  1 12  1  6  0  0  0
  1 13  1  0  0  0  0
  2  3  1  0  0  0  0
  2 10  1  6  0  0  0
  4  3  1  6  0  0  0
  4  5  1  0  0  0  0
  4 14  1  0  0  0  0
  5  6  1  0  0  0  0
  5 13  1  1  0  0  0
  6  7  1  0  0  0  0
  6 15  1  1  0  0  0
  7  8  1  0  0  0  0
  7 11  1  1  0  0  0
  8 14  1  0  0  0  0
  8 16  1  6  0  0  0
  9 11  1  0  0  0  0
 17 16  1  6  0  0  0
 17 18  1  0  0  0  0
 17 24  1  0  0  0  0
 18 19  1  0  0  0  0
 18 25  1  6  0  0  0
 19 20  1  0  0  0  0
 19 26  1  6  0  0  0
 20 21  1  0  0  0  0
 20 23  1  6  0  0  0
 21 22  1  1  0  0  0
 21 24  1  0  0  0  0
 22 27  1  0  0  0  0
 28 12  1  1  0  0  0
 28 29  1  0  0  0  0
 28 33  1  0  0  0  0
 29 30  1  0  0  0  0
 29 36  1  6  0  0  0
 30 31  1  0  0  0  0
 30 37  1  1  0  0  0
 31 32  1  0  0  0  0
 31 34  1  6  0  0  0
 32 33  1  0  0  0  0
 33 35  1  6  0  0  0
M  END
>  <CHROM.1>
179.37516255,151.48588491,-178.30532847,-140.52511331,63.56042319,-64.17235227
32.68891366,8.72154434,18.35490077,2.96330452,-0.23684925,-3.08177991

>  <Name>
1yrj_lig

>  <RI>
0

>  <Rbt.Current_Directory>
/home/itssahil/PROJECTS/Mol_Feturizer/New_Systems/rnas/1yrj

>  <Rbt.Executable>
rbdock ($Id: //depot/dev/client3/rdock/2013.1/src/exe/rbdock.cxx#4 $)

>  <Rbt.Library>
libRbt.so (2013.1, Build901 2013/11/27)

>  <Rbt.Parameter_File>
/export/apps/rDock/src/rDock_2013.1_src/data/scripts/dock_solv.prm

>  <Rbt.Receptor>
prm/blind_docking_100.prm

>  <SCORE>
-12.8834

>  <SCORE.INTER>
-7.29368

>  <SCORE.INTER.CONST>
1

>  <SCORE.INTER.POLAR>
0

>  <SCORE.INTER.ROT>
6

>  <SCORE.INTER.SOLV>
10.1156

>  <SCORE.INTER.VDW>
-15.8343

>  <SCORE.INTER.norm>
-0.197127

>  <SCORE.INTRA>
-5.58968

>  <SCORE.INTRA.DIHEDRAL>
-9.53436

>  <SCORE.INTRA.DIHEDRAL.0>
15.6389

>  <SCORE.INTRA.POLAR>
0

>  <SCORE.INTRA.POLAR.0>
0

>  <SCORE.INTRA.REPUL>
0

>  <SCORE.INTRA.REPUL.0>
0

>  <SCORE.INTRA.SOLV>
-1.31124

>  <SCORE.INTRA.SOLV.lig_0>
-90.9181

>  <SCORE.INTRA.VDW>
-0.166879

>  <SCORE.INTRA.VDW.0>
-3.14158

>  <SCORE.INTRA.norm>
-0.151072

>  <SCORE.RESTR>
0

>  <SCORE.RESTR.CAVITY>
0

>  <SCORE.RESTR.norm>
0

>  <SCORE.SYSTEM>
0

>  <SCORE.SYSTEM.CONST>
0

>  <SCORE.SYSTEM.DIHEDRAL>
0

>  <SCORE.SYSTEM.SOLV>
0

>  <SCORE.SYSTEM.norm>
0

>  <SCORE.heavy>
37

>  <SCORE.norm>
-0.348199

>  <RMSD>
15.159

$$$$
1yrj_lig
 OpenBabel11021811423D
libRbt.so/2013.1/901 2013/11/27
 37 40  0  0  0  0  0  0  0  0999 V2000
   36.6206    6.0194   19.3838 C   0  0  1  0  0  0  0  0  0  0  0  0
   35.6686    4.8919   19.8287 C   0  0  1  0  0  0  0  0  0  0  0  0
   34.2260    5.1451   19.3626 C   0  0  0  0  0  0  0  0  0  0  0  0
   33.7443    6.5349   19.8545 C   0  0  1  0  0  0  0  0  0  0  0  0
   34.6958    7.6339   19.3447 C   0  0  1  0  0  0  0  0  0  0  0  0
   34.1738    9.0446   19.8503 C   0  0  1  0  0  0  0  0  0  0  0  0
   32.7497    9.2882   19.3249 C   0  0  1  0  0  0  0  0  0  0  0  0
   31.8470    8.1335   19.8231 C   0  0  2  0  0  0  0  0  0  0  0  0
   31.2498   11.3041   18.8855 C   0  0  0  0  0  0  0  0  0  0  0  0
   36.1278    3.5711   19.3686 N   0  0  0  0  0  0  0  0  0  0  0  0
   32.2692   10.6378   19.7550 N   0  0  0  0  0  0  0  0  0  0  0  0
   36.9384    5.9864   17.9799 O   0  0  0  0  0  0  0  0  0  0  0  0
   36.0615    7.3174   19.8095 O   0  0  0  0  0  0  0  0  0  0  0  0
   32.3701    6.8435   19.3973 O   0  0  0  0  0  0  0  0  0  0  0  0
   34.1067    9.0421   21.2610 O   0  0  0  0  0  0  0  0  0  0  0  0
   30.5128    8.2481   19.3269 O   0  0  0  0  0  0  0  0  0  0  0  0
   29.6499    7.1679   19.7534 C   0  0  2  0  0  0  0  0  0  0  0  0
   29.0690    6.3547   18.5851 C   0  0  1  0  0  0  0  0  0  0  0  0
   28.0431    7.1918   17.7758 C   0  0  2  0  0  0  0  0  0  0  0  0
   26.9379    7.6728   18.6879 C   0  0  1  0  0  0  0  0  0  0  0  0
   27.5505    8.5112   19.8347 C   0  0  1  0  0  0  0  0  0  0  0  0
   26.5053    8.9993   20.8353 C   0  0  0  0  0  0  0  0  0  0  0  0
   25.9814    8.4689   17.8912 N   0  0  0  0  0  0  0  0  0  0  0  0
   28.5332    7.6961   20.5712 O   0  0  0  0  0  0  0  0  0  0  0  0
   30.1567    5.8940   17.7703 O   0  0  0  0  0  0  0  0  0  0  0  0
   27.4668    6.3811   16.7425 O   0  0  0  0  0  0  0  0  0  0  0  0
   25.8924    7.8950   21.4460 O   0  0  0  0  0  0  0  0  0  0  0  0
   37.1689    7.2286   17.1324 C   0  0  1  0  0  0  0  0  0  0  0  0
   38.4991    7.8588   17.6009 C   0  0  1  0  0  0  0  0  0  0  0  0
   38.8604    9.1002   16.7497 C   0  0  2  0  0  0  0  0  0  0  0  0
   38.9698    8.7079   15.2715 C   0  0  1  0  0  0  0  0  0  0  0  0
   37.6289    8.1074   14.7775 C   0  0  0  0  0  0  0  0  0  0  0  0
   37.2991    6.8720   15.6219 C   0  0  2  0  0  0  0  0  0  0  0  0
   39.3045    9.9012   14.4625 N   0  0  0  0  0  0  0  0  0  0  0  0
   36.0425    6.3266   15.1156 N   0  0  0  0  0  0  0  0  0  0  0  0
   38.3673    8.2671   18.9799 O   0  0  0  0  0  0  0  0  0  0  0  0
   40.1201    9.6323   17.2132 O   0  0  0  0  0  0  0  0  0  0  0  0
  1  2  1  0  0  0  0
  1 12  1  6  0  0  0
  1 13  1  0  0  0  0
  2  3  1  0  0  0  0
  2 10  1  6  0  0  0
  4  3  1  6  0  0  0
  4  5  1  0  0  0  0
  4 14  1  0  0  0  0
  5  6  1  0  0  0  0
  5 13  1  1  0  0  0
  6  7  1  0  0  0  0
  6 15  1  1  0  0  0
  7  8  1  0  0  0  0
  7 11  1  1  0  0  0
  8 14  1  0  0  0  0
  8 16  1  6  0  0  0
  9 11  1  0  0  0  0
 17 16  1  6  0  0  0
 17 18  1  0  0  0  0
 17 24  1  0  0  0  0
 18 19  1  0  0  0  0
 18 25  1  6  0  0  0
 19 20  1  0  0  0  0
 19 26  1  6  0  0  0
 20 21  1  0  0  0  0
 20 23  1  6  0  0  0
 21 22  1  1  0  0  0
 21 24  1  0  0  0  0
 22 27  1  0  0  0  0
 28 12  1  1  0  0  0
 28 29  1  0  0  0  0
 28 33  1  0  0  0  0
 29 30  1  0  0  0  0
 29 36  1  1  0  0  0
 30 31  1  0  0  0  0
 30 37  1  1  0  0  0
 31 32  1  0  0  0  0
 31 34  1  6  0  0  0
 32 33  1  0  0  0  0
 33 35  1  6  0  0  0
M  END
>  <CHROM.1>
145.68794965,152.82640480,178.83427931,-119.71505054,62.16033404,69.36955366
33.24526945,7.67908849,18.55084479,-0.07506662,-0.21207058,2.78401617

>  <Name>
1yrj_lig

>  <RI>
224

>  <Rbt.Current_Directory>
/home/itssahil/PROJECTS/Mol_Feturizer/New_Systems/rnas/1yrj

>  <Rbt.Executable>
rbdock ($Id: //depot/dev/client3/rdock/2013.1/src/exe/rbdock.cxx#4 $)

>  <Rbt.Library>
libRbt.so (2013.1, Build901 2013/11/27)

>  <Rbt.Parameter_File>
/export/apps/rDock/src/rDock_2013.1_src/data/scripts/dock_solv.prm

>  <Rbt.Receptor>
prm/blind_docking_80.prm

>  <SCORE>
-9.6787

>  <SCORE.INTER>
-7.66277

>  <SCORE.INTER.CONST>
1

>  <SCORE.INTER.POLAR>
-0.737928

>  <SCORE.INTER.ROT>
6

>  <SCORE.INTER.SOLV>
15.1698

>  <SCORE.INTER.VDW>
-15.3053

>  <SCORE.INTER.norm>
-0.207102

>  <SCORE.INTRA>
-2.04093

>  <SCORE.INTRA.DIHEDRAL>
-3.07959

>  <SCORE.INTRA.DIHEDRAL.0>
15.6389

>  <SCORE.INTRA.POLAR>
0

>  <SCORE.INTRA.POLAR.0>
0

>  <SCORE.INTRA.REPUL>
0

>  <SCORE.INTRA.REPUL.0>
0

>  <SCORE.INTRA.SOLV>
-1.77861

>  <SCORE.INTRA.SOLV.lig_0>
-90.9181

>  <SCORE.INTRA.VDW>
0.388167

>  <SCORE.INTRA.VDW.0>
-3.14158

>  <SCORE.INTRA.norm>
-0.0551603

>  <SCORE.RESTR>
0.0250006

>  <SCORE.RESTR.CAVITY>
0.0250006

>  <SCORE.RESTR.norm>
0.000675692

>  <SCORE.SYSTEM>
0

>  <SCORE.SYSTEM.CONST>
0

>  <SCORE.SYSTEM.DIHEDRAL>
0

>  <SCORE.SYSTEM.SOLV>
0

>  <SCORE.SYSTEM.norm>
0

>  <SCORE.heavy>
37

>  <SCORE.norm>
-0.261587

>  <RMSD>
15.163

$$$$
1yrj_lig
 OpenBabel11021811423D
libRbt.so/2013.1/901 2013/11/27
 37 40  0  0  0  0  0  0  0  0999 V2000
   29.8571    9.3568   19.9001 C   0  0  1  0  0  0  0  0  0  0  0  0
   30.5556   10.7180   20.0860 C   0  0  1  0  0  0  0  0  0  0  0  0
   31.9974   10.6978   19.5538 C   0  0  0  0  0  0  0  0  0  0  0  0
   32.7937    9.5448   20.2189 C   0  0  1  0  0  0  0  0  0  0  0  0
   32.0867    8.2000   19.9647 C   0  0  1  0  0  0  0  0  0  0  0  0
   32.9274    7.0379   20.6434 C   0  0  1  0  0  0  0  0  0  0  0  0
   34.3466    7.0128   20.0529 C   0  0  1  0  0  0  0  0  0  0  0  0
   34.9932    8.3990   20.2908 C   0  0  2  0  0  0  0  0  0  0  0  0
   35.8681    4.9956   19.7031 C   0  0  0  0  0  0  0  0  0  0  0  0
   29.7978   11.8146   19.4612 N   0  0  0  0  0  0  0  0  0  0  0  0
   35.1303    5.8878   20.6510 N   0  0  0  0  0  0  0  0  0  0  0  0
   29.4806    9.0822   18.5378 O   0  0  0  0  0  0  0  0  0  0  0  0
   30.7058    8.2972   20.4795 O   0  0  0  0  0  0  0  0  0  0  0  0
   34.1814    9.4584   19.7097 O   0  0  0  0  0  0  0  0  0  0  0  0
   33.0522    7.2951   22.0265 O   0  0  0  0  0  0  0  0  0  0  0  0
   36.2977    8.4842   19.7157 O   0  0  0  0  0  0  0  0  0  0  0  0
   36.3033    8.2923   18.2815 C   0  0  2  0  0  0  0  0  0  0  0  0
   37.7005    7.9972   17.7120 C   0  0  1  0  0  0  0  0  0  0  0  0
   38.6172    9.2461   17.8025 C   0  0  2  0  0  0  0  0  0  0  0  0
   37.9807   10.4055   17.0708 C   0  0  1  0  0  0  0  0  0  0  0  0
   36.5911   10.6966   17.6855 C   0  0  1  0  0  0  0  0  0  0  0  0
   35.8531   11.8274   16.9725 C   0  0  0  0  0  0  0  0  0  0  0  0
   38.8729   11.5785   17.1786 N   0  0  0  0  0  0  0  0  0  0  0  0
   35.7519    9.4878   17.6021 O   0  0  0  0  0  0  0  0  0  0  0  0
   38.2463    6.8713   18.4145 O   0  0  0  0  0  0  0  0  0  0  0  0
   39.8847    8.9593   17.1957 O   0  0  0  0  0  0  0  0  0  0  0  0
   35.6630   11.4842   15.6256 O   0  0  0  0  0  0  0  0  0  0  0  0
   28.6270    7.8957   18.1157 C   0  0  1  0  0  0  0  0  0  0  0  0
   29.4085    6.6169   18.4900 C   0  0  1  0  0  0  0  0  0  0  0  0
   28.5905    5.3447   18.1603 C   0  0  2  0  0  0  0  0  0  0  0  0
   27.2554    5.3706   18.9140 C   0  0  1  0  0  0  0  0  0  0  0  0
   26.4438    6.6310   18.5199 C   0  0  0  0  0  0  0  0  0  0  0  0
   27.2642    7.8771   18.8693 C   0  0  2  0  0  0  0  0  0  0  0  0
   26.4740    4.1574   18.5858 N   0  0  0  0  0  0  0  0  0  0  0  0
   26.4608    9.0396   18.5007 N   0  0  0  0  0  0  0  0  0  0  0  0
   30.6411    6.5807   17.7382 O   0  0  0  0  0  0  0  0  0  0  0  0
   29.3554    4.1845   18.5519 O   0  0  0  0  0  0  0  0  0  0  0  0
  1  2  1  0  0  0  0
  1 12  1  6  0  0  0
  1 13  1  0  0  0  0
  2  3  1  0  0  0  0
  2 10  1  6  0  0  0
  4  3  1  6  0  0  0
  4  5  1  0  0  0  0
  4 14  1  0  0  0  0
  5  6  1  0  0  0  0
  5 13  1  1  0  0  0
  6  7  1  0  0  0  0
  6 15  1  1  0  0  0
  7  8  1  0  0  0  0
  7 11  1  1  0  0  0
  8 14  1  0  0  0  0
  8 16  1  6  0  0  0
  9 11  1  0  0  0  0
 17 16  1  1  0  0  0
 17 18  1  0  0  0  0
 17 24  1  0  0  0  0
 18 19  1  0  0  0  0
 18 25  1  1  0  0  0
 19 20  1  0  0  0  0
 19 26  1  6  0  0  0
 20 21  1  0  0  0  0
 20 23  1  1  0  0  0
 21 22  1  6  0  0  0
 21 24  1  0  0  0  0
 22 27  1  0  0  0  0
 28 12  1  1  0  0  0
 28 29  1  0  0  0  0
 28 33  1  0  0  0  0
 29 30  1  0  0  0  0
 29 36  1  6  0  0  0
 30 31  1  0  0  0  0
 30 37  1  1  0  0  0
 31 32  1  0  0  0  0
 31 34  1  6  0  0  0
 32 33  1  0  0  0  0
 33 35  1  6  0  0  0
M  END
>  <CHROM.1>
-171.98621636,131.33355122,60.73249726,-164.12044595,59.98645514,-62.34704012
32.92203175,8.28419604,18.82905621,2.87425973,-0.04349978,2.91318988

>  <Name>
1yrj_lig

>  <RI>
0

>  <Rbt.Current_Directory>
/home/itssahil/PROJECTS/Mol_Feturizer/New_Systems/rnas/1yrj

>  <Rbt.Executable>
rbdock ($Id: //depot/dev/client3/rdock/2013.1/src/exe/rbdock.cxx#4 $)

>  <Rbt.Library>
libRbt.so (2013.1, Build901 2013/11/27)

>  <Rbt.Parameter_File>
/export/apps/rDock/src/rDock_2013.1_src/data/scripts/dock_solv.prm

>  <Rbt.Receptor>
prm/blind_docking_100.prm

>  <SCORE>
-15.2685

>  <SCORE.INTER>
-8.36222

>  <SCORE.INTER.CONST>
1

>  <SCORE.INTER.POLAR>
0

>  <SCORE.INTER.ROT>
6

>  <SCORE.INTER.SOLV>
10.2154

>  <SCORE.INTER.VDW>
-16.5799

>  <SCORE.INTER.norm>
-0.226006

>  <SCORE.INTRA>
-6.92084

>  <SCORE.INTRA.DIHEDRAL>
-12.9225

>  <SCORE.INTRA.DIHEDRAL.0>
15.6389

>  <SCORE.INTRA.POLAR>
0

>  <SCORE.INTRA.POLAR.0>
0

>  <SCORE.INTRA.REPUL>
0

>  <SCORE.INTRA.REPUL.0>
0

>  <SCORE.INTRA.SOLV>
-0.436399

>  <SCORE.INTRA.SOLV.lig_0>
-90.9181

>  <SCORE.INTRA.VDW>
-0.241391

>  <SCORE.INTRA.VDW.0>
-3.14158

>  <SCORE.INTRA.norm>
-0.18705

>  <SCORE.RESTR>
0.0145417

>  <SCORE.RESTR.CAVITY>
0.0145417

>  <SCORE.RESTR.norm>
0.000393019

>  <SCORE.SYSTEM>
0

>  <SCORE.SYSTEM.CONST>
0

>  <SCORE.SYSTEM.DIHEDRAL>
0

>  <SCORE.SYSTEM.SOLV>
0

>  <SCORE.SYSTEM.norm>
0

>  <SCORE.heavy>
37

>  <SCORE.norm>
-0.412663

>  <RMSD>
15.170

$$$$
1yrj_lig
 OpenBabel11021811423D
libRbt.so/2013.1/901 2013/11/27
 37 40  0  0  0  0  0  0  0  0999 V2000
   34.0602    7.2627   17.0696 C   0  0  1  0  0  0  0  0  0  0  0  0
   33.4329    5.8645   16.9051 C   0  0  1  0  0  0  0  0  0  0  0  0
   31.9063    5.9386   16.7435 C   0  0  0  0  0  0  0  0  0  0  0  0
   31.2826    6.7146   17.9328 C   0  0  1  0  0  0  0  0  0  0  0  0
   31.9021    8.1218   18.0275 C   0  0  1  0  0  0  0  0  0  0  0  0
   31.2384    8.8978   19.2422 C   0  0  1  0  0  0  0  0  0  0  0  0
   29.7199    8.9986   19.0244 C   0  0  1  0  0  0  0  0  0  0  0  0
   29.1554    7.5637   18.8869 C   0  0  2  0  0  0  0  0  0  0  0  0
   27.9038   10.6143   19.7977 C   0  0  0  0  0  0  0  0  0  0  0  0
   34.0284    5.1237   15.7809 N   0  0  0  0  0  0  0  0  0  0  0  0
   29.0928    9.7728   20.1401 N   0  0  0  0  0  0  0  0  0  0  0  0
   34.1035    8.0236   15.8480 O   0  0  0  0  0  0  0  0  0  0  0  0
   33.3659    7.9764   18.1592 O   0  0  0  0  0  0  0  0  0  0  0  0
   29.8135    6.8474   17.8039 O   0  0  0  0  0  0  0  0  0  0  0  0
   31.4445    8.1684   20.4339 O   0  0  0  0  0  0  0  0  0  0  0  0
   27.7527    7.5664   18.6187 O   0  0  0  0  0  0  0  0  0  0  0  0
   27.0253    6.5674   19.3713 C   0  0  2  0  0  0  0  0  0  0  0  0
   27.2522    6.6633   20.8889 C   0  0  1  0  0  0  0  0  0  0  0  0
   28.7016    6.2558   21.2650 C   0  0  2  0  0  0  0  0  0  0  0  0
   28.9860    4.8547   20.7740 C   0  0  1  0  0  0  0  0  0  0  0  0
   28.7779    4.7982   19.2420 C   0  0  1  0  0  0  0  0  0  0  0  0
   28.9979    3.4014   18.6655 C   0  0  0  0  0  0  0  0  0  0  0  0
   30.3718    4.4978   21.1421 N   0  0  0  0  0  0  0  0  0  0  0  0
   27.4003    5.2085   18.9158 O   0  0  0  0  0  0  0  0  0  0  0  0
   26.9375    7.9986   21.3095 O   0  0  0  0  0  0  0  0  0  0  0  0
   28.8563    6.2839   22.6905 O   0  0  0  0  0  0  0  0  0  0  0  0
   28.1345    2.4943   19.2978 O   0  0  0  0  0  0  0  0  0  0  0  0
   35.0558    9.1847   15.6045 C   0  0  1  0  0  0  0  0  0  0  0  0
   34.7731   10.2416   16.6950 C   0  0  1  0  0  0  0  0  0  0  0  0
   35.7425   11.4424   16.5751 C   0  0  2  0  0  0  0  0  0  0  0  0
   37.1927   10.9584   16.6918 C   0  0  1  0  0  0  0  0  0  0  0  0
   37.5017    9.9237   15.5798 C   0  0  0  0  0  0  0  0  0  0  0  0
   36.5427    8.7378   15.7270 C   0  0  2  0  0  0  0  0  0  0  0  0
   38.1142   12.1096   16.5653 N   0  0  0  0  0  0  0  0  0  0  0  0
   36.8765    7.7802   14.6761 N   0  0  0  0  0  0  0  0  0  0  0  0
   33.4200   10.7238   16.5445 O   0  0  0  0  0  0  0  0  0  0  0  0
   35.4505   12.3840   17.6299 O   0  0  0  0  0  0  0  0  0  0  0  0
  1  2  1  0  0  0  0
  1 12  1  6  0  0  0
  1 13  1  0  0  0  0
  2  3  1  0  0  0  0
  2 10  1  6  0  0  0
  4  3  1  6  0  0  0
  4  5  1  0  0  0  0
  4 14  1  0  0  0  0
  5  6  1  0  0  0  0
  5 13  1  1  0  0  0
  6  7  1  0  0  0  0
  6 15  1  1  0  0  0
  7  8  1  0  0  0  0
  7 11  1  1  0  0  0
  8 14  1  0  0  0  0
  8 16  1  6  0  0  0
  9 11  1  0  0  0  0
 17 16  1  6  0  0  0
 17 18  1  0  0  0  0
 17 24  1  0  0  0  0
 18 19  1  0  0  0  0
 18 25  1  6  0  0  0
 19 20  1  0  0  0  0
 19 26  1  1  0  0  0
 20 21  1  0  0  0  0
 20 23  1  6  0  0  0
 21 22  1  1  0  0  0
 21 24  1  0  0  0  0
 22 27  1  0  0  0  0
 28 12  1  1  0  0  0
 28 29  1  0  0  0  0
 28 33  1  0  0  0  0
 29 30  1  0  0  0  0
 29 36  1  6  0  0  0
 30 31  1  0  0  0  0
 30 37  1  1  0  0  0
 31 32  1  0  0  0  0
 31 34  1  6  0  0  0
 32 33  1  0  0  0  0
 33 35  1  6  0  0  0
M  END
>  <CHROM.1>
-158.29285902,146.57852622,-137.63016637,54.76596891,57.35239283,-59.09730087
31.62769851,7.72593244,18.30533808,-0.31059470,-0.54147507,-2.90425498

>  <Name>
1yrj_lig

>  <RI>
224

>  <Rbt.Current_Directory>
/home/itssahil/PROJECTS/Mol_Feturizer/New_Systems/rnas/1yrj

>  <Rbt.Executable>
rbdock ($Id: //depot/dev/client3/rdock/2013.1/src/exe/rbdock.cxx#4 $)

>  <Rbt.Library>
libRbt.so (2013.1, Build901 2013/11/27)

>  <Rbt.Parameter_File>
/export/apps/rDock/src/rDock_2013.1_src/data/scripts/dock_solv.prm

>  <Rbt.Receptor>
prm/blind_docking_80.prm

>  <SCORE>
-7.74812

>  <SCORE.INTER>
-7.70944

>  <SCORE.INTER.CONST>
1

>  <SCORE.INTER.POLAR>
-0.749114

>  <SCORE.INTER.ROT>
6

>  <SCORE.INTER.SOLV>
10.6346

>  <SCORE.INTER.VDW>
-13.7874

>  <SCORE.INTER.norm>
-0.208363

>  <SCORE.INTRA>
-0.766173

>  <SCORE.INTRA.DIHEDRAL>
-6.86431

>  <SCORE.INTRA.DIHEDRAL.0>
15.6389

>  <SCORE.INTRA.POLAR>
0

>  <SCORE.INTRA.POLAR.0>
0

>  <SCORE.INTRA.REPUL>
0

>  <SCORE.INTRA.REPUL.0>
0

>  <SCORE.INTRA.SOLV>
2.8046

>  <SCORE.INTRA.SOLV.lig_0>
-90.9181

>  <SCORE.INTRA.VDW>
1.26368

>  <SCORE.INTRA.VDW.0>
-3.14158

>  <SCORE.INTRA.norm>
-0.0207074

>  <SCORE.RESTR>
0.727489

>  <SCORE.RESTR.CAVITY>
0.727489

>  <SCORE.RESTR.norm>
0.0196619

>  <SCORE.SYSTEM>
0

>  <SCORE.SYSTEM.CONST>
0

>  <SCORE.SYSTEM.DIHEDRAL>
0

>  <SCORE.SYSTEM.SOLV>
0

>  <SCORE.SYSTEM.norm>
0

>  <SCORE.heavy>
37

>  <SCORE.norm>
-0.209409

>  <RMSD>
15.180

$$$$
1yrj_lig
 OpenBabel11021811423D
libRbt.so/2013.1/901 2013/11/27
 37 40  0  0  0  0  0  0  0  0999 V2000
   29.8059    9.3960   19.8538 C   0  0  1  0  0  0  0  0  0  0  0  0
   30.5069   10.7622   19.9859 C   0  0  1  0  0  0  0  0  0  0  0  0
   31.9396   10.7254   19.4305 C   0  0  0  0  0  0  0  0  0  0  0  0
   32.7473    9.5934   20.1174 C   0  0  1  0  0  0  0  0  0  0  0  0
   32.0367    8.2415   19.9167 C   0  0  1  0  0  0  0  0  0  0  0  0
   32.8891    7.1008   20.6168 C   0  0  1  0  0  0  0  0  0  0  0  0
   34.2982    7.0572   20.0036 C   0  0  1  0  0  0  0  0  0  0  0  0
   34.9482    8.4500   20.1878 C   0  0  2  0  0  0  0  0  0  0  0  0
   35.8609    5.0651   19.6940 C   0  0  0  0  0  0  0  0  0  0  0  0
   29.7384   11.8391   19.3403 N   0  0  0  0  0  0  0  0  0  0  0  0
   35.0922    5.9512   20.6230 N   0  0  0  0  0  0  0  0  0  0  0  0
   29.4067    9.0795   18.5071 O   0  0  0  0  0  0  0  0  0  0  0  0
   30.6646    8.3547   20.4514 O   0  0  0  0  0  0  0  0  0  0  0  0
   34.1264    9.4911   19.5879 O   0  0  0  0  0  0  0  0  0  0  0  0
   33.0370    7.4005   21.9890 O   0  0  0  0  0  0  0  0  0  0  0  0
   36.2428    8.5172   19.5885 O   0  0  0  0  0  0  0  0  0  0  0  0
   36.2360    8.1997   18.1768 C   0  0  2  0  0  0  0  0  0  0  0  0
   37.6414    7.9707   17.5972 C   0  0  1  0  0  0  0  0  0  0  0  0
   38.4515    9.2936   17.5538 C   0  0  2  0  0  0  0  0  0  0  0  0
   37.7053   10.3273   16.7417 C   0  0  1  0  0  0  0  0  0  0  0  0
   36.3086   10.5569   17.3663 C   0  0  1  0  0  0  0  0  0  0  0  0
   35.4641   11.5554   16.5780 C   0  0  0  0  0  0  0  0  0  0  0  0
   38.4976   11.5744   16.7226 N   0  0  0  0  0  0  0  0  0  0  0  0
   35.5725    9.2807   17.4113 O   0  0  0  0  0  0  0  0  0  0  0  0
   38.2939    6.9604   18.3799 O   0  0  0  0  0  0  0  0  0  0  0  0
   39.7263    9.0590   16.9400 O   0  0  0  0  0  0  0  0  0  0  0  0
   34.2213   11.7158   17.2086 O   0  0  0  0  0  0  0  0  0  0  0  0
   28.5755    7.8618   18.1322 C   0  0  1  0  0  0  0  0  0  0  0  0
   29.4102    6.6128   18.4915 C   0  0  1  0  0  0  0  0  0  0  0  0
   28.6207    5.3117   18.2086 C   0  0  2  0  0  0  0  0  0  0  0  0
   27.3150    5.3062   19.0124 C   0  0  1  0  0  0  0  0  0  0  0  0
   26.4498    6.5356   18.6346 C   0  0  0  0  0  0  0  0  0  0  0  0
   27.2434    7.8110   18.9375 C   0  0  2  0  0  0  0  0  0  0  0  0
   26.5602    4.0651   18.7288 N   0  0  0  0  0  0  0  0  0  0  0  0
   26.3905    8.9432   18.5861 N   0  0  0  0  0  0  0  0  0  0  0  0
   30.6141    6.6049   17.6937 O   0  0  0  0  0  0  0  0  0  0  0  0
   29.4359    4.1809   18.5845 O   0  0  0  0  0  0  0  0  0  0  0  0
  1  2  1  0  0  0  0
  1 12  1  6  0  0  0
  1 13  1  0  0  0  0
  2  3  1  0  0  0  0
  2 10  1  6  0  0  0
  4  3  1  6  0  0  0
  4  5  1  0  0  0  0
  4 14  1  0  0  0  0
  5  6  1  0  0  0  0
  5 13  1  1  0  0  0
  6  7  1  0  0  0  0
  6 15  1  1  0  0  0
  7  8  1  0  0  0  0
  7 11  1  1  0  0  0
  8 14  1  0  0  0  0
  8 16  1  6  0  0  0
  9 11  1  0  0  0  0
 17 16  1  1  0  0  0
 17 18  1  0  0  0  0
 17 24  1  0  0  0  0
 18 19  1  0  0  0  0
 18 25  1  1  0  0  0
 19 20  1  0  0  0  0
 19 26  1  6  0  0  0
 20 21  1  0  0  0  0
 20 23  1  1  0  0  0
 21 22  1  6  0  0  0
 21 24  1  0  0  0  0
 22 27  1  0  0  0  0
 28 12  1  1  0  0  0
 28 29  1  0  0  0  0
 28 33  1  0  0  0  0
 29 30  1  0  0  0  0
 29 36  1  6  0  0  0
 30 31  1  0  0  0  0
 30 37  1  1  0  0  0
 31 32  1  0  0  0  0
 31 34  1  6  0  0  0
 32 33  1  0  0  0  0
 33 35  1  6  0  0  0
M  END
>  <CHROM.1>
-173.56130961,133.83938444,57.12075598,-167.45131895,-179.63792450,-63.48079365
32.81052447,8.28437403,18.79695197,2.87764940,-0.06380523,2.93926233

>  <Name>
1yrj_lig

>  <RI>
0

>  <Rbt.Current_Directory>
/home/itssahil/PROJECTS/Mol_Feturizer/New_Systems/rnas/1yrj

>  <Rbt.Executable>
rbdock ($Id: //depot/dev/client3/rdock/2013.1/src/exe/rbdock.cxx#4 $)

>  <Rbt.Library>
libRbt.so (2013.1, Build901 2013/11/27)

>  <Rbt.Parameter_File>
/export/apps/rDock/src/rDock_2013.1_src/data/scripts/dock_solv.prm

>  <Rbt.Receptor>
prm/blind_docking_100.prm

>  <SCORE>
-15.9756

>  <SCORE.INTER>
-8.32877

>  <SCORE.INTER.CONST>
1

>  <SCORE.INTER.POLAR>
0

>  <SCORE.INTER.ROT>
6

>  <SCORE.INTER.SOLV>
8.19961

>  <SCORE.INTER.VDW>
-15.8857

>  <SCORE.INTER.norm>
-0.225102

>  <SCORE.INTRA>
-7.64688

>  <SCORE.INTRA.DIHEDRAL>
-13.4298

>  <SCORE.INTRA.DIHEDRAL.0>
15.6389

>  <SCORE.INTRA.POLAR>
0

>  <SCORE.INTRA.POLAR.0>
0

>  <SCORE.INTRA.REPUL>
0

>  <SCORE.INTRA.REPUL.0>
0

>  <SCORE.INTRA.SOLV>
-0.663545

>  <SCORE.INTRA.SOLV.lig_0>
-90.9181

>  <SCORE.INTRA.VDW>
-0.600199

>  <SCORE.INTRA.VDW.0>
-3.14158

>  <SCORE.INTRA.norm>
-0.206672

>  <SCORE.RESTR>
0

>  <SCORE.RESTR.CAVITY>
0

>  <SCORE.RESTR.norm>
0

>  <SCORE.SYSTEM>
0

>  <SCORE.SYSTEM.CONST>
0

>  <SCORE.SYSTEM.DIHEDRAL>
0

>  <SCORE.SYSTEM.SOLV>
0

>  <SCORE.SYSTEM.norm>
0

>  <SCORE.heavy>
37

>  <SCORE.norm>
-0.431774

>  <RMSD>
15.187

$$$$
1yrj_lig
 OpenBabel11021811423D
libRbt.so/2013.1/901 2013/11/27
 37 40  0  0  0  0  0  0  0  0999 V2000
   29.7104    9.0936   19.9964 C   0  0  1  0  0  0  0  0  0  0  0  0
   30.3742   10.4806   20.1012 C   0  0  1  0  0  0  0  0  0  0  0  0
   31.7902   10.4830   19.5033 C   0  0  0  0  0  0  0  0  0  0  0  0
   32.6512    9.3791   20.1710 C   0  0  1  0  0  0  0  0  0  0  0  0
   31.9753    8.0058   19.9978 C   0  0  1  0  0  0  0  0  0  0  0  0
   32.8817    6.8946   20.6773 C   0  0  1  0  0  0  0  0  0  0  0  0
   34.2725    6.8892   20.0224 C   0  0  1  0  0  0  0  0  0  0  0  0
   34.8862    8.3016   20.1806 C   0  0  2  0  0  0  0  0  0  0  0  0
   35.8115    4.8851   19.6738 C   0  0  0  0  0  0  0  0  0  0  0  0
   29.5552   11.5308   19.4740 N   0  0  0  0  0  0  0  0  0  0  0  0
   35.1171    5.8105   20.6228 N   0  0  0  0  0  0  0  0  0  0  0  0
   29.2808    8.7582   18.6638 O   0  0  0  0  0  0  0  0  0  0  0  0
   30.6170    8.0814   20.5728 O   0  0  0  0  0  0  0  0  0  0  0  0
   34.0163    9.3146   19.6009 O   0  0  0  0  0  0  0  0  0  0  0  0
   33.0614    7.2060   22.0431 O   0  0  0  0  0  0  0  0  0  0  0  0
   36.1598    8.4037   19.5426 O   0  0  0  0  0  0  0  0  0  0  0  0
   36.1625    7.8951   18.1880 C   0  0  2  0  0  0  0  0  0  0  0  0
   37.5636    7.8509   17.5567 C   0  0  1  0  0  0  0  0  0  0  0  0
   38.1026    9.2815   17.2896 C   0  0  2  0  0  0  0  0  0  0  0  0
   37.1427   10.0345   16.3972 C   0  0  1  0  0  0  0  0  0  0  0  0
   35.7518   10.0872   17.0724 C   0  0  1  0  0  0  0  0  0  0  0  0
   34.7031   10.7912   16.2143 C   0  0  0  0  0  0  0  0  0  0  0  0
   37.6798   11.3914   16.1652 N   0  0  0  0  0  0  0  0  0  0  0  0
   35.2764    8.7161   17.3303 O   0  0  0  0  0  0  0  0  0  0  0  0
   38.4260    7.0991   18.4228 O   0  0  0  0  0  0  0  0  0  0  0  0
   39.3755    9.2028   16.6334 O   0  0  0  0  0  0  0  0  0  0  0  0
   33.4982   10.8779   16.9274 O   0  0  0  0  0  0  0  0  0  0  0  0
   28.3972    7.5651   18.3319 C   0  0  1  0  0  0  0  0  0  0  0  0
   29.2025    6.2926   18.6756 C   0  0  1  0  0  0  0  0  0  0  0  0
   28.3611    5.0158   18.4352 C   0  0  2  0  0  0  0  0  0  0  0  0
   27.0852    5.0619   19.2843 C   0  0  1  0  0  0  0  0  0  0  0  0
   26.2482    6.3156   18.9233 C   0  0  0  0  0  0  0  0  0  0  0  0
   27.0935    7.5667   19.1840 C   0  0  2  0  0  0  0  0  0  0  0  0
   26.2803    3.8439   19.0412 N   0  0  0  0  0  0  0  0  0  0  0  0
   26.2664    8.7232   18.8500 N   0  0  0  0  0  0  0  0  0  0  0  0
   30.3765    6.2366   17.8362 O   0  0  0  0  0  0  0  0  0  0  0  0
   29.1514    3.8623   18.7949 O   0  0  0  0  0  0  0  0  0  0  0  0
  1  2  1  0  0  0  0
  1 12  1  6  0  0  0
  1 13  1  0  0  0  0
  2  3  1  0  0  0  0
  2 10  1  6  0  0  0
  4  3  1  6  0  0  0
  4  5  1  0  0  0  0
  4 14  1  0  0  0  0
  5  6  1  0  0  0  0
  5 13  1  1  0  0  0
  6  7  1  0  0  0  0
  6 15  1  1  0  0  0
  7  8  1  0  0  0  0
  7 11  1  1  0  0  0
  8 14  1  0  0  0  0
  8 16  1  6  0  0  0
  9 11  1  0  0  0  0
 17 16  1  1  0  0  0
 17 18  1  0  0  0  0
 17 24  1  0  0  0  0
 18 19  1  0  0  0  0
 18 25  1  1  0  0  0
 19 20  1  0  0  0  0
 19 26  1  6  0  0  0
 20 21  1  0  0  0  0
 20 23  1  1  0  0  0
 21 22  1  6  0  0  0
 21 24  1  0  0  0  0
 22 27  1  0  0  0  0
 28 12  1  1  0  0  0
 28 29  1  0  0  0  0
 28 33  1  0  0  0  0
 29 30  1  0  0  0  0
 29 36  1  6  0  0  0
 30 31  1  0  0  0  0
 30 37  1  1  0  0  0
 31 32  1  0  0  0  0
 31 34  1  6  0  0  0
 32 33  1  0  0  0  0
 33 35  1  6  0  0  0
M  END
>  <CHROM.1>
-169.29723933,129.87810604,48.67042695,-173.23865698,-176.08703315,-65.08935550
32.60079895,8.02651753,18.81760530,2.86288533,-0.07950352,2.86156286

>  <Name>
1yrj_lig

>  <RI>
224

>  <Rbt.Current_Directory>
/home/itssahil/PROJECTS/Mol_Feturizer/New_Systems/rnas/1yrj

>  <Rbt.Executable>
rbdock ($Id: //depot/dev/client3/rdock/2013.1/src/exe/rbdock.cxx#4 $)

>  <Rbt.Library>
libRbt.so (2013.1, Build901 2013/11/27)

>  <Rbt.Parameter_File>
/export/apps/rDock/src/rDock_2013.1_src/data/scripts/dock_solv.prm

>  <Rbt.Receptor>
prm/blind_docking_80.prm

>  <SCORE>
-15.034

>  <SCORE.INTER>
-7.88271

>  <SCORE.INTER.CONST>
1

>  <SCORE.INTER.POLAR>
0

>  <SCORE.INTER.ROT>
6

>  <SCORE.INTER.SOLV>
8.45283

>  <SCORE.INTER.VDW>
-15.6727

>  <SCORE.INTER.norm>
-0.213046

>  <SCORE.INTRA>
-7.16404

>  <SCORE.INTRA.DIHEDRAL>
-12.8453

>  <SCORE.INTRA.DIHEDRAL.0>
15.6389

>  <SCORE.INTRA.POLAR>
0

>  <SCORE.INTRA.POLAR.0>
0

>  <SCORE.INTRA.REPUL>
0

>  <SCORE.INTRA.REPUL.0>
0

>  <SCORE.INTRA.SOLV>
-0.565244

>  <SCORE.INTRA.SOLV.lig_0>
-90.9181

>  <SCORE.INTRA.VDW>
-0.458795

>  <SCORE.INTRA.VDW.0>
-3.14158

>  <SCORE.INTRA.norm>
-0.193623

>  <SCORE.RESTR>
0.0127685

>  <SCORE.RESTR.CAVITY>
0.0127685

>  <SCORE.RESTR.norm>
0.000345095

>  <SCORE.SYSTEM>
0

>  <SCORE.SYSTEM.CONST>
0

>  <SCORE.SYSTEM.DIHEDRAL>
0

>  <SCORE.SYSTEM.SOLV>
0

>  <SCORE.SYSTEM.norm>
0

>  <SCORE.heavy>
37

>  <SCORE.norm>
-0.406324

>  <RMSD>
15.238

$$$$
1yrj_lig
 OpenBabel11021811423D
libRbt.so/2013.1/901 2013/11/27
 37 40  0  0  0  0  0  0  0  0999 V2000
   28.2533    8.7865   20.0315 C   0  0  1  0  0  0  0  0  0  0  0  0
   28.0428    9.0951   18.5362 C   0  0  1  0  0  0  0  0  0  0  0  0
   28.7914    8.0990   17.6363 C   0  0  0  0  0  0  0  0  0  0  0  0
   30.2956    8.0685   18.0131 C   0  0  1  0  0  0  0  0  0  0  0  0
   30.4595    7.7071   19.5016 C   0  0  1  0  0  0  0  0  0  0  0  0
   32.0055    7.6700   19.8570 C   0  0  1  0  0  0  0  0  0  0  0  0
   32.7145    6.6288   18.9757 C   0  0  1  0  0  0  0  0  0  0  0  0
   32.4785    7.0095   17.4939 C   0  0  2  0  0  0  0  0  0  0  0  0
   35.0651    7.5957   18.7600 C   0  0  0  0  0  0  0  0  0  0  0  0
   26.6154    9.1312   18.1780 N   0  0  0  0  0  0  0  0  0  0  0  0
   34.1634    6.5515   19.3394 N   0  0  0  0  0  0  0  0  0  0  0  0
   27.5233    7.6338   20.4916 O   0  0  0  0  0  0  0  0  0  0  0  0
   29.7007    8.6882   20.3035 O   0  0  0  0  0  0  0  0  0  0  0  0
   31.0556    7.0930   17.1985 O   0  0  0  0  0  0  0  0  0  0  0  0
   32.5832    8.9265   19.5707 O   0  0  0  0  0  0  0  0  0  0  0  0
   33.0538    6.0553   16.6005 O   0  0  0  0  0  0  0  0  0  0  0  0
   32.9126    6.4194   15.2073 C   0  0  2  0  0  0  0  0  0  0  0  0
   33.7543    5.5474   14.2615 C   0  0  1  0  0  0  0  0  0  0  0  0
   35.2700    5.8274   14.4423 C   0  0  2  0  0  0  0  0  0  0  0  0
   35.5543    7.2929   14.2057 C   0  0  1  0  0  0  0  0  0  0  0  0
   34.7160    8.1415   15.1909 C   0  0  1  0  0  0  0  0  0  0  0  0
   34.9057    9.6432   14.9889 C   0  0  0  0  0  0  0  0  0  0  0  0
   37.0014    7.5286   14.3894 N   0  0  0  0  0  0  0  0  0  0  0  0
   33.2850    7.8395   15.0082 O   0  0  0  0  0  0  0  0  0  0  0  0
   33.4242    4.1717   14.5013 O   0  0  0  0  0  0  0  0  0  0  0  0
   36.0199    5.0545   13.4951 O   0  0  0  0  0  0  0  0  0  0  0  0
   36.1397   10.0346   15.5293 O   0  0  0  0  0  0  0  0  0  0  0  0
   27.3744    6.3485   19.6915 C   0  0  1  0  0  0  0  0  0  0  0  0
   28.0784    5.2302   20.4914 C   0  0  1  0  0  0  0  0  0  0  0  0
   27.9250    3.8589   19.7899 C   0  0  2  0  0  0  0  0  0  0  0  0
   26.4392    3.5173   19.6271 C   0  0  1  0  0  0  0  0  0  0  0  0
   25.7271    4.6135   18.7940 C   0  0  0  0  0  0  0  0  0  0  0  0
   25.8773    5.9577   19.5139 C   0  0  2  0  0  0  0  0  0  0  0  0
   26.2998    2.2107   18.9460 N   0  0  0  0  0  0  0  0  0  0  0  0
   25.1803    6.9578   18.7095 N   0  0  0  0  0  0  0  0  0  0  0  0
   29.4852    5.5400   20.5967 O   0  0  0  0  0  0  0  0  0  0  0  0
   28.5781    2.8503   20.5906 O   0  0  0  0  0  0  0  0  0  0  0  0
  1  2  1  0  0  0  0
  1 12  1  6  0  0  0
  1 13  1  0  0  0  0
  2  3  1  0  0  0  0
  2 10  1  6  0  0  0
  4  3  1  6  0  0  0
  4  5  1  0  0  0  0
  4 14  1  0  0  0  0
  5  6  1  0  0  0  0
  5 13  1  1  0  0  0
  6  7  1  0  0  0  0
  6 15  1  6  0  0  0
  7  8  1  0  0  0  0
  7 11  1  1  0  0  0
  8 14  1  0  0  0  0
  8 16  1  6  0  0  0
  9 11  1  0  0  0  0
 17 16  1  1  0  0  0
 17 18  1  0  0  0  0
 17 24  1  0  0  0  0
 18 19  1  0  0  0  0
 18 25  1  1  0  0  0
 19 20  1  0  0  0  0
 19 26  1  6  0  0  0
 20 21  1  0  0  0  0
 20 23  1  1  0  0  0
 21 22  1  6  0  0  0
 21 24  1  0  0  0  0
 22 27  1  0  0  0  0
 28 12  1  1  0  0  0
 28 29  1  0  0  0  0
 28 33  1  0  0  0  0
 29 30  1  0  0  0  0
 29 36  1  6  0  0  0
 30 31  1  0  0  0  0
 30 37  1  1  0  0  0
 31 32  1  0  0  0  0
 31 34  1  6  0  0  0
 32 33  1  0  0  0  0
 33 35  1  6  0  0  0
M  END
>  <CHROM.1>
40.48196967,-81.21479825,-176.88672772,168.95743710,-76.19927645,116.15742520
31.04770512,6.74210546,17.78653858,-3.11837633,-0.53301330,-2.78261774

>  <Name>
1yrj_lig

>  <RI>
0

>  <Rbt.Current_Directory>
/home/itssahil/PROJECTS/Mol_Feturizer/New_Systems/rnas/1yrj

>  <Rbt.Executable>
rbdock ($Id: //depot/dev/client3/rdock/2013.1/src/exe/rbdock.cxx#4 $)

>  <Rbt.Library>
libRbt.so (2013.1, Build901 2013/11/27)

>  <Rbt.Parameter_File>
/export/apps/rDock/src/rDock_2013.1_src/data/scripts/dock_solv.prm

>  <Rbt.Receptor>
prm/blind_docking_40.prm

>  <SCORE>
3.67357

>  <SCORE.INTER>
-3.97393

>  <SCORE.INTER.CONST>
1

>  <SCORE.INTER.POLAR>
-0.981526

>  <SCORE.INTER.ROT>
6

>  <SCORE.INTER.SOLV>
10.3993

>  <SCORE.INTER.VDW>
-10.444

>  <SCORE.INTER.norm>
-0.107404

>  <SCORE.INTRA>
1.87056

>  <SCORE.INTRA.DIHEDRAL>
-4.87251

>  <SCORE.INTRA.DIHEDRAL.0>
15.6389

>  <SCORE.INTRA.POLAR>
0

>  <SCORE.INTRA.POLAR.0>
0

>  <SCORE.INTRA.REPUL>
0

>  <SCORE.INTRA.REPUL.0>
0

>  <SCORE.INTRA.SOLV>
4.04452

>  <SCORE.INTRA.SOLV.lig_0>
-90.9181

>  <SCORE.INTRA.VDW>
2.28456

>  <SCORE.INTRA.VDW.0>
-3.14158

>  <SCORE.INTRA.norm>
0.0505558

>  <SCORE.RESTR>
5.77694

>  <SCORE.RESTR.CAVITY>
5.77694

>  <SCORE.RESTR.norm>
0.156133

>  <SCORE.SYSTEM>
0

>  <SCORE.SYSTEM.CONST>
0

>  <SCORE.SYSTEM.DIHEDRAL>
0

>  <SCORE.SYSTEM.SOLV>
0

>  <SCORE.SYSTEM.norm>
0

>  <SCORE.heavy>
37

>  <SCORE.norm>
0.0992857

>  <RMSD>
15.262

$$$$
1yrj_lig
 OpenBabel11021811423D
libRbt.so/2013.1/901 2013/11/27
 37 40  0  0  0  0  0  0  0  0999 V2000
   30.1558    9.9456   20.1748 C   0  0  1  0  0  0  0  0  0  0  0  0
   30.6471   11.3576   19.8003 C   0  0  1  0  0  0  0  0  0  0  0  0
   31.8639   11.3092   18.8625 C   0  0  0  0  0  0  0  0  0  0  0  0
   32.9918   10.4555   19.4984 C   0  0  1  0  0  0  0  0  0  0  0  0
   32.4706    9.0395   19.8090 C   0  0  1  0  0  0  0  0  0  0  0  0
   33.6460    8.1845   20.4456 C   0  0  1  0  0  0  0  0  0  0  0  0
   34.8258    8.1133   19.4625 C   0  0  1  0  0  0  0  0  0  0  0  0
   35.2786    9.5594   19.1461 C   0  0  2  0  0  0  0  0  0  0  0  0
   36.0776    5.8908   19.4680 C   0  0  0  0  0  0  0  0  0  0  0  0
   29.5760   12.1717   19.2027 N   0  0  0  0  0  0  0  0  0  0  0  0
   35.9184    7.2668   20.0342 N   0  0  0  0  0  0  0  0  0  0  0  0
   29.4608    9.2740   19.1076 O   0  0  0  0  0  0  0  0  0  0  0  0
   31.2941    9.1618   20.6933 O   0  0  0  0  0  0  0  0  0  0  0  0
   34.1747   10.3456   18.6145 O   0  0  0  0  0  0  0  0  0  0  0  0
   34.1117    8.8245   21.6153 O   0  0  0  0  0  0  0  0  0  0  0  0
   36.3362    9.5887   18.1868 O   0  0  0  0  0  0  0  0  0  0  0  0
   36.2061   10.6624   17.2257 C   0  0  2  0  0  0  0  0  0  0  0  0
   35.4860   10.2403   15.9346 C   0  0  1  0  0  0  0  0  0  0  0  0
   36.3567    9.2616   15.1024 C   0  0  2  0  0  0  0  0  0  0  0  0
   37.6876    9.9026   14.7817 C   0  0  1  0  0  0  0  0  0  0  0  0
   38.3995   10.2885   16.0999 C   0  0  1  0  0  0  0  0  0  0  0  0
   39.7363   10.9893   15.8679 C   0  0  0  0  0  0  0  0  0  0  0  0
   38.4941    8.9469   13.9946 N   0  0  0  0  0  0  0  0  0  0  0  0
   37.5408   11.2016   16.8754 O   0  0  0  0  0  0  0  0  0  0  0  0
   34.2179    9.6704   16.2899 O   0  0  0  0  0  0  0  0  0  0  0  0
   35.6889    8.9481   13.8725 O   0  0  0  0  0  0  0  0  0  0  0  0
   39.5562   12.0528   14.9711 O   0  0  0  0  0  0  0  0  0  0  0  0
   28.6996    7.9681   19.2800 C   0  0  1  0  0  0  0  0  0  0  0  0
   27.2405    8.3346   19.6304 C   0  0  1  0  0  0  0  0  0  0  0  0
   26.3613    7.0673   19.7614 C   0  0  2  0  0  0  0  0  0  0  0  0
   26.3911    6.2716   18.4511 C   0  0  1  0  0  0  0  0  0  0  0  0
   27.8465    5.8650   18.1059 C   0  0  0  0  0  0  0  0  0  0  0  0
   28.6945    7.1335   17.9651 C   0  0  2  0  0  0  0  0  0  0  0  0
   25.5577    5.0560   18.5869 N   0  0  0  0  0  0  0  0  0  0  0  0
   30.0498    6.7104   17.6233 N   0  0  0  0  0  0  0  0  0  0  0  0
   27.2215    9.0417   20.8896 O   0  0  0  0  0  0  0  0  0  0  0  0
   25.0077    7.4686   20.0639 O   0  0  0  0  0  0  0  0  0  0  0  0
  1  2  1  0  0  0  0
  1 12  1  6  0  0  0
  1 13  1  0  0  0  0
  2  3  1  0  0  0  0
  2 10  1  6  0  0  0
  4  3  1  6  0  0  0
  4  5  1  0  0  0  0
  4 14  1  0  0  0  0
  5  6  1  0  0  0  0
  5 13  1  1  0  0  0
  6  7  1  0  0  0  0
  6 15  1  1  0  0  0
  7  8  1  0  0  0  0
  7 11  1  1  0  0  0
  8 14  1  0  0  0  0
  8 16  1  6  0  0  0
  9 11  1  0  0  0  0
 17 16  1  1  0  0  0
 17 18  1  0  0  0  0
 17 24  1  0  0  0  0
 18 19  1  0  0  0  0
 18 25  1  1  0  0  0
 19 20  1  0  0  0  0
 19 26  1  6  0  0  0
 20 21  1  0  0  0  0
 20 23  1  1  0  0  0
 21 22  1  6  0  0  0
 21 24  1  0  0  0  0
 22 27  1  0  0  0  0
 28 12  1  6  0  0  0
 28 29  1  0  0  0  0
 28 33  1  0  0  0  0
 29 30  1  0  0  0  0
 29 36  1  1  0  0  0
 30 31  1  0  0  0  0
 30 37  1  6  0  0  0
 31 32  1  0  0  0  0
 31 34  1  1  0  0  0
 32 33  1  0  0  0  0
 33 35  1  1  0  0  0
M  END
>  <CHROM.1>
-170.44155025,104.59115115,140.25108427,-93.75197805,51.28198828,90.92344240
32.77011568,9.03268184,18.25610946,-2.98173897,-0.35102695,-2.06980170

>  <Name>
1yrj_lig

>  <RI>
0

>  <Rbt.Current_Directory>
/home/itssahil/PROJECTS/Mol_Feturizer/New_Systems/rnas/1yrj

>  <Rbt.Executable>
rbdock ($Id: //depot/dev/client3/rdock/2013.1/src/exe/rbdock.cxx#4 $)

>  <Rbt.Library>
libRbt.so (2013.1, Build901 2013/11/27)

>  <Rbt.Parameter_File>
/export/apps/rDock/src/rDock_2013.1_src/data/scripts/dock_solv.prm

>  <Rbt.Receptor>
prm/blind_docking_100.prm

>  <SCORE>
-5.96006

>  <SCORE.INTER>
-8.25025

>  <SCORE.INTER.CONST>
1

>  <SCORE.INTER.POLAR>
0

>  <SCORE.INTER.ROT>
6

>  <SCORE.INTER.SOLV>
8.12205

>  <SCORE.INTER.VDW>
-15.8075

>  <SCORE.INTER.norm>
-0.22298

>  <SCORE.INTRA>
2.28752

>  <SCORE.INTRA.DIHEDRAL>
-0.427564

>  <SCORE.INTRA.DIHEDRAL.0>
15.6389

>  <SCORE.INTRA.POLAR>
0

>  <SCORE.INTRA.POLAR.0>
0

>  <SCORE.INTRA.REPUL>
0

>  <SCORE.INTRA.REPUL.0>
0

>  <SCORE.INTRA.SOLV>
-0.809739

>  <SCORE.INTRA.SOLV.lig_0>
-90.9181

>  <SCORE.INTRA.VDW>
2.90617

>  <SCORE.INTRA.VDW.0>
-3.14158

>  <SCORE.INTRA.norm>
0.0618248

>  <SCORE.RESTR>
0.00267211

>  <SCORE.RESTR.CAVITY>
0.00267211

>  <SCORE.RESTR.norm>
7.22192e-05

>  <SCORE.SYSTEM>
0

>  <SCORE.SYSTEM.CONST>
0

>  <SCORE.SYSTEM.DIHEDRAL>
0

>  <SCORE.SYSTEM.SOLV>
0

>  <SCORE.SYSTEM.norm>
0

>  <SCORE.heavy>
37

>  <SCORE.norm>
-0.161083

>  <RMSD>
15.265

$$$$
1yrj_lig
 OpenBabel11021811423D
libRbt.so/2013.1/901 2013/11/27
 37 40  0  0  0  0  0  0  0  0999 V2000
   28.1184    8.4495   20.0068 C   0  0  1  0  0  0  0  0  0  0  0  0
   27.9591    8.8409   18.5246 C   0  0  1  0  0  0  0  0  0  0  0  0
   28.7714    7.9201   17.6001 C   0  0  0  0  0  0  0  0  0  0  0  0
   30.2596    7.9066   18.0368 C   0  0  1  0  0  0  0  0  0  0  0  0
   30.3740    7.4618   19.5072 C   0  0  1  0  0  0  0  0  0  0  0  0
   31.9051    7.4442   19.9240 C   0  0  1  0  0  0  0  0  0  0  0  0
   32.6783    6.4762   19.0137 C   0  0  1  0  0  0  0  0  0  0  0  0
   32.4910    6.9380   17.5480 C   0  0  2  0  0  0  0  0  0  0  0  0
   35.0007    7.5306   18.9764 C   0  0  0  0  0  0  0  0  0  0  0  0
   26.5468    8.8608   18.1101 N   0  0  0  0  0  0  0  0  0  0  0  0
   34.1130    6.4155   19.4323 N   0  0  0  0  0  0  0  0  0  0  0  0
   27.4039    7.2528   20.3681 O   0  0  0  0  0  0  0  0  0  0  0  0
   29.5560    8.3732   20.3327 O   0  0  0  0  0  0  0  0  0  0  0  0
   31.0791    7.0016   17.1991 O   0  0  0  0  0  0  0  0  0  0  0  0
   32.4575    8.7302   19.7357 O   0  0  0  0  0  0  0  0  0  0  0  0
   33.1287    6.0540   16.6253 O   0  0  0  0  0  0  0  0  0  0  0  0
   32.9456    6.4417   15.2433 C   0  0  2  0  0  0  0  0  0  0  0  0
   33.7477    5.5773   14.2569 C   0  0  1  0  0  0  0  0  0  0  0  0
   35.2711    5.8405   14.3925 C   0  0  2  0  0  0  0  0  0  0  0  0
   35.5616    7.3070   14.1697 C   0  0  1  0  0  0  0  0  0  0  0  0
   34.7640    8.1473   15.1949 C   0  0  1  0  0  0  0  0  0  0  0  0
   34.9614    9.6503   15.0104 C   0  0  0  0  0  0  0  0  0  0  0  0
   37.0161    7.5266   14.3095 N   0  0  0  0  0  0  0  0  0  0  0  0
   33.3250    7.8612   15.0544 O   0  0  0  0  0  0  0  0  0  0  0  0
   33.4124    4.2010   14.4858 O   0  0  0  0  0  0  0  0  0  0  0  0
   35.9823    5.0760   13.4093 O   0  0  0  0  0  0  0  0  0  0  0  0
   33.9934   10.3427   15.7530 O   0  0  0  0  0  0  0  0  0  0  0  0
   26.9950    6.1758   19.3745 C   0  0  1  0  0  0  0  0  0  0  0  0
   27.7153    4.8746   19.7916 C   0  0  1  0  0  0  0  0  0  0  0  0
   27.3107    3.6932   18.8769 C   0  0  2  0  0  0  0  0  0  0  0  0
   25.7931    3.4819   18.9347 C   0  0  1  0  0  0  0  0  0  0  0  0
   25.0570    4.7691   18.4830 C   0  0  0  0  0  0  0  0  0  0  0  0
   25.4590    5.9204   19.4107 C   0  0  2  0  0  0  0  0  0  0  0  0
   25.4120    2.3586   18.0497 N   0  0  0  0  0  0  0  0  0  0  0  0
   24.7334    7.1068   18.9649 N   0  0  0  0  0  0  0  0  0  0  0  0
   29.1423    5.0715   19.6872 O   0  0  0  0  0  0  0  0  0  0  0  0
   27.9918    2.5018   19.3258 O   0  0  0  0  0  0  0  0  0  0  0  0
  1  2  1  0  0  0  0
  1 12  1  6  0  0  0
  1 13  1  0  0  0  0
  2  3  1  0  0  0  0
  2 10  1  6  0  0  0
  4  3  1  6  0  0  0
  4  5  1  0  0  0  0
  4 14  1  0  0  0  0
  5  6  1  0  0  0  0
  5 13  1  1  0  0  0
  6  7  1  0  0  0  0
  6 15  1  6  0  0  0
  7  8  1  0  0  0  0
  7 11  1  1  0  0  0
  8 14  1  0  0  0  0
  8 16  1  6  0  0  0
  9 11  1  0  0  0  0
 17 16  1  1  0  0  0
 17 18  1  0  0  0  0
 17 24  1  0  0  0  0
 18 19  1  0  0  0  0
 18 25  1  1  0  0  0
 19 20  1  0  0  0  0
 19 26  1  6  0  0  0
 20 21  1  0  0  0  0
 20 23  1  1  0  0  0
 21 22  1  6  0  0  0
 21 24  1  0  0  0  0
 22 27  1  0  0  0  0
 28 12  1  1  0  0  0
 28 29  1  0  0  0  0
 28 33  1  0  0  0  0
 29 30  1  0  0  0  0
 29 36  1  6  0  0  0
 30 31  1  0  0  0  0
 30 37  1  1  0  0  0
 31 32  1  0  0  0  0
 31 34  1  6  0  0  0
 32 33  1  0  0  0  0
 33 35  1  6  0  0  0
M  END
>  <CHROM.1>
22.97913188,-79.98379840,178.65515056,174.11339216,166.62235552,117.98449434
30.81789311,6.64060432,17.64205602,-3.08583226,-0.47443654,-2.64488927

>  <Name>
1yrj_lig

>  <RI>
0

>  <Rbt.Current_Directory>
/home/itssahil/PROJECTS/Mol_Feturizer/New_Systems/rnas/1yrj

>  <Rbt.Executable>
rbdock ($Id: //depot/dev/client3/rdock/2013.1/src/exe/rbdock.cxx#4 $)

>  <Rbt.Library>
libRbt.so (2013.1, Build901 2013/11/27)

>  <Rbt.Parameter_File>
/export/apps/rDock/src/rDock_2013.1_src/data/scripts/dock_solv.prm

>  <Rbt.Receptor>
prm/blind_docking_40.prm

>  <SCORE>
1.08221

>  <SCORE.INTER>
-7.08871

>  <SCORE.INTER.CONST>
1

>  <SCORE.INTER.POLAR>
-1.04482

>  <SCORE.INTER.ROT>
6

>  <SCORE.INTER.SOLV>
10.3536

>  <SCORE.INTER.VDW>
-12.2943

>  <SCORE.INTER.norm>
-0.191587

>  <SCORE.INTRA>
2.79414

>  <SCORE.INTRA.DIHEDRAL>
-2.4675

>  <SCORE.INTRA.DIHEDRAL.0>
15.6389

>  <SCORE.INTRA.POLAR>
0

>  <SCORE.INTRA.POLAR.0>
0

>  <SCORE.INTRA.REPUL>
0

>  <SCORE.INTRA.REPUL.0>
0

>  <SCORE.INTRA.SOLV>
3.2895

>  <SCORE.INTRA.SOLV.lig_0>
-90.9181

>  <SCORE.INTRA.VDW>
2.38314

>  <SCORE.INTRA.VDW.0>
-3.14158

>  <SCORE.INTRA.norm>
0.0755173

>  <SCORE.RESTR>
5.37679

>  <SCORE.RESTR.CAVITY>
5.37679

>  <SCORE.RESTR.norm>
0.145319

>  <SCORE.SYSTEM>
0

>  <SCORE.SYSTEM.CONST>
0

>  <SCORE.SYSTEM.DIHEDRAL>
0

>  <SCORE.SYSTEM.SOLV>
0

>  <SCORE.SYSTEM.norm>
0

>  <SCORE.heavy>
37

>  <SCORE.norm>
0.029249

>  <RMSD>
15.283

$$$$
1yrj_lig
 OpenBabel11021811423D
libRbt.so/2013.1/901 2013/11/27
 37 40  0  0  0  0  0  0  0  0999 V2000
   28.3752    6.9036   19.1631 C   0  0  1  0  0  0  0  0  0  0  0  0
   28.2531    7.3690   17.6989 C   0  0  1  0  0  0  0  0  0  0  0  0
   29.4669    6.9391   16.8596 C   0  0  0  0  0  0  0  0  0  0  0  0
   30.7759    7.4461   17.5191 C   0  0  1  0  0  0  0  0  0  0  0  0
   30.8797    6.9159   18.9617 C   0  0  1  0  0  0  0  0  0  0  0  0
   32.2318    7.4377   19.6079 C   0  0  1  0  0  0  0  0  0  0  0  0
   33.4269    6.9480   18.7740 C   0  0  1  0  0  0  0  0  0  0  0  0
   33.2495    7.4654   17.3258 C   0  0  2  0  0  0  0  0  0  0  0  0
   35.8787    6.4682   19.2891 C   0  0  0  0  0  0  0  0  0  0  0  0
   27.0080    6.8944   17.0733 N   0  0  0  0  0  0  0  0  0  0  0  0
   34.7081    7.3932   19.4046 N   0  0  0  0  0  0  0  0  0  0  0  0
   28.1529    5.4922   19.3409 O   0  0  0  0  0  0  0  0  0  0  0  0
   29.6762    7.3461   19.7019 O   0  0  0  0  0  0  0  0  0  0  0  0
   31.9798    7.0236   16.7675 O   0  0  0  0  0  0  0  0  0  0  0  0
   32.2507    8.8496   19.5808 O   0  0  0  0  0  0  0  0  0  0  0  0
   34.2895    7.0023   16.4634 O   0  0  0  0  0  0  0  0  0  0  0  0
   34.2012    7.5392   15.1227 C   0  0  2  0  0  0  0  0  0  0  0  0
   35.0728    6.7844   14.1057 C   0  0  1  0  0  0  0  0  0  0  0  0
   36.5822    7.0251   14.3744 C   0  0  2  0  0  0  0  0  0  0  0  0
   36.8822    8.5060   14.3336 C   0  0  1  0  0  0  0  0  0  0  0  0
   36.0125    9.2326   15.3868 C   0  0  1  0  0  0  0  0  0  0  0  0
   36.2168   10.7459   15.3814 C   0  0  0  0  0  0  0  0  0  0  0  0
   38.3227    8.7031   14.5970 N   0  0  0  0  0  0  0  0  0  0  0  0
   34.5877    8.9693   15.1165 O   0  0  0  0  0  0  0  0  0  0  0  0
   34.7274    5.3927   14.1593 O   0  0  0  0  0  0  0  0  0  0  0  0
   37.3626    6.3696   13.3653 O   0  0  0  0  0  0  0  0  0  0  0  0
   37.5279   11.0413   15.7835 O   0  0  0  0  0  0  0  0  0  0  0  0
   26.9232    4.7558   18.8311 C   0  0  1  0  0  0  0  0  0  0  0  0
   27.0930    3.2684   19.2119 C   0  0  1  0  0  0  0  0  0  0  0  0
   25.8547    2.4389   18.7938 C   0  0  2  0  0  0  0  0  0  0  0  0
   24.5964    3.0014   19.4655 C   0  0  1  0  0  0  0  0  0  0  0  0
   24.3930    4.4842   19.0624 C   0  0  0  0  0  0  0  0  0  0  0  0
   25.6215    5.2888   19.4997 C   0  0  2  0  0  0  0  0  0  0  0  0
   23.4152    2.2108   19.0528 N   0  0  0  0  0  0  0  0  0  0  0  0
   25.3843    6.6788   19.1195 N   0  0  0  0  0  0  0  0  0  0  0  0
   28.2536    2.7381   18.5356 O   0  0  0  0  0  0  0  0  0  0  0  0
   26.0562    1.0666   19.1947 O   0  0  0  0  0  0  0  0  0  0  0  0
  1  2  1  0  0  0  0
  1 12  1  6  0  0  0
  1 13  1  0  0  0  0
  2  3  1  0  0  0  0
  2 10  1  6  0  0  0
  4  3  1  6  0  0  0
  4  5  1  0  0  0  0
  4 14  1  0  0  0  0
  5  6  1  0  0  0  0
  5 13  1  1  0  0  0
  6  7  1  0  0  0  0
  6 15  1  6  0  0  0
  7  8  1  0  0  0  0
  7 11  1  1  0  0  0
  8 14  1  0  0  0  0
  8 16  1  6  0  0  0
  9 11  1  0  0  0  0
 17 16  1  1  0  0  0
 17 18  1  0  0  0  0
 17 24  1  0  0  0  0
 18 19  1  0  0  0  0
 18 25  1  1  0  0  0
 19 20  1  0  0  0  0
 19 26  1  6  0  0  0
 20 21  1  0  0  0  0
 20 23  1  1  0  0  0
 21 22  1  6  0  0  0
 21 24  1  0  0  0  0
 22 27  1  0  0  0  0
 28 12  1  1  0  0  0
 28 29  1  0  0  0  0
 28 33  1  0  0  0  0
 29 30  1  0  0  0  0
 29 36  1  6  0  0  0
 30 31  1  0  0  0  0
 30 37  1  1  0  0  0
 31 32  1  0  0  0  0
 31 34  1  6  0  0  0
 32 33  1  0  0  0  0
 33 35  1  6  0  0  0
M  END
>  <CHROM.1>
-52.76059157,145.67873038,-176.19680735,-165.04881661,-65.49934823,179.15566571
31.29604383,6.49360597,17.44573243,3.00891951,-0.48517117,-2.55909645

>  <Name>
1yrj_lig

>  <RI>
0

>  <Rbt.Current_Directory>
/home/itssahil/PROJECTS/Mol_Feturizer/New_Systems/rnas/1yrj

>  <Rbt.Executable>
rbdock ($Id: //depot/dev/client3/rdock/2013.1/src/exe/rbdock.cxx#4 $)

>  <Rbt.Library>
libRbt.so (2013.1, Build901 2013/11/27)

>  <Rbt.Parameter_File>
/export/apps/rDock/src/rDock_2013.1_src/data/scripts/dock_solv.prm

>  <Rbt.Receptor>
prm/blind_docking_100.prm

>  <SCORE>
-12.5741

>  <SCORE.INTER>
-9.053

>  <SCORE.INTER.CONST>
1

>  <SCORE.INTER.POLAR>
-0.191808

>  <SCORE.INTER.ROT>
6

>  <SCORE.INTER.SOLV>
9.08621

>  <SCORE.INTER.VDW>
-16.0247

>  <SCORE.INTER.norm>
-0.244676

>  <SCORE.INTRA>
-3.87015

>  <SCORE.INTRA.DIHEDRAL>
-13.3151

>  <SCORE.INTRA.DIHEDRAL.0>
15.6389

>  <SCORE.INTRA.POLAR>
0

>  <SCORE.INTRA.POLAR.0>
0

>  <SCORE.INTRA.REPUL>
0

>  <SCORE.INTRA.REPUL.0>
0

>  <SCORE.INTRA.SOLV>
3.77505

>  <SCORE.INTRA.SOLV.lig_0>
-90.9181

>  <SCORE.INTRA.VDW>
0.89988

>  <SCORE.INTRA.VDW.0>
-3.14158

>  <SCORE.INTRA.norm>
-0.104599

>  <SCORE.RESTR>
0.34906

>  <SCORE.RESTR.CAVITY>
0.34906

>  <SCORE.RESTR.norm>
0.00943406

>  <SCORE.SYSTEM>
0

>  <SCORE.SYSTEM.CONST>
0

>  <SCORE.SYSTEM.DIHEDRAL>
0

>  <SCORE.SYSTEM.SOLV>
0

>  <SCORE.SYSTEM.norm>
0

>  <SCORE.heavy>
37

>  <SCORE.norm>
-0.33984

>  <RMSD>
15.284

$$$$
1yrj_lig
 OpenBabel11021811423D
libRbt.so/2013.1/901 2013/11/27
 37 40  0  0  0  0  0  0  0  0999 V2000
   28.5151   11.4896   18.8552 C   0  0  1  0  0  0  0  0  0  0  0  0
   29.5616   12.2450   18.0127 C   0  0  1  0  0  0  0  0  0  0  0  0
   30.5862   11.2884   17.3823 C   0  0  0  0  0  0  0  0  0  0  0  0
   31.2492   10.4191   18.4825 C   0  0  1  0  0  0  0  0  0  0  0  0
   30.1712    9.6449   19.2644 C   0  0  1  0  0  0  0  0  0  0  0  0
   30.8762    8.7551   20.3732 C   0  0  1  0  0  0  0  0  0  0  0  0
   31.8554    7.7758   19.7057 C   0  0  1  0  0  0  0  0  0  0  0  0
   32.8853    8.6000   18.8953 C   0  0  2  0  0  0  0  0  0  0  0  0
   33.4815    7.5386   21.6566 C   0  0  0  0  0  0  0  0  0  0  0  0
   28.9337   13.0759   16.9723 N   0  0  0  0  0  0  0  0  0  0  0  0
   32.4870    6.8988   20.7397 N   0  0  0  0  0  0  0  0  0  0  0  0
   27.5455   10.7748   18.0663 O   0  0  0  0  0  0  0  0  0  0  0  0
   29.2127   10.6201   19.8226 O   0  0  0  0  0  0  0  0  0  0  0  0
   32.2189    9.4513   17.9205 O   0  0  0  0  0  0  0  0  0  0  0  0
   31.6310    9.5851   21.2310 O   0  0  0  0  0  0  0  0  0  0  0  0
   33.8006    7.7620   18.1886 O   0  0  0  0  0  0  0  0  0  0  0  0
   33.1476    6.8194   17.3061 C   0  0  2  0  0  0  0  0  0  0  0  0
   33.7971    5.4259   17.3153 C   0  0  1  0  0  0  0  0  0  0  0  0
   35.2010    5.4582   16.6547 C   0  0  2  0  0  0  0  0  0  0  0  0
   35.0926    5.9831   15.2414 C   0  0  1  0  0  0  0  0  0  0  0  0
   34.4638    7.3964   15.2682 C   0  0  1  0  0  0  0  0  0  0  0  0
   34.2717    7.9857   13.8726 C   0  0  0  0  0  0  0  0  0  0  0  0
   36.4429    6.0064   14.6418 N   0  0  0  0  0  0  0  0  0  0  0  0
   33.1421    7.3361   15.9176 O   0  0  0  0  0  0  0  0  0  0  0  0
   33.8460    4.9590   18.6713 O   0  0  0  0  0  0  0  0  0  0  0  0
   35.7450    4.1319   16.6124 O   0  0  0  0  0  0  0  0  0  0  0  0
   35.2220    7.4363   12.9991 O   0  0  0  0  0  0  0  0  0  0  0  0
   26.9081    9.4605   18.4914 C   0  0  1  0  0  0  0  0  0  0  0  0
   27.5070    8.3536   17.5959 C   0  0  1  0  0  0  0  0  0  0  0  0
   26.9693    6.9582   17.9960 C   0  0  2  0  0  0  0  0  0  0  0  0
   27.3039    6.6692   19.4641 C   0  0  1  0  0  0  0  0  0  0  0  0
   26.6774    7.7529   20.3783 C   0  0  0  0  0  0  0  0  0  0  0  0
   27.2351    9.1223   19.9761 C   0  0  2  0  0  0  0  0  0  0  0  0
   26.7774    5.3388   19.8429 N   0  0  0  0  0  0  0  0  0  0  0  0
   26.6365   10.1108   20.8690 N   0  0  0  0  0  0  0  0  0  0  0  0
   27.1447    8.6113   16.2218 O   0  0  0  0  0  0  0  0  0  0  0  0
   27.5787    5.9628   17.1460 O   0  0  0  0  0  0  0  0  0  0  0  0
  1  2  1  0  0  0  0
  1 12  1  6  0  0  0
  1 13  1  0  0  0  0
  2  3  1  0  0  0  0
  2 10  1  6  0  0  0
  4  3  1  6  0  0  0
  4  5  1  0  0  0  0
  4 14  1  0  0  0  0
  5  6  1  0  0  0  0
  5 13  1  1  0  0  0
  6  7  1  0  0  0  0
  6 15  1  1  0  0  0
  7  8  1  0  0  0  0
  7 11  1  1  0  0  0
  8 14  1  0  0  0  0
  8 16  1  6  0  0  0
  9 11  1  0  0  0  0
 17 16  1  1  0  0  0
 17 18  1  0  0  0  0
 17 24  1  0  0  0  0
 18 19  1  0  0  0  0
 18 25  1  1  0  0  0
 19 20  1  0  0  0  0
 19 26  1  6  0  0  0
 20 21  1  0  0  0  0
 20 23  1  1  0  0  0
 21 22  1  6  0  0  0
 21 24  1  0  0  0  0
 22 27  1  0  0  0  0
 28 12  1  6  0  0  0
 28 29  1  0  0  0  0
 28 33  1  0  0  0  0
 29 30  1  0  0  0  0
 29 36  1  6  0  0  0
 30 31  1  0  0  0  0
 30 37  1  6  0  0  0
 31 32  1  0  0  0  0
 31 34  1  1  0  0  0
 32 33  1  0  0  0  0
 33 35  1  1  0  0  0
M  END
>  <CHROM.1>
146.90709099,-71.16620190,56.13255987,-139.68342052,-27.22336594,-108.21251615
31.01248930,8.17776175,18.03662366,-3.02713879,-0.53478451,2.56479648

>  <Name>
1yrj_lig

>  <RI>
0

>  <Rbt.Current_Directory>
/home/itssahil/PROJECTS/Mol_Feturizer/New_Systems/rnas/1yrj

>  <Rbt.Executable>
rbdock ($Id: //depot/dev/client3/rdock/2013.1/src/exe/rbdock.cxx#4 $)

>  <Rbt.Library>
libRbt.so (2013.1, Build901 2013/11/27)

>  <Rbt.Parameter_File>
/export/apps/rDock/src/rDock_2013.1_src/data/scripts/dock_solv.prm

>  <Rbt.Receptor>
prm/blind_docking_40.prm

>  <SCORE>
6.6834

>  <SCORE.INTER>
-6.03199

>  <SCORE.INTER.CONST>
1

>  <SCORE.INTER.POLAR>
-0.504041

>  <SCORE.INTER.ROT>
6

>  <SCORE.INTER.SOLV>
15.5056

>  <SCORE.INTER.VDW>
-15.1097

>  <SCORE.INTER.norm>
-0.163027

>  <SCORE.INTRA>
8.75186

>  <SCORE.INTRA.DIHEDRAL>
3.72056

>  <SCORE.INTRA.DIHEDRAL.0>
15.6389

>  <SCORE.INTRA.POLAR>
0

>  <SCORE.INTRA.POLAR.0>
0

>  <SCORE.INTRA.REPUL>
0

>  <SCORE.INTRA.REPUL.0>
0

>  <SCORE.INTRA.SOLV>
2.20976

>  <SCORE.INTRA.SOLV.lig_0>
-90.9181

>  <SCORE.INTRA.VDW>
5.7867

>  <SCORE.INTRA.VDW.0>
-3.14158

>  <SCORE.INTRA.norm>
0.236537

>  <SCORE.RESTR>
3.96353

>  <SCORE.RESTR.CAVITY>
3.96353

>  <SCORE.RESTR.norm>
0.107122

>  <SCORE.SYSTEM>
0

>  <SCORE.SYSTEM.CONST>
0

>  <SCORE.SYSTEM.DIHEDRAL>
0

>  <SCORE.SYSTEM.SOLV>
0

>  <SCORE.SYSTEM.norm>
0

>  <SCORE.heavy>
37

>  <SCORE.norm>
0.180632

>  <RMSD>
15.286

$$$$
1yrj_lig
 OpenBabel11021811423D
libRbt.so/2013.1/901 2013/11/27
 37 40  0  0  0  0  0  0  0  0999 V2000
   28.4843   11.6187   18.7796 C   0  0  1  0  0  0  0  0  0  0  0  0
   29.4393   12.4162   17.8699 C   0  0  1  0  0  0  0  0  0  0  0  0
   30.4602   11.5029   17.1729 C   0  0  0  0  0  0  0  0  0  0  0  0
   31.2314   10.6658   18.2265 C   0  0  1  0  0  0  0  0  0  0  0  0
   30.2418    9.8480   19.0779 C   0  0  1  0  0  0  0  0  0  0  0  0
   31.0563    8.9924   20.1374 C   0  0  1  0  0  0  0  0  0  0  0  0
   32.0305    8.0544   19.4063 C   0  0  1  0  0  0  0  0  0  0  0  0
   32.9680    8.9199   18.5298 C   0  0  2  0  0  0  0  0  0  0  0  0
   31.9509    6.5468   21.4625 C   0  0  0  0  0  0  0  0  0  0  0  0
   28.7088   13.2167   16.8735 N   0  0  0  0  0  0  0  0  0  0  0  0
   32.7663    7.2080   20.3961 N   0  0  0  0  0  0  0  0  0  0  0  0
   27.4964   10.8608   18.0565 O   0  0  0  0  0  0  0  0  0  0  0  0
   29.2813   10.7826   19.6986 O   0  0  0  0  0  0  0  0  0  0  0  0
   32.2026    9.7392   17.6014 O   0  0  0  0  0  0  0  0  0  0  0  0
   31.8298    9.8564   20.9435 O   0  0  0  0  0  0  0  0  0  0  0  0
   33.8699    8.1201   17.7638 O   0  0  0  0  0  0  0  0  0  0  0  0
   33.2007    7.1577   16.9156 C   0  0  2  0  0  0  0  0  0  0  0  0
   33.7440    5.7279   17.0702 C   0  0  1  0  0  0  0  0  0  0  0  0
   35.1819    5.6105   16.4984 C   0  0  2  0  0  0  0  0  0  0  0  0
   35.1934    6.0276   15.0455 C   0  0  1  0  0  0  0  0  0  0  0  0
   34.6700    7.4786   14.9264 C   0  0  1  0  0  0  0  0  0  0  0  0
   34.6018    7.9669   13.4812 C   0  0  0  0  0  0  0  0  0  0  0  0
   36.5737    5.9099   14.5316 N   0  0  0  0  0  0  0  0  0  0  0  0
   33.3125    7.5615   15.4946 O   0  0  0  0  0  0  0  0  0  0  0  0
   33.6809    5.3680   18.4579 O   0  0  0  0  0  0  0  0  0  0  0  0
   35.6283    4.2506   16.5901 O   0  0  0  0  0  0  0  0  0  0  0  0
   34.0731    9.2660   13.4521 O   0  0  0  0  0  0  0  0  0  0  0  0
   26.9427    9.5235   18.5247 C   0  0  1  0  0  0  0  0  0  0  0  0
   27.5646    8.4331   17.6245 C   0  0  1  0  0  0  0  0  0  0  0  0
   27.1136    7.0194   18.0652 C   0  0  2  0  0  0  0  0  0  0  0  0
   27.5154    6.7725   19.5241 C   0  0  1  0  0  0  0  0  0  0  0  0
   26.8678    7.8387   20.4444 C   0  0  0  0  0  0  0  0  0  0  0  0
   27.3400    9.2274   20.0012 C   0  0  2  0  0  0  0  0  0  0  0  0
   27.0715    5.4240   19.9422 N   0  0  0  0  0  0  0  0  0  0  0  0
   26.7244   10.1994   20.9006 N   0  0  0  0  0  0  0  0  0  0  0  0
   27.1402    8.6489   16.2610 O   0  0  0  0  0  0  0  0  0  0  0  0
   27.7419    6.0417   17.2084 O   0  0  0  0  0  0  0  0  0  0  0  0
  1  2  1  0  0  0  0
  1 12  1  6  0  0  0
  1 13  1  0  0  0  0
  2  3  1  0  0  0  0
  2 10  1  6  0  0  0
  4  3  1  6  0  0  0
  4  5  1  0  0  0  0
  4 14  1  0  0  0  0
  5  6  1  0  0  0  0
  5 13  1  1  0  0  0
  6  7  1  0  0  0  0
  6 15  1  1  0  0  0
  7  8  1  0  0  0  0
  7 11  1  1  0  0  0
  8 14  1  0  0  0  0
  8 16  1  6  0  0  0
  9 11  1  0  0  0  0
 17 16  1  1  0  0  0
 17 18  1  0  0  0  0
 17 24  1  0  0  0  0
 18 19  1  0  0  0  0
 18 25  1  1  0  0  0
 19 20  1  0  0  0  0
 19 26  1  6  0  0  0
 20 21  1  0  0  0  0
 20 23  1  1  0  0  0
 21 22  1  6  0  0  0
 21 24  1  0  0  0  0
 22 27  1  0  0  0  0
 28 12  1  6  0  0  0
 28 29  1  0  0  0  0
 28 33  1  0  0  0  0
 29 30  1  0  0  0  0
 29 36  1  6  0  0  0
 30 31  1  0  0  0  0
 30 37  1  6  0  0  0
 31 32  1  0  0  0  0
 31 34  1  1  0  0  0
 32 33  1  0  0  0  0
 33 35  1  1  0  0  0
M  END
>  <CHROM.1>
147.09643599,47.11810044,56.75604530,-129.24009971,177.80440121,-106.37411462
30.99823527,8.36126728,17.90036851,-3.00871288,-0.54118418,2.64723771

>  <Name>
1yrj_lig

>  <RI>
0

>  <Rbt.Current_Directory>
/home/itssahil/PROJECTS/Mol_Feturizer/New_Systems/rnas/1yrj

>  <Rbt.Executable>
rbdock ($Id: //depot/dev/client3/rdock/2013.1/src/exe/rbdock.cxx#4 $)

>  <Rbt.Library>
libRbt.so (2013.1, Build901 2013/11/27)

>  <Rbt.Parameter_File>
/export/apps/rDock/src/rDock_2013.1_src/data/scripts/dock_solv.prm

>  <Rbt.Receptor>
prm/blind_docking_40.prm

>  <SCORE>
6.40172

>  <SCORE.INTER>
-1.41501

>  <SCORE.INTER.CONST>
1

>  <SCORE.INTER.POLAR>
0

>  <SCORE.INTER.ROT>
6

>  <SCORE.INTER.SOLV>
16.6558

>  <SCORE.INTER.VDW>
-14.0953

>  <SCORE.INTER.norm>
-0.0382435

>  <SCORE.INTRA>
4.57799

>  <SCORE.INTRA.DIHEDRAL>
1.8023

>  <SCORE.INTRA.DIHEDRAL.0>
15.6389

>  <SCORE.INTRA.POLAR>
0

>  <SCORE.INTRA.POLAR.0>
0

>  <SCORE.INTRA.REPUL>
0

>  <SCORE.INTRA.REPUL.0>
0

>  <SCORE.INTRA.SOLV>
0.835843

>  <SCORE.INTRA.SOLV.lig_0>
-90.9181

>  <SCORE.INTRA.VDW>
3.25891

>  <SCORE.INTRA.VDW.0>
-3.14158

>  <SCORE.INTRA.norm>
0.123729

>  <SCORE.RESTR>
3.23874

>  <SCORE.RESTR.CAVITY>
3.23874

>  <SCORE.RESTR.norm>
0.0875335

>  <SCORE.SYSTEM>
0

>  <SCORE.SYSTEM.CONST>
0

>  <SCORE.SYSTEM.DIHEDRAL>
0

>  <SCORE.SYSTEM.SOLV>
0

>  <SCORE.SYSTEM.norm>
0

>  <SCORE.heavy>
37

>  <SCORE.norm>
0.173019

>  <RMSD>
15.291

$$$$
1yrj_lig
 OpenBabel11021811423D
libRbt.so/2013.1/901 2013/11/27
 37 40  0  0  0  0  0  0  0  0999 V2000
   27.9636   10.8078   19.8397 C   0  0  1  0  0  0  0  0  0  0  0  0
   28.7010   11.7902   18.9089 C   0  0  1  0  0  0  0  0  0  0  0  0
   29.7066   11.0685   17.9977 C   0  0  0  0  0  0  0  0  0  0  0  0
   30.6940   10.2322   18.8528 C   0  0  1  0  0  0  0  0  0  0  0  0
   29.9167    9.2310   19.7283 C   0  0  1  0  0  0  0  0  0  0  0  0
   30.9495    8.3807   20.5818 C   0  0  1  0  0  0  0  0  0  0  0  0
   31.9070    7.6324   19.6402 C   0  0  1  0  0  0  0  0  0  0  0  0
   32.6247    8.6770   18.7514 C   0  0  2  0  0  0  0  0  0  0  0  0
   32.2567    5.9265   21.5041 C   0  0  0  0  0  0  0  0  0  0  0  0
   27.7652   12.5898   18.1013 N   0  0  0  0  0  0  0  0  0  0  0  0
   32.8519    6.7886   20.4356 N   0  0  0  0  0  0  0  0  0  0  0  0
   26.9699   10.0112   19.1680 O   0  0  0  0  0  0  0  0  0  0  0  0
   28.9582    9.9877   20.5588 O   0  0  0  0  0  0  0  0  0  0  0  0
   31.6616    9.4849   18.0173 O   0  0  0  0  0  0  0  0  0  0  0  0
   31.7322    9.2499   21.3732 O   0  0  0  0  0  0  0  0  0  0  0  0
   33.4921    8.0604   17.7990 O   0  0  0  0  0  0  0  0  0  0  0  0
   32.7914    7.2373   16.8372 C   0  0  2  0  0  0  0  0  0  0  0  0
   33.1062    5.7387   16.9740 C   0  0  1  0  0  0  0  0  0  0  0  0
   34.5673    5.4326   16.5502 C   0  0  2  0  0  0  0  0  0  0  0  0
   34.7987    5.8952   15.1299 C   0  0  1  0  0  0  0  0  0  0  0  0
   34.5026    7.4105   15.0316 C   0  0  1  0  0  0  0  0  0  0  0  0
   34.6649    7.9550   13.6142 C   0  0  0  0  0  0  0  0  0  0  0  0
   36.1968    5.5951   14.7576 N   0  0  0  0  0  0  0  0  0  0  0  0
   33.1160    7.6709   15.4583 O   0  0  0  0  0  0  0  0  0  0  0  0
   32.8393    5.3425   18.3271 O   0  0  0  0  0  0  0  0  0  0  0  0
   34.8035    4.0196   16.6180 O   0  0  0  0  0  0  0  0  0  0  0  0
   34.2515    9.2950   13.5788 O   0  0  0  0  0  0  0  0  0  0  0  0
   27.0699    8.5039   18.9882 C   0  0  1  0  0  0  0  0  0  0  0  0
   28.0118    8.2499   17.7905 C   0  0  1  0  0  0  0  0  0  0  0  0
   28.2343    6.7347   17.5651 C   0  0  2  0  0  0  0  0  0  0  0  0
   28.8261    6.0987   18.8285 C   0  0  1  0  0  0  0  0  0  0  0  0
   27.8730    6.3140   20.0318 C   0  0  0  0  0  0  0  0  0  0  0  0
   27.6799    7.8188   20.2469 C   0  0  2  0  0  0  0  0  0  0  0  0
   29.0259    4.6486   18.6100 N   0  0  0  0  0  0  0  0  0  0  0  0
   26.7932    7.9798   21.3962 N   0  0  0  0  0  0  0  0  0  0  0  0
   27.4207    8.8120   16.5986 O   0  0  0  0  0  0  0  0  0  0  0  0
   29.1385    6.5568   16.4536 O   0  0  0  0  0  0  0  0  0  0  0  0
  1  2  1  0  0  0  0
  1 12  1  6  0  0  0
  1 13  1  0  0  0  0
  2  3  1  0  0  0  0
  2 10  1  6  0  0  0
  4  3  1  6  0  0  0
  4  5  1  0  0  0  0
  4 14  1  0  0  0  0
  5  6  1  0  0  0  0
  5 13  1  1  0  0  0
  6  7  1  0  0  0  0
  6 15  1  1  0  0  0
  7  8  1  0  0  0  0
  7 11  1  1  0  0  0
  8 14  1  0  0  0  0
  8 16  1  6  0  0  0
  9 11  1  0  0  0  0
 17 16  1  1  0  0  0
 17 18  1  0  0  0  0
 17 24  1  0  0  0  0
 18 19  1  0  0  0  0
 18 25  1  1  0  0  0
 19 20  1  0  0  0  0
 19 26  1  6  0  0  0
 20 21  1  0  0  0  0
 20 23  1  1  0  0  0
 21 22  1  6  0  0  0
 21 24  1  0  0  0  0
 22 27  1  0  0  0  0
 28 12  1  1  0  0  0
 28 29  1  0  0  0  0
 28 33  1  0  0  0  0
 29 30  1  0  0  0  0
 29 36  1  6  0  0  0
 30 31  1  0  0  0  0
 30 37  1  6  0  0  0
 31 32  1  0  0  0  0
 31 34  1  6  0  0  0
 32 33  1  0  0  0  0
 33 35  1  1  0  0  0
M  END
>  <CHROM.1>
113.64934735,48.04985656,63.97737533,-112.99042208,174.09715617,-80.37992345
30.94026875,7.92407905,18.10742896,-3.13853895,-0.63759036,2.49454133

>  <Name>
1yrj_lig

>  <RI>
0

>  <Rbt.Current_Directory>
/home/itssahil/PROJECTS/Mol_Feturizer/New_Systems/rnas/1yrj

>  <Rbt.Executable>
rbdock ($Id: //depot/dev/client3/rdock/2013.1/src/exe/rbdock.cxx#4 $)

>  <Rbt.Library>
libRbt.so (2013.1, Build901 2013/11/27)

>  <Rbt.Parameter_File>
/export/apps/rDock/src/rDock_2013.1_src/data/scripts/dock_solv.prm

>  <Rbt.Receptor>
prm/blind_docking_40.prm

>  <SCORE>
8.79393

>  <SCORE.INTER>
-1.11988

>  <SCORE.INTER.CONST>
1

>  <SCORE.INTER.POLAR>
-0.10296

>  <SCORE.INTER.ROT>
6

>  <SCORE.INTER.SOLV>
20.1655

>  <SCORE.INTER.VDW>
-14.7252

>  <SCORE.INTER.norm>
-0.0302671

>  <SCORE.INTRA>
5.86563

>  <SCORE.INTRA.DIHEDRAL>
0.441655

>  <SCORE.INTRA.DIHEDRAL.0>
15.6389

>  <SCORE.INTRA.POLAR>
0

>  <SCORE.INTRA.POLAR.0>
0

>  <SCORE.INTRA.REPUL>
0

>  <SCORE.INTRA.REPUL.0>
0

>  <SCORE.INTRA.SOLV>
3.42302

>  <SCORE.INTRA.SOLV.lig_0>
-90.9181

>  <SCORE.INTRA.VDW>
3.93329

>  <SCORE.INTRA.VDW.0>
-3.14158

>  <SCORE.INTRA.norm>
0.158531

>  <SCORE.RESTR>
4.04818

>  <SCORE.RESTR.CAVITY>
4.04818

>  <SCORE.RESTR.norm>
0.10941

>  <SCORE.SYSTEM>
0

>  <SCORE.SYSTEM.CONST>
0

>  <SCORE.SYSTEM.DIHEDRAL>
0

>  <SCORE.SYSTEM.SOLV>
0

>  <SCORE.SYSTEM.norm>
0

>  <SCORE.heavy>
37

>  <SCORE.norm>
0.237674

>  <RMSD>
15.318

$$$$
1yrj_lig
 OpenBabel11021811423D
libRbt.so/2013.1/901 2013/11/27
 37 40  0  0  0  0  0  0  0  0999 V2000
   36.2384    4.4962   18.5546 C   0  0  1  0  0  0  0  0  0  0  0  0
   35.2407    3.3364   18.7415 C   0  0  1  0  0  0  0  0  0  0  0  0
   33.7856    3.8015   18.5717 C   0  0  0  0  0  0  0  0  0  0  0  0
   33.4880    4.9799   19.5353 C   0  0  1  0  0  0  0  0  0  0  0  0
   34.4757    6.1338   19.2786 C   0  0  1  0  0  0  0  0  0  0  0  0
   34.1415    7.3294   20.2670 C   0  0  1  0  0  0  0  0  0  0  0  0
   32.6975    7.8038   20.0361 C   0  0  1  0  0  0  0  0  0  0  0  0
   31.7519    6.5985   20.2580 C   0  0  2  0  0  0  0  0  0  0  0  0
   31.2428    9.8390   20.5344 C   0  0  0  0  0  0  0  0  0  0  0  0
   35.5257    2.2143   17.8324 N   0  0  0  0  0  0  0  0  0  0  0  0
   32.3908    8.9641   20.9289 N   0  0  0  0  0  0  0  0  0  0  0  0
   36.3998    4.9038   17.1831 O   0  0  0  0  0  0  0  0  0  0  0  0
   35.8487    5.6133   19.4372 O   0  0  0  0  0  0  0  0  0  0  0  0
   32.1067    5.4909   19.3825 O   0  0  0  0  0  0  0  0  0  0  0  0
   34.2258    6.8731   21.6009 O   0  0  0  0  0  0  0  0  0  0  0  0
   30.3883    6.9369   20.0020 O   0  0  0  0  0  0  0  0  0  0  0  0
   29.4528    5.9458   20.4881 C   0  0  2  0  0  0  0  0  0  0  0  0
   28.7993    5.1230   19.3658 C   0  0  1  0  0  0  0  0  0  0  0  0
   27.8286    5.9944   18.5252 C   0  0  2  0  0  0  0  0  0  0  0  0
   26.7731    6.5999   19.4219 C   0  0  1  0  0  0  0  0  0  0  0  0
   27.4599    7.4444   20.5212 C   0  0  1  0  0  0  0  0  0  0  0  0
   26.4658    8.0568   21.5054 C   0  0  0  0  0  0  0  0  0  0  0  0
   25.8688    7.4259   18.5953 N   0  0  0  0  0  0  0  0  0  0  0  0
   28.3882    6.5946   21.2884 O   0  0  0  0  0  0  0  0  0  0  0  0
   29.8399    4.5437   18.5654 O   0  0  0  0  0  0  0  0  0  0  0  0
   27.1814    5.1803   17.5376 O   0  0  0  0  0  0  0  0  0  0  0  0
   25.6733    9.0037   20.8398 O   0  0  0  0  0  0  0  0  0  0  0  0
   35.8313    6.1924   16.6081 C   0  0  1  0  0  0  0  0  0  0  0  0
   34.2936    6.0460   16.5960 C   0  0  1  0  0  0  0  0  0  0  0  0
   33.6123    7.3395   16.0873 C   0  0  2  0  0  0  0  0  0  0  0  0
   34.0090    8.5245   16.9757 C   0  0  1  0  0  0  0  0  0  0  0  0
   35.5484    8.7063   16.9679 C   0  0  0  0  0  0  0  0  0  0  0  0
   36.2009    7.4219   17.4898 C   0  0  2  0  0  0  0  0  0  0  0  0
   33.3633    9.7594   16.4773 N   0  0  0  0  0  0  0  0  0  0  0  0
   37.6451    7.6389   17.4839 N   0  0  0  0  0  0  0  0  0  0  0  0
   33.9306    4.9575   15.7188 O   0  0  0  0  0  0  0  0  0  0  0  0
   32.1806    7.1560   16.1203 O   0  0  0  0  0  0  0  0  0  0  0  0
  1  2  1  0  0  0  0
  1 12  1  6  0  0  0
  1 13  1  0  0  0  0
  2  3  1  0  0  0  0
  2 10  1  6  0  0  0
  4  3  1  6  0  0  0
  4  5  1  0  0  0  0
  4 14  1  0  0  0  0
  5  6  1  0  0  0  0
  5 13  1  1  0  0  0
  6  7  1  0  0  0  0
  6 15  1  1  0  0  0
  7  8  1  0  0  0  0
  7 11  1  1  0  0  0
  8 14  1  0  0  0  0
  8 16  1  6  0  0  0
  9 11  1  0  0  0  0
 17 16  1  6  0  0  0
 17 18  1  0  0  0  0
 17 24  1  0  0  0  0
 18 19  1  0  0  0  0
 18 25  1  6  0  0  0
 19 20  1  0  0  0  0
 19 26  1  6  0  0  0
 20 21  1  0  0  0  0
 20 23  1  6  0  0  0
 21 22  1  1  0  0  0
 21 24  1  0  0  0  0
 22 27  1  0  0  0  0
 28 12  1  1  0  0  0
 28 29  1  0  0  0  0
 28 33  1  0  0  0  0
 29 30  1  0  0  0  0
 29 36  1  6  0  0  0
 30 31  1  0  0  0  0
 30 37  1  1  0  0  0
 31 32  1  0  0  0  0
 31 34  1  6  0  0  0
 32 33  1  0  0  0  0
 33 35  1  6  0  0  0
M  END
>  <CHROM.1>
106.62707213,159.70289460,-166.57628662,-107.48453283,-66.36214033,-68.13548033
32.12879666,6.50901109,18.80096459,0.20418636,-0.22745624,-2.89468199

>  <Name>
1yrj_lig

>  <RI>
0

>  <Rbt.Current_Directory>
/home/itssahil/PROJECTS/Mol_Feturizer/New_Systems/rnas/1yrj

>  <Rbt.Executable>
rbdock ($Id: //depot/dev/client3/rdock/2013.1/src/exe/rbdock.cxx#4 $)

>  <Rbt.Library>
libRbt.so (2013.1, Build901 2013/11/27)

>  <Rbt.Parameter_File>
/export/apps/rDock/src/rDock_2013.1_src/data/scripts/dock_solv.prm

>  <Rbt.Receptor>
prm/blind_docking_100.prm

>  <SCORE>
-11.36

>  <SCORE.INTER>
-14.6783

>  <SCORE.INTER.CONST>
1

>  <SCORE.INTER.POLAR>
-1.91779

>  <SCORE.INTER.ROT>
6

>  <SCORE.INTER.SOLV>
18.2127

>  <SCORE.INTER.VDW>
-17.0638

>  <SCORE.INTER.norm>
-0.396711

>  <SCORE.INTRA>
3.05694

>  <SCORE.INTRA.DIHEDRAL>
-1.25022

>  <SCORE.INTRA.DIHEDRAL.0>
15.6389

>  <SCORE.INTRA.POLAR>
0

>  <SCORE.INTRA.POLAR.0>
0

>  <SCORE.INTRA.REPUL>
0

>  <SCORE.INTRA.REPUL.0>
0

>  <SCORE.INTRA.SOLV>
3.06319

>  <SCORE.INTRA.SOLV.lig_0>
-90.9181

>  <SCORE.INTRA.VDW>
2.15045

>  <SCORE.INTRA.VDW.0>
-3.14158

>  <SCORE.INTRA.norm>
0.08262

>  <SCORE.RESTR>
0.261389

>  <SCORE.RESTR.CAVITY>
0.261389

>  <SCORE.RESTR.norm>
0.00706457

>  <SCORE.SYSTEM>
0

>  <SCORE.SYSTEM.CONST>
0

>  <SCORE.SYSTEM.DIHEDRAL>
0

>  <SCORE.SYSTEM.SOLV>
0

>  <SCORE.SYSTEM.norm>
0

>  <SCORE.heavy>
37

>  <SCORE.norm>
-0.307026

>  <RMSD>
15.333

$$$$
1yrj_lig
 OpenBabel11021811423D
libRbt.so/2013.1/901 2013/11/27
 37 40  0  0  0  0  0  0  0  0999 V2000
   35.2423    8.9789   19.7273 C   0  0  1  0  0  0  0  0  0  0  0  0
   34.6597    7.9958   20.7615 C   0  0  1  0  0  0  0  0  0  0  0  0
   33.2898    7.4526   20.3250 C   0  0  0  0  0  0  0  0  0  0  0  0
   32.3196    8.6276   20.0351 C   0  0  1  0  0  0  0  0  0  0  0  0
   32.9197    9.5546   18.9611 C   0  0  1  0  0  0  0  0  0  0  0  0
   31.9031   10.7389   18.6744 C   0  0  1  0  0  0  0  0  0  0  0  0
   30.5615   10.1641   18.1915 C   0  0  1  0  0  0  0  0  0  0  0  0
   30.0269    9.2044   19.2822 C   0  0  2  0  0  0  0  0  0  0  0  0
   28.9159   11.9266   19.0235 C   0  0  0  0  0  0  0  0  0  0  0  0
   35.5821    6.8836   21.0431 N   0  0  0  0  0  0  0  0  0  0  0  0
   29.6138   11.2760   17.8707 N   0  0  0  0  0  0  0  0  0  0  0  0
   35.7386    8.3380   18.5372 O   0  0  0  0  0  0  0  0  0  0  0  0
   34.2386   10.0208   19.4350 O   0  0  0  0  0  0  0  0  0  0  0  0
   30.9944    8.1561   19.5724 O   0  0  0  0  0  0  0  0  0  0  0  0
   31.6520   11.4424   19.8730 O   0  0  0  0  0  0  0  0  0  0  0  0
   28.8076    8.5748   18.8867 O   0  0  0  0  0  0  0  0  0  0  0  0
   29.0058    7.4644   17.9804 C   0  0  2  0  0  0  0  0  0  0  0  0
   27.7278    7.0548   17.2302 C   0  0  1  0  0  0  0  0  0  0  0  0
   26.6948    6.4121   18.1936 C   0  0  2  0  0  0  0  0  0  0  0  0
   27.3100    5.2167   18.8845 C   0  0  1  0  0  0  0  0  0  0  0  0
   28.5750    5.6661   19.6534 C   0  0  1  0  0  0  0  0  0  0  0  0
   29.2907    4.5078   20.3447 C   0  0  0  0  0  0  0  0  0  0  0  0
   26.3061    4.6304   19.7964 N   0  0  0  0  0  0  0  0  0  0  0  0
   29.5269    6.2888   18.7161 O   0  0  0  0  0  0  0  0  0  0  0  0
   27.2027    8.2133   16.5660 O   0  0  0  0  0  0  0  0  0  0  0  0
   25.5489    5.9746   17.4503 O   0  0  0  0  0  0  0  0  0  0  0  0
   30.2029    5.0155   21.2817 O   0  0  0  0  0  0  0  0  0  0  0  0
   36.6289    9.0242   17.5120 C   0  0  1  0  0  0  0  0  0  0  0  0
   38.0908    8.8096   17.9624 C   0  0  1  0  0  0  0  0  0  0  0  0
   39.0851    9.4167   16.9432 C   0  0  2  0  0  0  0  0  0  0  0  0
   38.8737    8.7819   15.5635 C   0  0  1  0  0  0  0  0  0  0  0  0
   37.4199    9.0217   15.0823 C   0  0  0  0  0  0  0  0  0  0  0  0
   36.4541    8.3994   16.0961 C   0  0  2  0  0  0  0  0  0  0  0  0
   39.8197    9.3746   14.5918 N   0  0  0  0  0  0  0  0  0  0  0  0
   35.1002    8.6300   15.5996 N   0  0  0  0  0  0  0  0  0  0  0  0
   38.2895    9.4526   19.2403 O   0  0  0  0  0  0  0  0  0  0  0  0
   40.4317    9.1662   17.4001 O   0  0  0  0  0  0  0  0  0  0  0  0
  1  2  1  0  0  0  0
  1 12  1  6  0  0  0
  1 13  1  0  0  0  0
  2  3  1  0  0  0  0
  2 10  1  6  0  0  0
  4  3  1  6  0  0  0
  4  5  1  0  0  0  0
  4 14  1  0  0  0  0
  5  6  1  0  0  0  0
  5 13  1  1  0  0  0
  6  7  1  0  0  0  0
  6 15  1  1  0  0  0
  7  8  1  0  0  0  0
  7 11  1  1  0  0  0
  8 14  1  0  0  0  0
  8 16  1  6  0  0  0
  9 11  1  0  0  0  0
 17 16  1  1  0  0  0
 17 18  1  0  0  0  0
 17 24  1  0  0  0  0
 18 19  1  0  0  0  0
 18 25  1  1  0  0  0
 19 20  1  0  0  0  0
 19 26  1  6  0  0  0
 20 21  1  0  0  0  0
 20 23  1  1  0  0  0
 21 22  1  6  0  0  0
 21 24  1  0  0  0  0
 22 27  1  0  0  0  0
 28 12  1  1  0  0  0
 28 29  1  0  0  0  0
 28 33  1  0  0  0  0
 29 30  1  0  0  0  0
 29 36  1  1  0  0  0
 30 31  1  0  0  0  0
 30 37  1  1  0  0  0
 31 32  1  0  0  0  0
 31 34  1  6  0  0  0
 32 33  1  0  0  0  0
 33 35  1  6  0  0  0
M  END
>  <CHROM.1>
-165.90610282,-79.49304828,79.17198881,-162.80007548,-165.05224566,88.74686782
32.50926211,8.27048599,18.46047176,-0.25671419,-0.03400569,2.65859369

>  <Name>
1yrj_lig

>  <RI>
0

>  <Rbt.Current_Directory>
/home/itssahil/PROJECTS/Mol_Feturizer/New_Systems/rnas/1yrj

>  <Rbt.Executable>
rbdock ($Id: //depot/dev/client3/rdock/2013.1/src/exe/rbdock.cxx#4 $)

>  <Rbt.Library>
libRbt.so (2013.1, Build901 2013/11/27)

>  <Rbt.Parameter_File>
/export/apps/rDock/src/rDock_2013.1_src/data/scripts/dock_solv.prm

>  <Rbt.Receptor>
prm/blind_docking_100.prm

>  <SCORE>
-7.85213

>  <SCORE.INTER>
-6.22671

>  <SCORE.INTER.CONST>
1

>  <SCORE.INTER.POLAR>
0

>  <SCORE.INTER.ROT>
6

>  <SCORE.INTER.SOLV>
12.3327

>  <SCORE.INTER.VDW>
-15.862

>  <SCORE.INTER.norm>
-0.168289

>  <SCORE.INTRA>
-1.62542

>  <SCORE.INTRA.DIHEDRAL>
-7.17412

>  <SCORE.INTRA.DIHEDRAL.0>
15.6389

>  <SCORE.INTRA.POLAR>
0

>  <SCORE.INTRA.POLAR.0>
0

>  <SCORE.INTRA.REPUL>
0

>  <SCORE.INTRA.REPUL.0>
0

>  <SCORE.INTRA.SOLV>
-1.31091

>  <SCORE.INTRA.SOLV.lig_0>
-90.9181

>  <SCORE.INTRA.VDW>
2.6171

>  <SCORE.INTRA.VDW.0>
-3.14158

>  <SCORE.INTRA.norm>
-0.0439302

>  <SCORE.RESTR>
0

>  <SCORE.RESTR.CAVITY>
0

>  <SCORE.RESTR.norm>
0

>  <SCORE.SYSTEM>
0

>  <SCORE.SYSTEM.CONST>
0

>  <SCORE.SYSTEM.DIHEDRAL>
0

>  <SCORE.SYSTEM.SOLV>
0

>  <SCORE.SYSTEM.norm>
0

>  <SCORE.heavy>
37

>  <SCORE.norm>
-0.21222

>  <RMSD>
15.364

$$$$
1yrj_lig
 OpenBabel11021811423D
libRbt.so/2013.1/901 2013/11/27
 37 40  0  0  0  0  0  0  0  0999 V2000
   28.1872   10.9280   19.9337 C   0  0  1  0  0  0  0  0  0  0  0  0
   28.9568   11.9380   19.0602 C   0  0  1  0  0  0  0  0  0  0  0  0
   29.9350   11.2374   18.1038 C   0  0  0  0  0  0  0  0  0  0  0  0
   30.8941   10.3178   18.9037 C   0  0  1  0  0  0  0  0  0  0  0  0
   30.0839    9.2938   19.7210 C   0  0  1  0  0  0  0  0  0  0  0  0
   31.0878    8.3587   20.5184 C   0  0  1  0  0  0  0  0  0  0  0  0
   32.0170    7.6350   19.5302 C   0  0  1  0  0  0  0  0  0  0  0  0
   32.7691    8.7053   18.7024 C   0  0  2  0  0  0  0  0  0  0  0  0
   33.7816    5.7949   19.4477 C   0  0  0  0  0  0  0  0  0  0  0  0
   28.0480   12.8163   18.3054 N   0  0  0  0  0  0  0  0  0  0  0  0
   32.9332    6.7130   20.2703 N   0  0  0  0  0  0  0  0  0  0  0  0
   27.1651   10.2079   19.2196 O   0  0  0  0  0  0  0  0  0  0  0  0
   29.1538   10.0324   20.5989 O   0  0  0  0  0  0  0  0  0  0  0  0
   31.8335    9.5885   18.0215 O   0  0  0  0  0  0  0  0  0  0  0  0
   31.9018    9.1514   21.3571 O   0  0  0  0  0  0  0  0  0  0  0  0
   33.6127    8.1168   17.7117 O   0  0  0  0  0  0  0  0  0  0  0  0
   32.9328    7.8632   16.4599 C   0  0  2  0  0  0  0  0  0  0  0  0
   32.6482    6.3727   16.2124 C   0  0  1  0  0  0  0  0  0  0  0  0
   33.9611    5.5883   15.9492 C   0  0  2  0  0  0  0  0  0  0  0  0
   34.6931    6.1907   14.7719 C   0  0  1  0  0  0  0  0  0  0  0  0
   34.9907    7.6806   15.0634 C   0  0  1  0  0  0  0  0  0  0  0  0
   35.6890    8.3836   13.9015 C   0  0  0  0  0  0  0  0  0  0  0  0
   35.9384    5.4270   14.5494 N   0  0  0  0  0  0  0  0  0  0  0  0
   33.7280    8.3934   15.3279 O   0  0  0  0  0  0  0  0  0  0  0  0
   31.9249    5.8575   17.3395 O   0  0  0  0  0  0  0  0  0  0  0  0
   33.6537    4.2200   15.6486 O   0  0  0  0  0  0  0  0  0  0  0  0
   35.9115    9.7278   14.2351 O   0  0  0  0  0  0  0  0  0  0  0  0
   27.3819    8.8515   18.5656 C   0  0  1  0  0  0  0  0  0  0  0  0
   26.9431    7.7786   19.5866 C   0  0  1  0  0  0  0  0  0  0  0  0
   27.0623    6.3557   18.9890 C   0  0  2  0  0  0  0  0  0  0  0  0
   26.2018    6.2448   17.7248 C   0  0  1  0  0  0  0  0  0  0  0  0
   26.6558    7.2922   16.6761 C   0  0  0  0  0  0  0  0  0  0  0  0
   26.5143    8.6924   17.2820 C   0  0  2  0  0  0  0  0  0  0  0  0
   26.3291    4.8858   17.1526 N   0  0  0  0  0  0  0  0  0  0  0  0
   26.9332    9.6485   16.2606 N   0  0  0  0  0  0  0  0  0  0  0  0
   27.7916    7.8622   20.7524 O   0  0  0  0  0  0  0  0  0  0  0  0
   26.6175    5.3980   19.9738 O   0  0  0  0  0  0  0  0  0  0  0  0
  1  2  1  0  0  0  0
  1 12  1  6  0  0  0
  1 13  1  0  0  0  0
  2  3  1  0  0  0  0
  2 10  1  6  0  0  0
  4  3  1  6  0  0  0
  4  5  1  0  0  0  0
  4 14  1  0  0  0  0
  5  6  1  0  0  0  0
  5 13  1  1  0  0  0
  6  7  1  0  0  0  0
  6 15  1  1  0  0  0
  7  8  1  0  0  0  0
  7 11  1  1  0  0  0
  8 14  1  0  0  0  0
  8 16  1  6  0  0  0
  9 11  1  0  0  0  0
 17 16  1  1  0  0  0
 17 18  1  0  0  0  0
 17 24  1  0  0  0  0
 18 19  1  0  0  0  0
 18 25  1  1  0  0  0
 19 20  1  0  0  0  0
 19 26  1  6  0  0  0
 20 21  1  0  0  0  0
 20 23  1  1  0  0  0
 21 22  1  6  0  0  0
 21 24  1  0  0  0  0
 22 27  1  0  0  0  0
 28 12  1  1  0  0  0
 28 29  1  0  0  0  0
 28 33  1  0  0  0  0
 29 30  1  0  0  0  0
 29 36  1  1  0  0  0
 30 31  1  0  0  0  0
 30 37  1  1  0  0  0
 31 32  1  0  0  0  0
 31 34  1  6  0  0  0
 32 33  1  0  0  0  0
 33 35  1  6  0  0  0
M  END
>  <CHROM.1>
93.44669675,172.13082786,87.70390055,-106.91228496,179.39580730,94.10809832
30.76163765,8.08743658,17.89767696,-2.79871731,-0.34806182,-2.80514875

>  <Name>
1yrj_lig

>  <RI>
0

>  <Rbt.Current_Directory>
/home/itssahil/PROJECTS/Mol_Feturizer/New_Systems/rnas/1yrj

>  <Rbt.Executable>
rbdock ($Id: //depot/dev/client3/rdock/2013.1/src/exe/rbdock.cxx#4 $)

>  <Rbt.Library>
libRbt.so (2013.1, Build901 2013/11/27)

>  <Rbt.Parameter_File>
/export/apps/rDock/src/rDock_2013.1_src/data/scripts/dock_solv.prm

>  <Rbt.Receptor>
prm/blind_docking_40.prm

>  <SCORE>
5.41852

>  <SCORE.INTER>
-3.53419

>  <SCORE.INTER.CONST>
1

>  <SCORE.INTER.POLAR>
-0.897089

>  <SCORE.INTER.ROT>
6

>  <SCORE.INTER.SOLV>
16.8527

>  <SCORE.INTER.VDW>
-12.5834

>  <SCORE.INTER.norm>
-0.0955186

>  <SCORE.INTRA>
3.95567

>  <SCORE.INTRA.DIHEDRAL>
2.56022

>  <SCORE.INTRA.DIHEDRAL.0>
15.6389

>  <SCORE.INTRA.POLAR>
0

>  <SCORE.INTRA.POLAR.0>
0

>  <SCORE.INTRA.REPUL>
0

>  <SCORE.INTRA.REPUL.0>
0

>  <SCORE.INTRA.SOLV>
1.0862

>  <SCORE.INTRA.SOLV.lig_0>
-90.9181

>  <SCORE.INTRA.VDW>
2.13246

>  <SCORE.INTRA.VDW.0>
-3.14158

>  <SCORE.INTRA.norm>
0.10691

>  <SCORE.RESTR>
4.99704

>  <SCORE.RESTR.CAVITY>
4.99704

>  <SCORE.RESTR.norm>
0.135055

>  <SCORE.SYSTEM>
0

>  <SCORE.SYSTEM.CONST>
0

>  <SCORE.SYSTEM.DIHEDRAL>
0

>  <SCORE.SYSTEM.SOLV>
0

>  <SCORE.SYSTEM.norm>
0

>  <SCORE.heavy>
37

>  <SCORE.norm>
0.146447

>  <RMSD>
15.367

$$$$
1yrj_lig
 OpenBabel11021811423D
libRbt.so/2013.1/901 2013/11/27
 37 40  0  0  0  0  0  0  0  0999 V2000
   28.2235   11.0566   20.0593 C   0  0  1  0  0  0  0  0  0  0  0  0
   28.9555   11.9546   19.0428 C   0  0  1  0  0  0  0  0  0  0  0  0
   29.6269   11.1309   17.9323 C   0  0  0  0  0  0  0  0  0  0  0  0
   30.5744   10.0722   18.5545 C   0  0  1  0  0  0  0  0  0  0  0  0
   29.7904    9.1669   19.5235 C   0  0  1  0  0  0  0  0  0  0  0  0
   30.7787    8.0865   20.1350 C   0  0  1  0  0  0  0  0  0  0  0  0
   31.3932    7.2475   19.0028 C   0  0  1  0  0  0  0  0  0  0  0  0
   32.1255    8.2070   18.0336 C   0  0  2  0  0  0  0  0  0  0  0  0
   32.6224    5.0346   18.6886 C   0  0  0  0  0  0  0  0  0  0  0  0
   28.0594   12.9645   18.4562 N   0  0  0  0  0  0  0  0  0  0  0  0
   32.2876    6.1934   19.5742 N   0  0  0  0  0  0  0  0  0  0  0  0
   26.9931   10.5012   19.5583 O   0  0  0  0  0  0  0  0  0  0  0  0
   29.1566   10.0223   20.5472 O   0  0  0  0  0  0  0  0  0  0  0  0
   31.2178    9.2248   17.5246 O   0  0  0  0  0  0  0  0  0  0  0  0
   31.8405    8.7425   20.7960 O   0  0  0  0  0  0  0  0  0  0  0  0
   32.6761    7.5141   16.9127 O   0  0  0  0  0  0  0  0  0  0  0  0
   34.1200    7.4265   16.9482 C   0  0  2  0  0  0  0  0  0  0  0  0
   34.8179    8.7767   16.7172 C   0  0  1  0  0  0  0  0  0  0  0  0
   34.6310    9.2606   15.2547 C   0  0  2  0  0  0  0  0  0  0  0  0
   35.1615    8.2190   14.2964 C   0  0  1  0  0  0  0  0  0  0  0  0
   34.4200    6.8821   14.5333 C   0  0  1  0  0  0  0  0  0  0  0  0
   34.9288    5.7556   13.6366 C   0  0  0  0  0  0  0  0  0  0  0  0
   34.9656    8.7053   12.9149 N   0  0  0  0  0  0  0  0  0  0  0  0
   34.6001    6.4595   15.9337 O   0  0  0  0  0  0  0  0  0  0  0  0
   34.3056    9.7192   17.6703 O   0  0  0  0  0  0  0  0  0  0  0  0
   35.3557   10.4819   15.0540 O   0  0  0  0  0  0  0  0  0  0  0  0
   36.2715    5.4868   13.9414 O   0  0  0  0  0  0  0  0  0  0  0  0
   26.7572    9.0131   19.3481 C   0  0  1  0  0  0  0  0  0  0  0  0
   27.5736    8.5939   18.1056 C   0  0  1  0  0  0  0  0  0  0  0  0
   27.4536    7.0729   17.8443 C   0  0  2  0  0  0  0  0  0  0  0  0
   27.9431    6.2909   19.0690 C   0  0  1  0  0  0  0  0  0  0  0  0
   27.1075    6.6747   20.3169 C   0  0  0  0  0  0  0  0  0  0  0  0
   27.2535    8.1795   20.5664 C   0  0  2  0  0  0  0  0  0  0  0  0
   27.8153    4.8382   18.8168 N   0  0  0  0  0  0  0  0  0  0  0  0
   26.4690    8.4973   21.7565 N   0  0  0  0  0  0  0  0  0  0  0  0
   27.0716    9.3015   16.9509 O   0  0  0  0  0  0  0  0  0  0  0  0
   28.2531    6.7338   16.6909 O   0  0  0  0  0  0  0  0  0  0  0  0
  1  2  1  0  0  0  0
  1 12  1  6  0  0  0
  1 13  1  0  0  0  0
  2  3  1  0  0  0  0
  2 10  1  6  0  0  0
  4  3  1  6  0  0  0
  4  5  1  0  0  0  0
  4 14  1  0  0  0  0
  5  6  1  0  0  0  0
  5 13  1  1  0  0  0
  6  7  1  0  0  0  0
  6 15  1  6  0  0  0
  7  8  1  0  0  0  0
  7 11  1  1  0  0  0
  8 14  1  0  0  0  0
  8 16  1  6  0  0  0
  9 11  1  0  0  0  0
 17 16  1  6  0  0  0
 17 18  1  0  0  0  0
 17 24  1  0  0  0  0
 18 19  1  0  0  0  0
 18 25  1  1  0  0  0
 19 20  1  0  0  0  0
 19 26  1  1  0  0  0
 20 21  1  0  0  0  0
 20 23  1  6  0  0  0
 21 22  1  6  0  0  0
 21 24  1  0  0  0  0
 22 27  1  0  0  0  0
 28 12  1  1  0  0  0
 28 29  1  0  0  0  0
 28 33  1  0  0  0  0
 29 30  1  0  0  0  0
 29 36  1  6  0  0  0
 30 31  1  0  0  0  0
 30 37  1  6  0  0  0
 31 32  1  0  0  0  0
 31 34  1  6  0  0  0
 32 33  1  0  0  0  0
 33 35  1  1  0  0  0
M  END
>  <CHROM.1>
115.61493791,161.18841194,-108.59881171,-69.92297787,63.41637662,-73.03138763
30.94732881,8.36001133,17.83358528,-2.97120434,-0.55728436,3.13639716

>  <Name>
1yrj_lig

>  <RI>
0

>  <Rbt.Current_Directory>
/home/itssahil/PROJECTS/Mol_Feturizer/New_Systems/rnas/1yrj

>  <Rbt.Executable>
rbdock ($Id: //depot/dev/client3/rdock/2013.1/src/exe/rbdock.cxx#4 $)

>  <Rbt.Library>
libRbt.so (2013.1, Build901 2013/11/27)

>  <Rbt.Parameter_File>
/export/apps/rDock/src/rDock_2013.1_src/data/scripts/dock_solv.prm

>  <Rbt.Receptor>
prm/blind_docking_40.prm

>  <SCORE>
4.36568

>  <SCORE.INTER>
-3.57316

>  <SCORE.INTER.CONST>
1

>  <SCORE.INTER.POLAR>
-0.0229195

>  <SCORE.INTER.ROT>
6

>  <SCORE.INTER.SOLV>
18.8577

>  <SCORE.INTER.VDW>
-16.1916

>  <SCORE.INTER.norm>
-0.0965718

>  <SCORE.INTRA>
2.70543

>  <SCORE.INTRA.DIHEDRAL>
-0.420269

>  <SCORE.INTRA.DIHEDRAL.0>
15.6389

>  <SCORE.INTRA.POLAR>
0

>  <SCORE.INTRA.POLAR.0>
0

>  <SCORE.INTRA.REPUL>
0

>  <SCORE.INTRA.REPUL.0>
0

>  <SCORE.INTRA.SOLV>
1.93207

>  <SCORE.INTRA.SOLV.lig_0>
-90.9181

>  <SCORE.INTRA.VDW>
1.94953

>  <SCORE.INTRA.VDW.0>
-3.14158

>  <SCORE.INTRA.norm>
0.0731198

>  <SCORE.RESTR>
5.2334

>  <SCORE.RESTR.CAVITY>
5.2334

>  <SCORE.RESTR.norm>
0.141443

>  <SCORE.SYSTEM>
0

>  <SCORE.SYSTEM.CONST>
0

>  <SCORE.SYSTEM.DIHEDRAL>
0

>  <SCORE.SYSTEM.SOLV>
0

>  <SCORE.SYSTEM.norm>
0

>  <SCORE.heavy>
37

>  <SCORE.norm>
0.117991

>  <RMSD>
15.387

$$$$
1yrj_lig
 OpenBabel11021811423D
libRbt.so/2013.1/901 2013/11/27
 37 40  0  0  0  0  0  0  0  0999 V2000
   36.2432    5.8243   19.9858 C   0  0  1  0  0  0  0  0  0  0  0  0
   35.3667    4.5613   20.0963 C   0  0  1  0  0  0  0  0  0  0  0  0
   33.9284    4.8205   19.6203 C   0  0  0  0  0  0  0  0  0  0  0  0
   33.3184    6.0162   20.3974 C   0  0  1  0  0  0  0  0  0  0  0  0
   34.1992    7.2671   20.2173 C   0  0  1  0  0  0  0  0  0  0  0  0
   33.5467    8.4768   21.0103 C   0  0  1  0  0  0  0  0  0  0  0  0
   32.1300    8.7423   20.4757 C   0  0  1  0  0  0  0  0  0  0  0  0
   31.3028    7.4435   20.6343 C   0  0  2  0  0  0  0  0  0  0  0  0
   30.5557   10.7482   20.4090 C   0  0  0  0  0  0  0  0  0  0  0  0
   35.9476    3.4234   19.3649 N   0  0  0  0  0  0  0  0  0  0  0  0
   31.5268    9.9138   21.1836 N   0  0  0  0  0  0  0  0  0  0  0  0
   36.6186    6.1502   18.6345 O   0  0  0  0  0  0  0  0  0  0  0  0
   35.5660    6.9416   20.6726 O   0  0  0  0  0  0  0  0  0  0  0  0
   31.9435    6.3315   19.9472 O   0  0  0  0  0  0  0  0  0  0  0  0
   33.4235    8.1319   22.3743 O   0  0  0  0  0  0  0  0  0  0  0  0
   29.9847    7.5831   20.1027 O   0  0  0  0  0  0  0  0  0  0  0  0
   29.1142    6.4762   20.4356 C   0  0  2  0  0  0  0  0  0  0  0  0
   28.7398    5.6096   19.2222 C   0  0  1  0  0  0  0  0  0  0  0  0
   27.8068    6.3800   18.2505 C   0  0  2  0  0  0  0  0  0  0  0  0
   26.5640    6.8335   18.9817 C   0  0  1  0  0  0  0  0  0  0  0  0
   26.9719    7.7262   20.1776 C   0  0  1  0  0  0  0  0  0  0  0  0
   25.7756    8.1915   21.0046 C   0  0  0  0  0  0  0  0  0  0  0  0
   25.6996    7.5664   18.0336 N   0  0  0  0  0  0  0  0  0  0  0  0
   27.8716    6.9739   21.0704 O   0  0  0  0  0  0  0  0  0  0  0  0
   29.9505    5.1780   18.5841 O   0  0  0  0  0  0  0  0  0  0  0  0
   27.4174    5.5195   17.1713 O   0  0  0  0  0  0  0  0  0  0  0  0
   26.2144    9.0690   22.0072 O   0  0  0  0  0  0  0  0  0  0  0  0
   35.6757    6.7793   17.6198 C   0  0  1  0  0  0  0  0  0  0  0  0
   36.2484    8.1699   17.2674 C   0  0  1  0  0  0  0  0  0  0  0  0
   35.3919    8.8697   16.1844 C   0  0  2  0  0  0  0  0  0  0  0  0
   35.3339    8.0023   14.9213 C   0  0  1  0  0  0  0  0  0  0  0  0
   34.7263    6.6154   15.2532 C   0  0  0  0  0  0  0  0  0  0  0  0
   35.5977    5.9345   16.3138 C   0  0  2  0  0  0  0  0  0  0  0  0
   34.5046    8.6719   13.8944 N   0  0  0  0  0  0  0  0  0  0  0  0
   35.0045    4.6279   16.5853 N   0  0  0  0  0  0  0  0  0  0  0  0
   36.2534    8.9924   18.4546 O   0  0  0  0  0  0  0  0  0  0  0  0
   35.9848   10.1498   15.8767 O   0  0  0  0  0  0  0  0  0  0  0  0
  1  2  1  0  0  0  0
  1 12  1  6  0  0  0
  1 13  1  0  0  0  0
  2  3  1  0  0  0  0
  2 10  1  6  0  0  0
  4  3  1  6  0  0  0
  4  5  1  0  0  0  0
  4 14  1  0  0  0  0
  5  6  1  0  0  0  0
  5 13  1  1  0  0  0
  6  7  1  0  0  0  0
  6 15  1  1  0  0  0
  7  8  1  0  0  0  0
  7 11  1  1  0  0  0
  8 14  1  0  0  0  0
  8 16  1  6  0  0  0
  9 11  1  0  0  0  0
 17 16  1  6  0  0  0
 17 18  1  0  0  0  0
 17 24  1  0  0  0  0
 18 19  1  0  0  0  0
 18 25  1  6  0  0  0
 19 20  1  0  0  0  0
 19 26  1  6  0  0  0
 20 21  1  0  0  0  0
 20 23  1  6  0  0  0
 21 22  1  1  0  0  0
 21 24  1  0  0  0  0
 22 27  1  0  0  0  0
 28 12  1  1  0  0  0
 28 29  1  0  0  0  0
 28 33  1  0  0  0  0
 29 30  1  0  0  0  0
 29 36  1  1  0  0  0
 30 31  1  0  0  0  0
 30 37  1  6  0  0  0
 31 32  1  0  0  0  0
 31 34  1  6  0  0  0
 32 33  1  0  0  0  0
 33 35  1  1  0  0  0
M  END
>  <CHROM.1>
75.56044745,149.17596890,-170.03668249,-111.34654308,-175.80904469,116.20873401
32.20182327,7.17492876,19.01157589,-0.28601494,-0.03877176,1.52057339

>  <Name>
1yrj_lig

>  <RI>
224

>  <Rbt.Current_Directory>
/home/itssahil/PROJECTS/Mol_Feturizer/New_Systems/rnas/1yrj

>  <Rbt.Executable>
rbdock ($Id: //depot/dev/client3/rdock/2013.1/src/exe/rbdock.cxx#4 $)

>  <Rbt.Library>
libRbt.so (2013.1, Build901 2013/11/27)

>  <Rbt.Parameter_File>
/export/apps/rDock/src/rDock_2013.1_src/data/scripts/dock_solv.prm

>  <Rbt.Receptor>
prm/blind_docking_80.prm

>  <SCORE>
-11.535

>  <SCORE.INTER>
-11.9256

>  <SCORE.INTER.CONST>
1

>  <SCORE.INTER.POLAR>
-0.867194

>  <SCORE.INTER.ROT>
6

>  <SCORE.INTER.SOLV>
19.8871

>  <SCORE.INTER.VDW>
-19.2888

>  <SCORE.INTER.norm>
-0.322314

>  <SCORE.INTRA>
0.190231

>  <SCORE.INTRA.DIHEDRAL>
0.668348

>  <SCORE.INTRA.DIHEDRAL.0>
15.6389

>  <SCORE.INTRA.POLAR>
0

>  <SCORE.INTRA.POLAR.0>
0

>  <SCORE.INTRA.REPUL>
0

>  <SCORE.INTRA.REPUL.0>
0

>  <SCORE.INTRA.SOLV>
2.07231

>  <SCORE.INTRA.SOLV.lig_0>
-90.9181

>  <SCORE.INTRA.VDW>
-1.1801

>  <SCORE.INTRA.VDW.0>
-3.14158

>  <SCORE.INTRA.norm>
0.00514138

>  <SCORE.RESTR>
0.200409

>  <SCORE.RESTR.CAVITY>
0.200409

>  <SCORE.RESTR.norm>
0.00541645

>  <SCORE.SYSTEM>
0

>  <SCORE.SYSTEM.CONST>
0

>  <SCORE.SYSTEM.DIHEDRAL>
0

>  <SCORE.SYSTEM.SOLV>
0

>  <SCORE.SYSTEM.norm>
0

>  <SCORE.heavy>
37

>  <SCORE.norm>
-0.311756

>  <RMSD>
15.542

$$$$
1yrj_lig
 OpenBabel11021811423D
libRbt.so/2013.1/901 2013/11/27
 37 40  0  0  0  0  0  0  0  0999 V2000
   34.1056    6.8762   18.4589 C   0  0  1  0  0  0  0  0  0  0  0  0
   33.6537    5.7359   19.3921 C   0  0  1  0  0  0  0  0  0  0  0  0
   32.1464    5.4612   19.2702 C   0  0  0  0  0  0  0  0  0  0  0  0
   31.3460    6.7655   19.5231 C   0  0  1  0  0  0  0  0  0  0  0  0
   31.7948    7.8598   18.5361 C   0  0  1  0  0  0  0  0  0  0  0  0
   30.9527    9.1771   18.8074 C   0  0  1  0  0  0  0  0  0  0  0  0
   29.4550    8.8803   18.6275 C   0  0  1  0  0  0  0  0  0  0  0  0
   29.0672    7.7437   19.6043 C   0  0  2  0  0  0  0  0  0  0  0  0
   27.4843   10.3408   17.9275 C   0  0  0  0  0  0  0  0  0  0  0  0
   34.4170    4.4990   19.1582 N   0  0  0  0  0  0  0  0  0  0  0  0
   28.6574   10.1291   18.8320 N   0  0  0  0  0  0  0  0  0  0  0  0
   34.1623    6.4982   17.0707 O   0  0  0  0  0  0  0  0  0  0  0  0
   33.2503    8.0564   18.6919 O   0  0  0  0  0  0  0  0  0  0  0  0
   29.8865    6.5618   19.3786 O   0  0  0  0  0  0  0  0  0  0  0  0
   31.1420    9.5880   20.1453 O   0  0  0  0  0  0  0  0  0  0  0  0
   27.6993    7.3601   19.4591 O   0  0  0  0  0  0  0  0  0  0  0  0
   27.4578    6.5345   18.2957 C   0  0  2  0  0  0  0  0  0  0  0  0
   26.0296    6.6650   17.7419 C   0  0  1  0  0  0  0  0  0  0  0  0
   24.9932    6.0402   18.7134 C   0  0  2  0  0  0  0  0  0  0  0  0
   25.3335    4.5891   18.9650 C   0  0  1  0  0  0  0  0  0  0  0  0
   26.7631    4.4934   19.5486 C   0  0  1  0  0  0  0  0  0  0  0  0
   27.2094    3.0530   19.7893 C   0  0  0  0  0  0  0  0  0  0  0  0
   24.3338    4.0243   19.8951 N   0  0  0  0  0  0  0  0  0  0  0  0
   27.7201    5.1114   18.6134 O   0  0  0  0  0  0  0  0  0  0  0  0
   25.7681    8.0530   17.4888 O   0  0  0  0  0  0  0  0  0  0  0  0
   23.6836    6.1117   18.1331 O   0  0  0  0  0  0  0  0  0  0  0  0
   26.2633    2.3994   20.5928 O   0  0  0  0  0  0  0  0  0  0  0  0
   34.8692    7.3124   15.9975 C   0  0  1  0  0  0  0  0  0  0  0  0
   35.1320    6.3646   14.8064 C   0  0  1  0  0  0  0  0  0  0  0  0
   35.7925    7.1183   13.6267 C   0  0  2  0  0  0  0  0  0  0  0  0
   34.8928    8.2748   13.1748 C   0  0  1  0  0  0  0  0  0  0  0  0
   34.6506    9.2545   14.3513 C   0  0  0  0  0  0  0  0  0  0  0  0
   33.9823    8.4922   15.5003 C   0  0  2  0  0  0  0  0  0  0  0  0
   35.5352    8.9977   12.0544 N   0  0  0  0  0  0  0  0  0  0  0  0
   33.7552    9.4503   16.5789 N   0  0  0  0  0  0  0  0  0  0  0  0
   36.0183    5.3067   15.2324 O   0  0  0  0  0  0  0  0  0  0  0  0
   35.9919    6.1934   12.5360 O   0  0  0  0  0  0  0  0  0  0  0  0
  1  2  1  0  0  0  0
  1 12  1  6  0  0  0
  1 13  1  0  0  0  0
  2  3  1  0  0  0  0
  2 10  1  6  0  0  0
  4  3  1  6  0  0  0
  4  5  1  0  0  0  0
  4 14  1  0  0  0  0
  5  6  1  0  0  0  0
  5 13  1  1  0  0  0
  6  7  1  0  0  0  0
  6 15  1  1  0  0  0
  7  8  1  0  0  0  0
  7 11  1  1  0  0  0
  8 14  1  0  0  0  0
  8 16  1  6  0  0  0
  9 11  1  0  0  0  0
 17 16  1  1  0  0  0
 17 18  1  0  0  0  0
 17 24  1  0  0  0  0
 18 19  1  0  0  0  0
 18 25  1  1  0  0  0
 19 20  1  0  0  0  0
 19 26  1  6  0  0  0
 20 21  1  0  0  0  0
 20 23  1  1  0  0  0
 21 22  1  6  0  0  0
 21 24  1  0  0  0  0
 22 27  1  0  0  0  0
 28 12  1  1  0  0  0
 28 29  1  0  0  0  0
 28 33  1  0  0  0  0
 29 30  1  0  0  0  0
 29 36  1  1  0  0  0
 30 31  1  0  0  0  0
 30 37  1  6  0  0  0
 31 32  1  0  0  0  0
 31 34  1  6  0  0  0
 32 33  1  0  0  0  0
 33 35  1  1  0  0  0
M  END
>  <CHROM.1>
-165.37688330,141.12442527,76.85304520,-152.34932484,-54.29568526,160.33644185
30.65006919,6.88781194,17.70328981,-0.31847289,-0.34166980,2.76030320

>  <Name>
1yrj_lig

>  <RI>
0

>  <Rbt.Current_Directory>
/home/itssahil/PROJECTS/Mol_Feturizer/New_Systems/rnas/1yrj

>  <Rbt.Executable>
rbdock ($Id: //depot/dev/client3/rdock/2013.1/src/exe/rbdock.cxx#4 $)

>  <Rbt.Library>
libRbt.so (2013.1, Build901 2013/11/27)

>  <Rbt.Parameter_File>
/export/apps/rDock/src/rDock_2013.1_src/data/scripts/dock_solv.prm

>  <Rbt.Receptor>
prm/blind_docking_40.prm

>  <SCORE>
-5.28873

>  <SCORE.INTER>
-8.00234

>  <SCORE.INTER.CONST>
1

>  <SCORE.INTER.POLAR>
-1.11585

>  <SCORE.INTER.ROT>
6

>  <SCORE.INTER.SOLV>
13.61

>  <SCORE.INTER.VDW>
-13.752

>  <SCORE.INTER.norm>
-0.21628

>  <SCORE.INTRA>
-1.57953

>  <SCORE.INTRA.DIHEDRAL>
-7.36

>  <SCORE.INTRA.DIHEDRAL.0>
15.6389

>  <SCORE.INTRA.POLAR>
0

>  <SCORE.INTRA.POLAR.0>
0

>  <SCORE.INTRA.REPUL>
0

>  <SCORE.INTRA.REPUL.0>
0

>  <SCORE.INTRA.SOLV>
2.10717

>  <SCORE.INTRA.SOLV.lig_0>
-90.9181

>  <SCORE.INTRA.VDW>
1.04689

>  <SCORE.INTRA.VDW.0>
-3.14158

>  <SCORE.INTRA.norm>
-0.0426899

>  <SCORE.RESTR>
4.29314

>  <SCORE.RESTR.CAVITY>
4.29314

>  <SCORE.RESTR.norm>
0.116031

>  <SCORE.SYSTEM>
0

>  <SCORE.SYSTEM.CONST>
0

>  <SCORE.SYSTEM.DIHEDRAL>
0

>  <SCORE.SYSTEM.SOLV>
0

>  <SCORE.SYSTEM.norm>
0

>  <SCORE.heavy>
37

>  <SCORE.norm>
-0.142939

>  <RMSD>
15.552

$$$$
1yrj_lig
 OpenBabel11021811423D
libRbt.so/2013.1/901 2013/11/27
 37 40  0  0  0  0  0  0  0  0999 V2000
   35.0669    6.6127   18.8045 C   0  0  1  0  0  0  0  0  0  0  0  0
   34.4980    6.1701   20.1669 C   0  0  1  0  0  0  0  0  0  0  0  0
   33.0488    6.6434   20.3619 C   0  0  0  0  0  0  0  0  0  0  0  0
   32.9610    8.1802   20.1715 C   0  0  1  0  0  0  0  0  0  0  0  0
   33.4924    8.5706   18.7793 C   0  0  1  0  0  0  0  0  0  0  0  0
   33.3795   10.1439   18.6058 C   0  0  1  0  0  0  0  0  0  0  0  0
   31.9121   10.5773   18.7559 C   0  0  1  0  0  0  0  0  0  0  0  0
   31.4133   10.1193   20.1479 C   0  0  2  0  0  0  0  0  0  0  0  0
   31.5633   12.5200   17.1401 C   0  0  0  0  0  0  0  0  0  0  0  0
   34.5867    4.7124   20.3522 N   0  0  0  0  0  0  0  0  0  0  0  0
   31.7897   12.0529   18.5435 N   0  0  0  0  0  0  0  0  0  0  0  0
   34.5436    5.8660   17.6901 O   0  0  0  0  0  0  0  0  0  0  0  0
   34.8756    8.0684   18.6531 O   0  0  0  0  0  0  0  0  0  0  0  0
   31.5749    8.6819   20.3114 O   0  0  0  0  0  0  0  0  0  0  0  0
   34.1132   10.7829   19.6295 O   0  0  0  0  0  0  0  0  0  0  0  0
   30.0333   10.4283   20.3475 O   0  0  0  0  0  0  0  0  0  0  0  0
   29.2124   10.1510   19.1887 C   0  0  2  0  0  0  0  0  0  0  0  0
   27.7046   10.2462   19.4736 C   0  0  1  0  0  0  0  0  0  0  0  0
   27.2353    9.0906   20.3969 C   0  0  2  0  0  0  0  0  0  0  0  0
   27.5724    7.7589   19.7662 C   0  0  1  0  0  0  0  0  0  0  0  0
   29.0978    7.6820   19.5196 C   0  0  1  0  0  0  0  0  0  0  0  0
   29.5229    6.3836   18.8375 C   0  0  0  0  0  0  0  0  0  0  0  0
   27.1185    6.6807   20.6689 N   0  0  0  0  0  0  0  0  0  0  0  0
   29.5151    8.8018   18.6568 O   0  0  0  0  0  0  0  0  0  0  0  0
   27.4320   11.5368   20.0383 O   0  0  0  0  0  0  0  0  0  0  0  0
   25.8149    9.1661   20.5805 O   0  0  0  0  0  0  0  0  0  0  0  0
   29.2917    5.3043   19.7032 O   0  0  0  0  0  0  0  0  0  0  0  0
   34.8748    6.1671   16.2362 C   0  0  1  0  0  0  0  0  0  0  0  0
   34.3725    7.5979   15.9418 C   0  0  1  0  0  0  0  0  0  0  0  0
   34.7237    8.0280   14.4969 C   0  0  2  0  0  0  0  0  0  0  0  0
   36.2409    7.9620   14.2851 C   0  0  1  0  0  0  0  0  0  0  0  0
   36.7539    6.5219   14.5414 C   0  0  0  0  0  0  0  0  0  0  0  0
   36.4105    6.1231   15.9804 C   0  0  2  0  0  0  0  0  0  0  0  0
   36.5686    8.3637   12.8988 N   0  0  0  0  0  0  0  0  0  0  0  0
   36.9243    4.7719   16.1877 N   0  0  0  0  0  0  0  0  0  0  0  0
   32.9372    7.6351   16.0985 O   0  0  0  0  0  0  0  0  0  0  0  0
   34.2545    9.3770   14.2853 O   0  0  0  0  0  0  0  0  0  0  0  0
  1  2  1  0  0  0  0
  1 12  1  6  0  0  0
  1 13  1  0  0  0  0
  2  3  1  0  0  0  0
  2 10  1  6  0  0  0
  4  3  1  6  0  0  0
  4  5  1  0  0  0  0
  4 14  1  0  0  0  0
  5  6  1  0  0  0  0
  5 13  1  1  0  0  0
  6  7  1  0  0  0  0
  6 15  1  1  0  0  0
  7  8  1  0  0  0  0
  7 11  1  1  0  0  0
  8 14  1  0  0  0  0
  8 16  1  6  0  0  0
  9 11  1  0  0  0  0
 17 16  1  1  0  0  0
 17 18  1  0  0  0  0
 17 24  1  0  0  0  0
 18 19  1  0  0  0  0
 18 25  1  1  0  0  0
 19 20  1  0  0  0  0
 19 26  1  6  0  0  0
 20 21  1  0  0  0  0
 20 23  1  1  0  0  0
 21 22  1  6  0  0  0
 21 24  1  0  0  0  0
 22 27  1  0  0  0  0
 28 12  1  1  0  0  0
 28 29  1  0  0  0  0
 28 33  1  0  0  0  0
 29 30  1  0  0  0  0
 29 36  1  6  0  0  0
 30 31  1  0  0  0  0
 30 37  1  1  0  0  0
 31 32  1  0  0  0  0
 31 34  1  6  0  0  0
 32 33  1  0  0  0  0
 33 35  1  6  0  0  0
M  END
>  <CHROM.1>
175.84112281,89.02089147,42.55179299,169.90516982,-66.13775351,-61.44814450
32.18387891,8.28117907,18.29336781,0.03354701,-0.56198260,2.72479838

>  <Name>
1yrj_lig

>  <RI>
0

>  <Rbt.Current_Directory>
/home/itssahil/PROJECTS/Mol_Feturizer/New_Systems/rnas/1yrj

>  <Rbt.Executable>
rbdock ($Id: //depot/dev/client3/rdock/2013.1/src/exe/rbdock.cxx#4 $)

>  <Rbt.Library>
libRbt.so (2013.1, Build901 2013/11/27)

>  <Rbt.Parameter_File>
/export/apps/rDock/src/rDock_2013.1_src/data/scripts/dock_solv.prm

>  <Rbt.Receptor>
prm/blind_docking_100.prm

>  <SCORE>
-10.7405

>  <SCORE.INTER>
-5.44056

>  <SCORE.INTER.CONST>
1

>  <SCORE.INTER.POLAR>
-0.305587

>  <SCORE.INTER.ROT>
6

>  <SCORE.INTER.SOLV>
15.5374

>  <SCORE.INTER.VDW>
-15.3876

>  <SCORE.INTER.norm>
-0.147042

>  <SCORE.INTRA>
-5.32397

>  <SCORE.INTRA.DIHEDRAL>
-12.8448

>  <SCORE.INTRA.DIHEDRAL.0>
15.6389

>  <SCORE.INTRA.POLAR>
0

>  <SCORE.INTRA.POLAR.0>
0

>  <SCORE.INTRA.REPUL>
0

>  <SCORE.INTRA.REPUL.0>
0

>  <SCORE.INTRA.SOLV>
0.348999

>  <SCORE.INTRA.SOLV.lig_0>
-90.9181

>  <SCORE.INTRA.VDW>
0.923936

>  <SCORE.INTRA.VDW.0>
-3.14158

>  <SCORE.INTRA.norm>
-0.143891

>  <SCORE.RESTR>
0.0240734

>  <SCORE.RESTR.CAVITY>
0.0240734

>  <SCORE.RESTR.norm>
0.000650634

>  <SCORE.SYSTEM>
0

>  <SCORE.SYSTEM.CONST>
0

>  <SCORE.SYSTEM.DIHEDRAL>
0

>  <SCORE.SYSTEM.SOLV>
0

>  <SCORE.SYSTEM.norm>
0

>  <SCORE.heavy>
37

>  <SCORE.norm>
-0.290283

>  <RMSD>
15.568

$$$$
1yrj_lig
 OpenBabel11021811423D
libRbt.so/2013.1/901 2013/11/27
 37 40  0  0  0  0  0  0  0  0999 V2000
   36.1961    5.7472   19.9479 C   0  0  1  0  0  0  0  0  0  0  0  0
   35.3175    4.4837   20.0333 C   0  0  1  0  0  0  0  0  0  0  0  0
   33.8906    4.7445   19.5250 C   0  0  0  0  0  0  0  0  0  0  0  0
   33.2625    5.9372   20.2921 C   0  0  1  0  0  0  0  0  0  0  0  0
   34.1469    7.1889   20.1371 C   0  0  1  0  0  0  0  0  0  0  0  0
   33.4760    8.3956   20.9192 C   0  0  1  0  0  0  0  0  0  0  0  0
   32.0720    8.6629   20.3528 C   0  0  1  0  0  0  0  0  0  0  0  0
   31.2416    7.3635   20.4873 C   0  0  2  0  0  0  0  0  0  0  0  0
   30.5515   10.7078   20.2381 C   0  0  0  0  0  0  0  0  0  0  0  0
   35.9155    3.3486   19.3115 N   0  0  0  0  0  0  0  0  0  0  0  0
   31.4523    9.8318   21.0507 N   0  0  0  0  0  0  0  0  0  0  0  0
   36.6027    6.0782   18.6069 O   0  0  0  0  0  0  0  0  0  0  0  0
   35.5028    6.8619   20.6228 O   0  0  0  0  0  0  0  0  0  0  0  0
   31.8983    6.2541   19.8112 O   0  0  0  0  0  0  0  0  0  0  0  0
   33.3212    8.0457   22.2787 O   0  0  0  0  0  0  0  0  0  0  0  0
   29.9362    7.5049   19.9258 O   0  0  0  0  0  0  0  0  0  0  0  0
   28.9512    6.6455   20.5462 C   0  0  2  0  0  0  0  0  0  0  0  0
   28.4183    5.5519   19.6062 C   0  0  1  0  0  0  0  0  0  0  0  0
   27.5453    6.1610   18.4769 C   0  0  2  0  0  0  0  0  0  0  0  0
   26.4023    6.9468   19.0774 C   0  0  1  0  0  0  0  0  0  0  0  0
   26.9708    8.0565   19.9934 C   0  0  1  0  0  0  0  0  0  0  0  0
   25.8795    8.8723   20.6828 C   0  0  0  0  0  0  0  0  0  0  0  0
   25.5936    7.5171   17.9800 N   0  0  0  0  0  0  0  0  0  0  0  0
   27.8095    7.4489   21.0421 O   0  0  0  0  0  0  0  0  0  0  0  0
   29.5364    4.8153   19.0901 O   0  0  0  0  0  0  0  0  0  0  0  0
   27.0044    5.1098   17.6649 O   0  0  0  0  0  0  0  0  0  0  0  0
   25.1474    8.0401   21.5426 O   0  0  0  0  0  0  0  0  0  0  0  0
   35.7173    6.8061   17.6067 C   0  0  1  0  0  0  0  0  0  0  0  0
   36.3687    8.1808   17.3382 C   0  0  1  0  0  0  0  0  0  0  0  0
   35.5748    8.9781   16.2752 C   0  0  2  0  0  0  0  0  0  0  0  0
   35.5018    8.1797   14.9682 C   0  0  1  0  0  0  0  0  0  0  0  0
   34.8164    6.8115   15.2155 C   0  0  0  0  0  0  0  0  0  0  0  0
   35.6267    6.0334   16.2575 C   0  0  2  0  0  0  0  0  0  0  0  0
   34.7322    8.9426   13.9602 N   0  0  0  0  0  0  0  0  0  0  0  0
   34.9610    4.7476   16.4490 N   0  0  0  0  0  0  0  0  0  0  0  0
   36.3881    8.9410   18.5660 O   0  0  0  0  0  0  0  0  0  0  0  0
   36.2395   10.2392   16.0462 O   0  0  0  0  0  0  0  0  0  0  0  0
  1  2  1  0  0  0  0
  1 12  1  6  0  0  0
  1 13  1  0  0  0  0
  2  3  1  0  0  0  0
  2 10  1  6  0  0  0
  4  3  1  6  0  0  0
  4  5  1  0  0  0  0
  4 14  1  0  0  0  0
  5  6  1  0  0  0  0
  5 13  1  1  0  0  0
  6  7  1  0  0  0  0
  6 15  1  1  0  0  0
  7  8  1  0  0  0  0
  7 11  1  1  0  0  0
  8 14  1  0  0  0  0
  8 16  1  6  0  0  0
  9 11  1  0  0  0  0
 17 16  1  6  0  0  0
 17 18  1  0  0  0  0
 17 24  1  0  0  0  0
 18 19  1  0  0  0  0
 18 25  1  6  0  0  0
 19 20  1  0  0  0  0
 19 26  1  6  0  0  0
 20 21  1  0  0  0  0
 20 23  1  6  0  0  0
 21 22  1  1  0  0  0
 21 24  1  0  0  0  0
 22 27  1  0  0  0  0
 28 12  1  1  0  0  0
 28 29  1  0  0  0  0
 28 33  1  0  0  0  0
 29 30  1  0  0  0  0
 29 36  1  1  0  0  0
 30 31  1  0  0  0  0
 30 37  1  6  0  0  0
 31 32  1  0  0  0  0
 31 34  1  6  0  0  0
 32 33  1  0  0  0  0
 33 35  1  1  0  0  0
M  END
>  <CHROM.1>
80.39561118,146.26579212,-152.15189706,-113.05912155,63.82417355,113.88815858
32.13002924,7.15392271,18.99851447,-0.24090177,-0.11823590,1.92132554

>  <Name>
1yrj_lig

>  <RI>
224

>  <Rbt.Current_Directory>
/home/itssahil/PROJECTS/Mol_Feturizer/New_Systems/rnas/1yrj

>  <Rbt.Executable>
rbdock ($Id: //depot/dev/client3/rdock/2013.1/src/exe/rbdock.cxx#4 $)

>  <Rbt.Library>
libRbt.so (2013.1, Build901 2013/11/27)

>  <Rbt.Parameter_File>
/export/apps/rDock/src/rDock_2013.1_src/data/scripts/dock_solv.prm

>  <Rbt.Receptor>
prm/blind_docking_80.prm

>  <SCORE>
-8.16915

>  <SCORE.INTER>
-10.3421

>  <SCORE.INTER.CONST>
1

>  <SCORE.INTER.POLAR>
-0.892046

>  <SCORE.INTER.ROT>
6

>  <SCORE.INTER.SOLV>
17.5599

>  <SCORE.INTER.VDW>
-17.3746

>  <SCORE.INTER.norm>
-0.279517

>  <SCORE.INTRA>
1.85616

>  <SCORE.INTRA.DIHEDRAL>
4.18844

>  <SCORE.INTRA.DIHEDRAL.0>
15.6389

>  <SCORE.INTRA.POLAR>
0

>  <SCORE.INTRA.POLAR.0>
0

>  <SCORE.INTRA.REPUL>
0

>  <SCORE.INTRA.REPUL.0>
0

>  <SCORE.INTRA.SOLV>
2.3705

>  <SCORE.INTRA.SOLV.lig_0>
-90.9181

>  <SCORE.INTRA.VDW>
-1.4233

>  <SCORE.INTRA.VDW.0>
-3.14158

>  <SCORE.INTRA.norm>
0.0501665

>  <SCORE.RESTR>
0.316823

>  <SCORE.RESTR.CAVITY>
0.316823

>  <SCORE.RESTR.norm>
0.00856278

>  <SCORE.SYSTEM>
0

>  <SCORE.SYSTEM.CONST>
0

>  <SCORE.SYSTEM.DIHEDRAL>
0

>  <SCORE.SYSTEM.SOLV>
0

>  <SCORE.SYSTEM.norm>
0

>  <SCORE.heavy>
37

>  <SCORE.norm>
-0.220788

>  <RMSD>
15.599

$$$$
1yrj_lig
 OpenBabel11021811423D
libRbt.so/2013.1/901 2013/11/27
 37 40  0  0  0  0  0  0  0  0999 V2000
   36.3182    5.9061   19.9186 C   0  0  1  0  0  0  0  0  0  0  0  0
   35.4910    4.6073   19.9848 C   0  0  1  0  0  0  0  0  0  0  0  0
   34.0479    4.8238   19.5020 C   0  0  0  0  0  0  0  0  0  0  0  0
   33.3846    5.9722   20.3062 C   0  0  1  0  0  0  0  0  0  0  0  0
   34.2173    7.2611   20.1701 C   0  0  1  0  0  0  0  0  0  0  0  0
   33.5109    8.4215   20.9902 C   0  0  1  0  0  0  0  0  0  0  0  0
   32.0896    8.6467   20.4491 C   0  0  1  0  0  0  0  0  0  0  0  0
   31.3126    7.3127   20.5629 C   0  0  2  0  0  0  0  0  0  0  0  0
   30.5006   10.6415   20.4006 C   0  0  0  0  0  0  0  0  0  0  0  0
   36.1225    3.5142   19.2277 N   0  0  0  0  0  0  0  0  0  0  0  0
   31.4347    9.7732   21.1834 N   0  0  0  0  0  0  0  0  0  0  0  0
   36.6926    6.2847   18.5808 O   0  0  0  0  0  0  0  0  0  0  0  0
   35.5916    6.9763   20.6297 O   0  0  0  0  0  0  0  0  0  0  0  0
   32.0024    6.2465   19.8513 O   0  0  0  0  0  0  0  0  0  0  0  0
   33.3891    8.0334   22.3426 O   0  0  0  0  0  0  0  0  0  0  0  0
   29.9948    7.4159   20.0223 O   0  0  0  0  0  0  0  0  0  0  0  0
   29.1160    6.3496   20.4516 C   0  0  2  0  0  0  0  0  0  0  0  0
   28.5157    5.5481   19.2850 C   0  0  1  0  0  0  0  0  0  0  0  0
   27.4998    6.4037   18.4823 C   0  0  2  0  0  0  0  0  0  0  0  0
   26.4075    6.9016   19.4008 C   0  0  1  0  0  0  0  0  0  0  0  0
   27.0399    7.7278   20.5458 C   0  0  1  0  0  0  0  0  0  0  0  0
   26.0082    8.2317   21.5524 C   0  0  0  0  0  0  0  0  0  0  0  0
   25.4604    7.7150   18.6102 N   0  0  0  0  0  0  0  0  0  0  0  0
   28.0125    6.8951   21.2759 O   0  0  0  0  0  0  0  0  0  0  0  0
   29.5912    5.0706   18.4639 O   0  0  0  0  0  0  0  0  0  0  0  0
   26.9047    5.6045   17.4507 O   0  0  0  0  0  0  0  0  0  0  0  0
   25.1680    9.1674   20.9307 O   0  0  0  0  0  0  0  0  0  0  0  0
   35.7541    6.9691   17.5984 C   0  0  1  0  0  0  0  0  0  0  0  0
   36.3096    8.3893   17.3523 C   0  0  1  0  0  0  0  0  0  0  0  0
   35.4574    9.1503   16.3079 C   0  0  2  0  0  0  0  0  0  0  0  0
   35.4308    8.3725   14.9867 C   0  0  1  0  0  0  0  0  0  0  0  0
   34.8408    6.9569   15.2120 C   0  0  0  0  0  0  0  0  0  0  0  0
   35.7079    6.2166   16.2356 C   0  0  2  0  0  0  0  0  0  0  0  0
   34.6056    9.0998   13.9966 N   0  0  0  0  0  0  0  0  0  0  0  0
   35.1317    4.8855   16.4064 N   0  0  0  0  0  0  0  0  0  0  0  0
   36.2850    9.1268   18.5938 O   0  0  0  0  0  0  0  0  0  0  0  0
   36.0342   10.4574   16.0991 O   0  0  0  0  0  0  0  0  0  0  0  0
  1  2  1  0  0  0  0
  1 12  1  6  0  0  0
  1 13  1  0  0  0  0
  2  3  1  0  0  0  0
  2 10  1  6  0  0  0
  4  3  1  6  0  0  0
  4  5  1  0  0  0  0
  4 14  1  0  0  0  0
  5  6  1  0  0  0  0
  5 13  1  1  0  0  0
  6  7  1  0  0  0  0
  6 15  1  1  0  0  0
  7  8  1  0  0  0  0
  7 11  1  1  0  0  0
  8 14  1  0  0  0  0
  8 16  1  6  0  0  0
  9 11  1  0  0  0  0
 17 16  1  6  0  0  0
 17 18  1  0  0  0  0
 17 24  1  0  0  0  0
 18 19  1  0  0  0  0
 18 25  1  6  0  0  0
 19 20  1  0  0  0  0
 19 26  1  6  0  0  0
 20 21  1  0  0  0  0
 20 23  1  6  0  0  0
 21 22  1  1  0  0  0
 21 24  1  0  0  0  0
 22 27  1  0  0  0  0
 28 12  1  1  0  0  0
 28 29  1  0  0  0  0
 28 33  1  0  0  0  0
 29 30  1  0  0  0  0
 29 36  1  1  0  0  0
 30 31  1  0  0  0  0
 30 37  1  6  0  0  0
 31 32  1  0  0  0  0
 31 34  1  6  0  0  0
 32 33  1  0  0  0  0
 33 35  1  1  0  0  0
M  END
>  <CHROM.1>
78.77325312,145.60431928,-162.83570524,-122.51773170,-66.56784280,113.70948884
32.16726372,7.23687172,19.03221243,-0.25619512,-0.10266696,1.85334038

>  <Name>
1yrj_lig

>  <RI>
224

>  <Rbt.Current_Directory>
/home/itssahil/PROJECTS/Mol_Feturizer/New_Systems/rnas/1yrj

>  <Rbt.Executable>
rbdock ($Id: //depot/dev/client3/rdock/2013.1/src/exe/rbdock.cxx#4 $)

>  <Rbt.Library>
libRbt.so (2013.1, Build901 2013/11/27)

>  <Rbt.Parameter_File>
/export/apps/rDock/src/rDock_2013.1_src/data/scripts/dock_solv.prm

>  <Rbt.Receptor>
prm/blind_docking_80.prm

>  <SCORE>
-10.8321

>  <SCORE.INTER>
-12.4294

>  <SCORE.INTER.CONST>
1

>  <SCORE.INTER.POLAR>
-0.885021

>  <SCORE.INTER.ROT>
6

>  <SCORE.INTER.SOLV>
19.199

>  <SCORE.INTER.VDW>
-19.3359

>  <SCORE.INTER.norm>
-0.335929

>  <SCORE.INTRA>
1.22052

>  <SCORE.INTRA.DIHEDRAL>
2.41434

>  <SCORE.INTRA.DIHEDRAL.0>
15.6389

>  <SCORE.INTRA.POLAR>
0

>  <SCORE.INTRA.POLAR.0>
0

>  <SCORE.INTRA.REPUL>
0

>  <SCORE.INTRA.REPUL.0>
0

>  <SCORE.INTRA.SOLV>
2.62804

>  <SCORE.INTRA.SOLV.lig_0>
-90.9181

>  <SCORE.INTRA.VDW>
-1.30067

>  <SCORE.INTRA.VDW.0>
-3.14158

>  <SCORE.INTRA.norm>
0.0329871

>  <SCORE.RESTR>
0.376787

>  <SCORE.RESTR.CAVITY>
0.376787

>  <SCORE.RESTR.norm>
0.0101834

>  <SCORE.SYSTEM>
0

>  <SCORE.SYSTEM.CONST>
0

>  <SCORE.SYSTEM.DIHEDRAL>
0

>  <SCORE.SYSTEM.SOLV>
0

>  <SCORE.SYSTEM.norm>
0

>  <SCORE.heavy>
37

>  <SCORE.norm>
-0.292759

>  <RMSD>
15.607

$$$$
1yrj_lig
 OpenBabel11021811423D
libRbt.so/2013.1/901 2013/11/27
 37 40  0  0  0  0  0  0  0  0999 V2000
   29.3449    8.9336   19.8878 C   0  0  1  0  0  0  0  0  0  0  0  0
   29.5706   10.2954   19.2023 C   0  0  1  0  0  0  0  0  0  0  0  0
   30.6460   10.2126   18.1072 C   0  0  0  0  0  0  0  0  0  0  0  0
   31.9609    9.6374   18.6954 C   0  0  1  0  0  0  0  0  0  0  0  0
   31.6978    8.2559   19.3241 C   0  0  1  0  0  0  0  0  0  0  0  0
   33.0595    7.6853   19.9057 C   0  0  1  0  0  0  0  0  0  0  0  0
   34.0958    7.5672   18.7763 C   0  0  1  0  0  0  0  0  0  0  0  0
   34.2866    8.9688   18.1475 C   0  0  2  0  0  0  0  0  0  0  0  0
   36.1769    6.1517   18.3619 C   0  0  0  0  0  0  0  0  0  0  0  0
   28.3224   10.8460   18.6493 N   0  0  0  0  0  0  0  0  0  0  0  0
   35.3664    6.9825   19.3064 N   0  0  0  0  0  0  0  0  0  0  0  0
   28.6197    7.9914   19.0756 O   0  0  0  0  0  0  0  0  0  0  0  0
   30.6440    8.4052   20.3480 O   0  0  0  0  0  0  0  0  0  0  0  0
   33.0191    9.5011   17.6687 O   0  0  0  0  0  0  0  0  0  0  0  0
   33.5779    8.5891   20.8591 O   0  0  0  0  0  0  0  0  0  0  0  0
   35.1917    8.9386   17.0432 O   0  0  0  0  0  0  0  0  0  0  0  0
   35.1487   10.1390   16.2364 C   0  0  2  0  0  0  0  0  0  0  0  0
   36.1697   10.1372   15.0870 C   0  0  1  0  0  0  0  0  0  0  0  0
   37.6204   10.2483   15.6266 C   0  0  2  0  0  0  0  0  0  0  0  0
   37.7643   11.5003   16.4613 C   0  0  1  0  0  0  0  0  0  0  0  0
   36.7455   11.4585   17.6248 C   0  0  1  0  0  0  0  0  0  0  0  0
   36.7884   12.7126   18.4950 C   0  0  0  0  0  0  0  0  0  0  0  0
   39.1519   11.5757   16.9637 N   0  0  0  0  0  0  0  0  0  0  0  0
   35.3811   11.3334   17.0815 O   0  0  0  0  0  0  0  0  0  0  0  0
   35.9703    8.9491   14.3073 O   0  0  0  0  0  0  0  0  0  0  0  0
   38.5398   10.3196   14.5281 O   0  0  0  0  0  0  0  0  0  0  0  0
   36.3147   13.8083   17.7581 O   0  0  0  0  0  0  0  0  0  0  0  0
   28.0559    6.6783   19.5975 C   0  0  1  0  0  0  0  0  0  0  0  0
   27.0256    6.1810   18.5597 C   0  0  1  0  0  0  0  0  0  0  0  0
   26.4388    4.8078   18.9676 C   0  0  2  0  0  0  0  0  0  0  0  0
   27.5656    3.7776   19.1078 C   0  0  1  0  0  0  0  0  0  0  0  0
   28.5887    4.2466   20.1738 C   0  0  0  0  0  0  0  0  0  0  0  0
   29.1682    5.5979   19.7425 C   0  0  2  0  0  0  0  0  0  0  0  0
   26.9990    2.4704   19.5086 N   0  0  0  0  0  0  0  0  0  0  0  0
   30.1374    5.9958   20.7599 N   0  0  0  0  0  0  0  0  0  0  0  0
   25.9461    7.1365   18.4719 O   0  0  0  0  0  0  0  0  0  0  0  0
   25.5038    4.3810   17.9535 O   0  0  0  0  0  0  0  0  0  0  0  0
  1  2  1  0  0  0  0
  1 12  1  6  0  0  0
  1 13  1  0  0  0  0
  2  3  1  0  0  0  0
  2 10  1  6  0  0  0
  4  3  1  6  0  0  0
  4  5  1  0  0  0  0
  4 14  1  0  0  0  0
  5  6  1  0  0  0  0
  5 13  1  1  0  0  0
  6  7  1  0  0  0  0
  6 15  1  1  0  0  0
  7  8  1  0  0  0  0
  7 11  1  1  0  0  0
  8 14  1  0  0  0  0
  8 16  1  6  0  0  0
  9 11  1  0  0  0  0
 17 16  1  1  0  0  0
 17 18  1  0  0  0  0
 17 24  1  0  0  0  0
 18 19  1  0  0  0  0
 18 25  1  1  0  0  0
 19 20  1  0  0  0  0
 19 26  1  6  0  0  0
 20 21  1  0  0  0  0
 20 23  1  1  0  0  0
 21 22  1  6  0  0  0
 21 24  1  0  0  0  0
 22 27  1  0  0  0  0
 28 12  1  6  0  0  0
 28 29  1  0  0  0  0
 28 33  1  0  0  0  0
 29 30  1  0  0  0  0
 29 36  1  1  0  0  0
 30 31  1  0  0  0  0
 30 37  1  6  0  0  0
 31 32  1  0  0  0  0
 31 34  1  1  0  0  0
 32 33  1  0  0  0  0
 33 35  1  1  0  0  0
M  END
>  <CHROM.1>
-168.79681988,148.78728095,165.87967209,177.23154047,68.19541740,163.71126233
32.36705669,8.46701752,18.25743370,2.65456399,-0.26262689,3.12989346

>  <Name>
1yrj_lig

>  <RI>
0

>  <Rbt.Current_Directory>
/home/itssahil/PROJECTS/Mol_Feturizer/New_Systems/rnas/1yrj

>  <Rbt.Executable>
rbdock ($Id: //depot/dev/client3/rdock/2013.1/src/exe/rbdock.cxx#4 $)

>  <Rbt.Library>
libRbt.so (2013.1, Build901 2013/11/27)

>  <Rbt.Parameter_File>
/export/apps/rDock/src/rDock_2013.1_src/data/scripts/dock_solv.prm

>  <Rbt.Receptor>
prm/blind_docking_100.prm

>  <SCORE>
-9.23394

>  <SCORE.INTER>
-4.80666

>  <SCORE.INTER.CONST>
1

>  <SCORE.INTER.POLAR>
0

>  <SCORE.INTER.ROT>
6

>  <SCORE.INTER.SOLV>
5.4412

>  <SCORE.INTER.VDW>
-12.6182

>  <SCORE.INTER.norm>
-0.12991

>  <SCORE.INTRA>
-4.42728

>  <SCORE.INTRA.DIHEDRAL>
-11.8515

>  <SCORE.INTRA.DIHEDRAL.0>
15.6389

>  <SCORE.INTRA.POLAR>
0

>  <SCORE.INTRA.POLAR.0>
0

>  <SCORE.INTRA.REPUL>
0

>  <SCORE.INTRA.REPUL.0>
0

>  <SCORE.INTRA.SOLV>
0.829542

>  <SCORE.INTRA.SOLV.lig_0>
-90.9181

>  <SCORE.INTRA.VDW>
1.0837

>  <SCORE.INTRA.VDW.0>
-3.14158

>  <SCORE.INTRA.norm>
-0.119656

>  <SCORE.RESTR>
0

>  <SCORE.RESTR.CAVITY>
0

>  <SCORE.RESTR.norm>
0

>  <SCORE.SYSTEM>
0

>  <SCORE.SYSTEM.CONST>
0

>  <SCORE.SYSTEM.DIHEDRAL>
0

>  <SCORE.SYSTEM.SOLV>
0

>  <SCORE.SYSTEM.norm>
0

>  <SCORE.heavy>
37

>  <SCORE.norm>
-0.249566

>  <RMSD>
15.632

$$$$
1yrj_lig
 OpenBabel11021811423D
libRbt.so/2013.1/901 2013/11/27
 37 40  0  0  0  0  0  0  0  0999 V2000
   27.9608    7.9339   20.4426 C   0  0  1  0  0  0  0  0  0  0  0  0
   28.3093    9.2622   19.7428 C   0  0  1  0  0  0  0  0  0  0  0  0
   28.8659    9.0341   18.3284 C   0  0  0  0  0  0  0  0  0  0  0  0
   30.0830    8.0744   18.3842 C   0  0  1  0  0  0  0  0  0  0  0  0
   29.6758    6.7435   19.0444 C   0  0  1  0  0  0  0  0  0  0  0  0
   30.9338    5.7768   19.0770 C   0  0  1  0  0  0  0  0  0  0  0  0
   31.4335    5.5289   17.6444 C   0  0  1  0  0  0  0  0  0  0  0  0
   31.7818    6.8977   17.0109 C   0  0  2  0  0  0  0  0  0  0  0  0
   32.6109    3.5183   16.6061 C   0  0  0  0  0  0  0  0  0  0  0  0
   27.1571   10.1771   19.6950 N   0  0  0  0  0  0  0  0  0  0  0  0
   32.5882    4.5783   17.6621 N   0  0  0  0  0  0  0  0  0  0  0  0
   26.7634    7.3127   19.9390 O   0  0  0  0  0  0  0  0  0  0  0  0
   29.1326    7.0381   20.3858 O   0  0  0  0  0  0  0  0  0  0  0  0
   30.6329    7.7913   17.0388 O   0  0  0  0  0  0  0  0  0  0  0  0
   31.9847    6.3979   19.7871 O   0  0  0  0  0  0  0  0  0  0  0  0
   32.1978    6.7651   15.6511 O   0  0  0  0  0  0  0  0  0  0  0  0
   33.4803    7.3794   15.3836 C   0  0  2  0  0  0  0  0  0  0  0  0
   34.6655    6.5952   15.9701 C   0  0  1  0  0  0  0  0  0  0  0  0
   34.6711    6.6657   17.5204 C   0  0  2  0  0  0  0  0  0  0  0  0
   34.7158    8.1082   17.9696 C   0  0  1  0  0  0  0  0  0  0  0  0
   33.4963    8.8623   17.3884 C   0  0  1  0  0  0  0  0  0  0  0  0
   33.4874   10.3449   17.7540 C   0  0  0  0  0  0  0  0  0  0  0  0
   34.7154    8.1427   19.4468 N   0  0  0  0  0  0  0  0  0  0  0  0
   33.5086    8.7608   15.9180 O   0  0  0  0  0  0  0  0  0  0  0  0
   34.5969    5.2452   15.4885 O   0  0  0  0  0  0  0  0  0  0  0  0
   35.8285    5.9891   18.0300 O   0  0  0  0  0  0  0  0  0  0  0  0
   34.4562   11.0184   16.9953 O   0  0  0  0  0  0  0  0  0  0  0  0
   26.7585    6.1513   18.9564 C   0  0  1  0  0  0  0  0  0  0  0  0
   26.7616    4.8504   19.7894 C   0  0  1  0  0  0  0  0  0  0  0  0
   26.6890    3.6018   18.8773 C   0  0  2  0  0  0  0  0  0  0  0  0
   25.4230    3.6567   18.0141 C   0  0  1  0  0  0  0  0  0  0  0  0
   25.4243    4.9401   17.1447 C   0  0  0  0  0  0  0  0  0  0  0  0
   25.4800    6.1624   18.0671 C   0  0  2  0  0  0  0  0  0  0  0  0
   25.3656    2.4660   17.1369 N   0  0  0  0  0  0  0  0  0  0  0  0
   25.4616    7.3475   17.2139 N   0  0  0  0  0  0  0  0  0  0  0  0
   27.9806    4.7879   20.5614 O   0  0  0  0  0  0  0  0  0  0  0  0
   26.6698    2.4198   19.7063 O   0  0  0  0  0  0  0  0  0  0  0  0
  1  2  1  0  0  0  0
  1 12  1  6  0  0  0
  1 13  1  0  0  0  0
  2  3  1  0  0  0  0
  2 10  1  6  0  0  0
  4  3  1  6  0  0  0
  4  5  1  0  0  0  0
  4 14  1  0  0  0  0
  5  6  1  0  0  0  0
  5 13  1  1  0  0  0
  6  7  1  0  0  0  0
  6 15  1  1  0  0  0
  7  8  1  0  0  0  0
  7 11  1  1  0  0  0
  8 14  1  0  0  0  0
  8 16  1  6  0  0  0
  9 11  1  0  0  0  0
 17 16  1  1  0  0  0
 17 18  1  0  0  0  0
 17 24  1  0  0  0  0
 18 19  1  0  0  0  0
 18 25  1  1  0  0  0
 19 20  1  0  0  0  0
 19 26  1  6  0  0  0
 20 21  1  0  0  0  0
 20 23  1  1  0  0  0
 21 22  1  6  0  0  0
 21 24  1  0  0  0  0
 22 27  1  0  0  0  0
 28 12  1  1  0  0  0
 28 29  1  0  0  0  0
 28 33  1  0  0  0  0
 29 30  1  0  0  0  0
 29 36  1  6  0  0  0
 30 31  1  0  0  0  0
 30 37  1  1  0  0  0
 31 32  1  0  0  0  0
 31 34  1  6  0  0  0
 32 33  1  0  0  0  0
 33 35  1  6  0  0  0
M  END
>  <CHROM.1>
100.74302888,137.91783040,-126.17966544,72.92634246,74.23652347,90.62684323
30.36665249,6.65433618,18.09749756,2.90428843,-0.27995175,-2.92318835

>  <Name>
1yrj_lig

>  <RI>
0

>  <Rbt.Current_Directory>
/home/itssahil/PROJECTS/Mol_Feturizer/New_Systems/rnas/1yrj

>  <Rbt.Executable>
rbdock ($Id: //depot/dev/client3/rdock/2013.1/src/exe/rbdock.cxx#4 $)

>  <Rbt.Library>
libRbt.so (2013.1, Build901 2013/11/27)

>  <Rbt.Parameter_File>
/export/apps/rDock/src/rDock_2013.1_src/data/scripts/dock_solv.prm

>  <Rbt.Receptor>
prm/blind_docking_40.prm

>  <SCORE>
8.40361

>  <SCORE.INTER>
-2.11635

>  <SCORE.INTER.CONST>
1

>  <SCORE.INTER.POLAR>
-0.475804

>  <SCORE.INTER.ROT>
6

>  <SCORE.INTER.SOLV>
8.42831

>  <SCORE.INTER.VDW>
-10.2343

>  <SCORE.INTER.norm>
-0.0571985

>  <SCORE.INTRA>
5.4678

>  <SCORE.INTRA.DIHEDRAL>
3.02775

>  <SCORE.INTRA.DIHEDRAL.0>
15.6389

>  <SCORE.INTRA.POLAR>
0

>  <SCORE.INTRA.POLAR.0>
0

>  <SCORE.INTRA.REPUL>
0

>  <SCORE.INTRA.REPUL.0>
0

>  <SCORE.INTRA.SOLV>
3.98757

>  <SCORE.INTRA.SOLV.lig_0>
-90.9181

>  <SCORE.INTRA.VDW>
1.96014

>  <SCORE.INTRA.VDW.0>
-3.14158

>  <SCORE.INTRA.norm>
0.147778

>  <SCORE.RESTR>
5.05215

>  <SCORE.RESTR.CAVITY>
5.05215

>  <SCORE.RESTR.norm>
0.136545

>  <SCORE.SYSTEM>
0

>  <SCORE.SYSTEM.CONST>
0

>  <SCORE.SYSTEM.DIHEDRAL>
0

>  <SCORE.SYSTEM.SOLV>
0

>  <SCORE.SYSTEM.norm>
0

>  <SCORE.heavy>
37

>  <SCORE.norm>
0.227125

>  <RMSD>
15.649

$$$$
1yrj_lig
 OpenBabel11021811423D
libRbt.so/2013.1/901 2013/11/27
 37 40  0  0  0  0  0  0  0  0999 V2000
   36.3380    5.9405   20.0202 C   0  0  1  0  0  0  0  0  0  0  0  0
   35.4472    4.6828   20.0198 C   0  0  1  0  0  0  0  0  0  0  0  0
   34.0731    4.9560   19.3876 C   0  0  0  0  0  0  0  0  0  0  0  0
   33.3867    6.1492   20.1023 C   0  0  1  0  0  0  0  0  0  0  0  0
   34.2895    7.3955   20.0339 C   0  0  1  0  0  0  0  0  0  0  0  0
   33.5593    8.6029   20.7598 C   0  0  1  0  0  0  0  0  0  0  0  0
   32.2133    8.8828   20.0718 C   0  0  1  0  0  0  0  0  0  0  0  0
   31.3657    7.5885   20.1244 C   0  0  2  0  0  0  0  0  0  0  0  0
   30.4614   10.7320   19.9363 C   0  0  0  0  0  0  0  0  0  0  0  0
   36.0998    3.5472   19.3478 N   0  0  0  0  0  0  0  0  0  0  0  0
   31.5413   10.0524   20.7182 N   0  0  0  0  0  0  0  0  0  0  0  0
   36.8649    6.2754   18.7228 O   0  0  0  0  0  0  0  0  0  0  0  0
   35.5945    7.0566   20.6369 O   0  0  0  0  0  0  0  0  0  0  0  0
   32.0730    6.4780   19.5034 O   0  0  0  0  0  0  0  0  0  0  0  0
   33.2814    8.2472   22.0980 O   0  0  0  0  0  0  0  0  0  0  0  0
   30.1166    7.7418   19.4494 O   0  0  0  0  0  0  0  0  0  0  0  0
   29.0084    7.1334   20.1533 C   0  0  2  0  0  0  0  0  0  0  0  0
   28.4753    5.8641   19.4690 C   0  0  1  0  0  0  0  0  0  0  0  0
   27.7669    6.2049   18.1309 C   0  0  2  0  0  0  0  0  0  0  0  0
   26.6434    7.1851   18.3787 C   0  0  1  0  0  0  0  0  0  0  0  0
   27.2154    8.4615   19.0397 C   0  0  1  0  0  0  0  0  0  0  0  0
   26.1374    9.4911   19.3710 C   0  0  0  0  0  0  0  0  0  0  0  0
   25.9926    7.4931   17.0884 N   0  0  0  0  0  0  0  0  0  0  0  0
   27.8974    8.1031   20.2962 O   0  0  0  0  0  0  0  0  0  0  0  0
   29.5703    4.9548   19.2871 O   0  0  0  0  0  0  0  0  0  0  0  0
   27.2174    5.0104   17.5580 O   0  0  0  0  0  0  0  0  0  0  0  0
   26.7274   10.6000   19.9957 O   0  0  0  0  0  0  0  0  0  0  0  0
   36.6460    7.6161   18.0379 C   0  0  1  0  0  0  0  0  0  0  0  0
   35.2061    7.6117   17.4786 C   0  0  1  0  0  0  0  0  0  0  0  0
   34.8591    8.9671   16.8162 C   0  0  2  0  0  0  0  0  0  0  0  0
   35.0113   10.1023   17.8356 C   0  0  1  0  0  0  0  0  0  0  0  0
   36.4627   10.1419   18.3784 C   0  0  0  0  0  0  0  0  0  0  0  0
   36.7791    8.7982   19.0432 C   0  0  2  0  0  0  0  0  0  0  0  0
   34.6888   11.3959   17.1929 N   0  0  0  0  0  0  0  0  0  0  0  0
   38.1441    8.8816   19.5558 N   0  0  0  0  0  0  0  0  0  0  0  0
   35.0893    6.5694   16.4857 O   0  0  0  0  0  0  0  0  0  0  0  0
   33.4988    8.9156   16.3349 O   0  0  0  0  0  0  0  0  0  0  0  0
  1  2  1  0  0  0  0
  1 12  1  6  0  0  0
  1 13  1  0  0  0  0
  2  3  1  0  0  0  0
  2 10  1  6  0  0  0
  4  3  1  6  0  0  0
  4  5  1  0  0  0  0
  4 14  1  0  0  0  0
  5  6  1  0  0  0  0
  5 13  1  1  0  0  0
  6  7  1  0  0  0  0
  6 15  1  1  0  0  0
  7  8  1  0  0  0  0
  7 11  1  1  0  0  0
  8 14  1  0  0  0  0
  8 16  1  6  0  0  0
  9 11  1  0  0  0  0
 17 16  1  6  0  0  0
 17 18  1  0  0  0  0
 17 24  1  0  0  0  0
 18 19  1  0  0  0  0
 18 25  1  6  0  0  0
 19 20  1  0  0  0  0
 19 26  1  1  0  0  0
 20 21  1  0  0  0  0
 20 23  1  6  0  0  0
 21 22  1  1  0  0  0
 21 24  1  0  0  0  0
 22 27  1  0  0  0  0
 28 12  1  1  0  0  0
 28 29  1  0  0  0  0
 28 33  1  0  0  0  0
 29 30  1  0  0  0  0
 29 36  1  6  0  0  0
 30 31  1  0  0  0  0
 30 37  1  1  0  0  0
 31 32  1  0  0  0  0
 31 34  1  6  0  0  0
 32 33  1  0  0  0  0
 33 35  1  6  0  0  0
M  END
>  <CHROM.1>
122.82540279,161.27467981,-138.66792954,-108.56871588,178.50704345,-76.89006449
32.27592005,7.66638211,19.10538187,0.02453898,-0.02141258,3.09059079

>  <Name>
1yrj_lig

>  <RI>
224

>  <Rbt.Current_Directory>
/home/itssahil/PROJECTS/Mol_Feturizer/New_Systems/rnas/1yrj

>  <Rbt.Executable>
rbdock ($Id: //depot/dev/client3/rdock/2013.1/src/exe/rbdock.cxx#4 $)

>  <Rbt.Library>
libRbt.so (2013.1, Build901 2013/11/27)

>  <Rbt.Parameter_File>
/export/apps/rDock/src/rDock_2013.1_src/data/scripts/dock_solv.prm

>  <Rbt.Receptor>
prm/blind_docking_80.prm

>  <SCORE>
-3.48005

>  <SCORE.INTER>
-6.55341

>  <SCORE.INTER.CONST>
1

>  <SCORE.INTER.POLAR>
-0.717321

>  <SCORE.INTER.ROT>
6

>  <SCORE.INTER.SOLV>
15.5751

>  <SCORE.INTER.VDW>
-14.7696

>  <SCORE.INTER.norm>
-0.177119

>  <SCORE.INTRA>
3.07272

>  <SCORE.INTRA.DIHEDRAL>
5.21633

>  <SCORE.INTRA.DIHEDRAL.0>
15.6389

>  <SCORE.INTRA.POLAR>
0

>  <SCORE.INTRA.POLAR.0>
0

>  <SCORE.INTRA.REPUL>
0

>  <SCORE.INTRA.REPUL.0>
0

>  <SCORE.INTRA.SOLV>
0.383784

>  <SCORE.INTRA.SOLV.lig_0>
-90.9181

>  <SCORE.INTRA.VDW>
0.272664

>  <SCORE.INTRA.VDW.0>
-3.14158

>  <SCORE.INTRA.norm>
0.0830465

>  <SCORE.RESTR>
0.000634864

>  <SCORE.RESTR.CAVITY>
0.000634864

>  <SCORE.RESTR.norm>
1.71585e-05

>  <SCORE.SYSTEM>
0

>  <SCORE.SYSTEM.CONST>
0

>  <SCORE.SYSTEM.DIHEDRAL>
0

>  <SCORE.SYSTEM.SOLV>
0

>  <SCORE.SYSTEM.norm>
0

>  <SCORE.heavy>
37

>  <SCORE.norm>
-0.0940555

>  <RMSD>
15.786

$$$$
1yrj_lig
 OpenBabel11021811423D
libRbt.so/2013.1/901 2013/11/27
 37 40  0  0  0  0  0  0  0  0999 V2000
   33.4104    5.8966   18.6606 C   0  0  1  0  0  0  0  0  0  0  0  0
   32.1623    5.2783   18.0008 C   0  0  1  0  0  0  0  0  0  0  0  0
   31.2573    6.3506   17.3734 C   0  0  0  0  0  0  0  0  0  0  0  0
   30.8806    7.4164   18.4354 C   0  0  1  0  0  0  0  0  0  0  0  0
   32.1563    8.0422   19.0305 C   0  0  1  0  0  0  0  0  0  0  0  0
   31.7431    9.1364   20.1028 C   0  0  1  0  0  0  0  0  0  0  0  0
   30.8823   10.2194   19.4322 C   0  0  1  0  0  0  0  0  0  0  0  0
   29.6420    9.5335   18.8096 C   0  0  2  0  0  0  0  0  0  0  0  0
   31.0407   12.6614   20.1518 C   0  0  0  0  0  0  0  0  0  0  0  0
   32.5177    4.2616   16.9973 N   0  0  0  0  0  0  0  0  0  0  0  0
   30.5306   11.2815   20.4250 N   0  0  0  0  0  0  0  0  0  0  0  0
   34.3973    6.3520   17.7162 O   0  0  0  0  0  0  0  0  0  0  0  0
   32.9854    6.9578   19.5944 O   0  0  0  0  0  0  0  0  0  0  0  0
   30.0388    8.4952   17.8696 O   0  0  0  0  0  0  0  0  0  0  0  0
   30.9538    8.5345   21.1074 O   0  0  0  0  0  0  0  0  0  0  0  0
   28.8149   10.4630   18.1087 O   0  0  0  0  0  0  0  0  0  0  0  0
   27.4020   10.1758   18.2312 C   0  0  2  0  0  0  0  0  0  0  0  0
   26.9621    9.8876   19.6758 C   0  0  1  0  0  0  0  0  0  0  0  0
   27.5380    8.5367   20.1774 C   0  0  2  0  0  0  0  0  0  0  0  0
   27.1028    7.4187   19.2578 C   0  0  1  0  0  0  0  0  0  0  0  0
   27.5852    7.7232   17.8197 C   0  0  1  0  0  0  0  0  0  0  0  0
   27.1456    6.6644   16.8109 C   0  0  0  0  0  0  0  0  0  0  0  0
   27.6693    6.1489   19.7577 N   0  0  0  0  0  0  0  0  0  0  0  0
   27.0382    9.0192   17.3799 O   0  0  0  0  0  0  0  0  0  0  0  0
   27.3676   10.9899   20.5002 O   0  0  0  0  0  0  0  0  0  0  0  0
   27.0481    8.2636   21.4974 O   0  0  0  0  0  0  0  0  0  0  0  0
   27.4869    5.3915   17.2918 O   0  0  0  0  0  0  0  0  0  0  0  0
   34.0597    6.9910   16.3775 C   0  0  1  0  0  0  0  0  0  0  0  0
   34.7350    8.3800   16.3530 C   0  0  1  0  0  0  0  0  0  0  0  0
   34.5062    9.0895   14.9963 C   0  0  2  0  0  0  0  0  0  0  0  0
   35.0600    8.2283   13.8550 C   0  0  1  0  0  0  0  0  0  0  0  0
   34.3641    6.8432   13.8447 C   0  0  0  0  0  0  0  0  0  0  0  0
   34.6168    6.1526   15.1890 C   0  0  2  0  0  0  0  0  0  0  0  0
   34.8281    8.9072   12.5605 N   0  0  0  0  0  0  0  0  0  0  0  0
   33.9627    4.8481   15.1332 N   0  0  0  0  0  0  0  0  0  0  0  0
   34.1710    9.1969   17.4020 O   0  0  0  0  0  0  0  0  0  0  0  0
   35.1773   10.3677   15.0200 O   0  0  0  0  0  0  0  0  0  0  0  0
  1  2  1  0  0  0  0
  1 12  1  6  0  0  0
  1 13  1  0  0  0  0
  2  3  1  0  0  0  0
  2 10  1  6  0  0  0
  4  3  1  6  0  0  0
  4  5  1  0  0  0  0
  4 14  1  0  0  0  0
  5  6  1  0  0  0  0
  5 13  1  1  0  0  0
  6  7  1  0  0  0  0
  6 15  1  1  0  0  0
  7  8  1  0  0  0  0
  7 11  1  1  0  0  0
  8 14  1  0  0  0  0
  8 16  1  6  0  0  0
  9 11  1  0  0  0  0
 17 16  1  1  0  0  0
 17 18  1  0  0  0  0
 17 24  1  0  0  0  0
 18 19  1  0  0  0  0
 18 25  1  1  0  0  0
 19 20  1  0  0  0  0
 19 26  1  1  0  0  0
 20 21  1  0  0  0  0
 20 23  1  1  0  0  0
 21 22  1  6  0  0  0
 21 24  1  0  0  0  0
 22 27  1  0  0  0  0
 28 12  1  1  0  0  0
 28 29  1  0  0  0  0
 28 33  1  0  0  0  0
 29 30  1  0  0  0  0
 29 36  1  1  0  0  0
 30 31  1  0  0  0  0
 30 37  1  1  0  0  0
 31 32  1  0  0  0  0
 31 34  1  6  0  0  0
 32 33  1  0  0  0  0
 33 35  1  6  0  0  0
M  END
>  <CHROM.1>
36.42065955,117.23023009,-143.91864119,47.13198937,-50.71867225,122.83786178
31.03243579,8.13754026,17.89288750,0.38684591,-0.45856621,-2.76691914

>  <Name>
1yrj_lig

>  <RI>
0

>  <Rbt.Current_Directory>
/home/itssahil/PROJECTS/Mol_Feturizer/New_Systems/rnas/1yrj

>  <Rbt.Executable>
rbdock ($Id: //depot/dev/client3/rdock/2013.1/src/exe/rbdock.cxx#4 $)

>  <Rbt.Library>
libRbt.so (2013.1, Build901 2013/11/27)

>  <Rbt.Parameter_File>
/export/apps/rDock/src/rDock_2013.1_src/data/scripts/dock_solv.prm

>  <Rbt.Receptor>
prm/blind_docking_40.prm

>  <SCORE>
2.76091

>  <SCORE.INTER>
-6.78226

>  <SCORE.INTER.CONST>
1

>  <SCORE.INTER.POLAR>
-0.816475

>  <SCORE.INTER.ROT>
6

>  <SCORE.INTER.SOLV>
19.2158

>  <SCORE.INTER.VDW>
-15.8052

>  <SCORE.INTER.norm>
-0.183304

>  <SCORE.INTRA>
7.78153

>  <SCORE.INTRA.DIHEDRAL>
0.97578

>  <SCORE.INTRA.DIHEDRAL.0>
15.6389

>  <SCORE.INTRA.POLAR>
0

>  <SCORE.INTRA.POLAR.0>
0

>  <SCORE.INTRA.REPUL>
0

>  <SCORE.INTRA.REPUL.0>
0

>  <SCORE.INTRA.SOLV>
8.11452

>  <SCORE.INTRA.SOLV.lig_0>
-90.9181

>  <SCORE.INTRA.VDW>
3.23638

>  <SCORE.INTRA.VDW.0>
-3.14158

>  <SCORE.INTRA.norm>
0.210312

>  <SCORE.RESTR>
1.76164

>  <SCORE.RESTR.CAVITY>
1.76164

>  <SCORE.RESTR.norm>
0.047612

>  <SCORE.SYSTEM>
0

>  <SCORE.SYSTEM.CONST>
0

>  <SCORE.SYSTEM.DIHEDRAL>
0

>  <SCORE.SYSTEM.SOLV>
0

>  <SCORE.SYSTEM.norm>
0

>  <SCORE.heavy>
37

>  <SCORE.norm>
0.0746192

>  <RMSD>
15.803

$$$$
1yrj_lig
 OpenBabel11021811423D
libRbt.so/2013.1/901 2013/11/27
 37 40  0  0  0  0  0  0  0  0999 V2000
   33.6358    7.5597   18.9655 C   0  0  1  0  0  0  0  0  0  0  0  0
   33.2935    6.7707   20.2445 C   0  0  1  0  0  0  0  0  0  0  0  0
   31.9079    6.1116   20.1556 C   0  0  0  0  0  0  0  0  0  0  0  0
   30.8309    7.1793   19.8305 C   0  0  1  0  0  0  0  0  0  0  0  0
   31.1874    7.9064   18.5201 C   0  0  1  0  0  0  0  0  0  0  0  0
   30.0647    8.9824   18.2044 C   0  0  1  0  0  0  0  0  0  0  0  0
   28.7014    8.2844   18.0714 C   0  0  1  0  0  0  0  0  0  0  0  0
   28.4140    7.5305   19.3925 C   0  0  2  0  0  0  0  0  0  0  0  0
   27.2529   10.2563   18.7924 C   0  0  0  0  0  0  0  0  0  0  0  0
   34.3181    5.7614   20.5585 N   0  0  0  0  0  0  0  0  0  0  0  0
   27.6455    9.2852   17.7238 N   0  0  0  0  0  0  0  0  0  0  0  0
   33.9706    6.7227   17.8429 O   0  0  0  0  0  0  0  0  0  0  0  0
   32.5337    8.4954   18.6678 O   0  0  0  0  0  0  0  0  0  0  0  0
   29.4804    6.5871   19.6956 O   0  0  0  0  0  0  0  0  0  0  0  0
   29.9686    9.8905   19.2818 O   0  0  0  0  0  0  0  0  0  0  0  0
   27.1889    6.7990   19.3329 O   0  0  0  0  0  0  0  0  0  0  0  0
   27.1410    5.8530   18.2391 C   0  0  2  0  0  0  0  0  0  0  0  0
   25.9535    6.0798   17.2893 C   0  0  1  0  0  0  0  0  0  0  0  0
   24.6087    5.7325   17.9815 C   0  0  2  0  0  0  0  0  0  0  0  0
   24.6341    4.3009   18.4659 C   0  0  1  0  0  0  0  0  0  0  0  0
   25.8203    4.1124   19.4410 C   0  0  1  0  0  0  0  0  0  0  0  0
   25.9510    2.6767   19.9442 C   0  0  0  0  0  0  0  0  0  0  0  0
   23.3448    4.0021   19.1231 N   0  0  0  0  0  0  0  0  0  0  0  0
   27.0789    4.4680   18.7613 O   0  0  0  0  0  0  0  0  0  0  0  0
   25.9934    7.4395   16.8324 O   0  0  0  0  0  0  0  0  0  0  0  0
   23.5317    5.8828   17.0464 O   0  0  0  0  0  0  0  0  0  0  0  0
   27.1706    2.5288   20.6214 O   0  0  0  0  0  0  0  0  0  0  0  0
   34.6782    7.2228   16.5924 C   0  0  1  0  0  0  0  0  0  0  0  0
   34.5430    6.1187   15.5206 C   0  0  1  0  0  0  0  0  0  0  0  0
   35.1766    6.5605   14.1792 C   0  0  2  0  0  0  0  0  0  0  0  0
   34.5051    7.8457   13.6810 C   0  0  1  0  0  0  0  0  0  0  0  0
   34.6652    8.9740   14.7317 C   0  0  0  0  0  0  0  0  0  0  0  0
   34.0176    8.5226   16.0450 C   0  0  2  0  0  0  0  0  0  0  0  0
   35.1230    8.2684   12.4043 N   0  0  0  0  0  0  0  0  0  0  0  0
   34.1731    9.6161   17.0006 N   0  0  0  0  0  0  0  0  0  0  0  0
   35.2201    4.9290   15.9813 O   0  0  0  0  0  0  0  0  0  0  0  0
   35.0002    5.5045   13.2104 O   0  0  0  0  0  0  0  0  0  0  0  0
  1  2  1  0  0  0  0
  1 12  1  6  0  0  0
  1 13  1  0  0  0  0
  2  3  1  0  0  0  0
  2 10  1  6  0  0  0
  4  3  1  6  0  0  0
  4  5  1  0  0  0  0
  4 14  1  0  0  0  0
  5  6  1  0  0  0  0
  5 13  1  1  0  0  0
  6  7  1  0  0  0  0
  6 15  1  1  0  0  0
  7  8  1  0  0  0  0
  7 11  1  1  0  0  0
  8 14  1  0  0  0  0
  8 16  1  6  0  0  0
  9 11  1  0  0  0  0
 17 16  1  1  0  0  0
 17 18  1  0  0  0  0
 17 24  1  0  0  0  0
 18 19  1  0  0  0  0
 18 25  1  1  0  0  0
 19 20  1  0  0  0  0
 19 26  1  6  0  0  0
 20 21  1  0  0  0  0
 20 23  1  1  0  0  0
 21 22  1  6  0  0  0
 21 24  1  0  0  0  0
 22 27  1  0  0  0  0
 28 12  1  1  0  0  0
 28 29  1  0  0  0  0
 28 33  1  0  0  0  0
 29 30  1  0  0  0  0
 29 36  1  1  0  0  0
 30 31  1  0  0  0  0
 30 37  1  6  0  0  0
 31 32  1  0  0  0  0
 31 34  1  6  0  0  0
 32 33  1  0  0  0  0
 33 35  1  1  0  0  0
M  END
>  <CHROM.1>
-163.76521730,-70.53714490,56.71024100,-122.75592136,169.50783515,-166.70615102
30.20326179,6.76136927,17.80515821,-0.37364923,-0.07374497,2.34806862

>  <Name>
1yrj_lig

>  <RI>
0

>  <Rbt.Current_Directory>
/home/itssahil/PROJECTS/Mol_Feturizer/New_Systems/rnas/1yrj

>  <Rbt.Executable>
rbdock ($Id: //depot/dev/client3/rdock/2013.1/src/exe/rbdock.cxx#4 $)

>  <Rbt.Library>
libRbt.so (2013.1, Build901 2013/11/27)

>  <Rbt.Parameter_File>
/export/apps/rDock/src/rDock_2013.1_src/data/scripts/dock_solv.prm

>  <Rbt.Receptor>
prm/blind_docking_40.prm

>  <SCORE>
-7.19425

>  <SCORE.INTER>
-13.0029

>  <SCORE.INTER.CONST>
1

>  <SCORE.INTER.POLAR>
-1.66918

>  <SCORE.INTER.ROT>
6

>  <SCORE.INTER.SOLV>
13.0803

>  <SCORE.INTER.VDW>
-15.0648

>  <SCORE.INTER.norm>
-0.35143

>  <SCORE.INTRA>
1.17035

>  <SCORE.INTRA.DIHEDRAL>
-5.83313

>  <SCORE.INTRA.DIHEDRAL.0>
15.6389

>  <SCORE.INTRA.POLAR>
0

>  <SCORE.INTRA.POLAR.0>
0

>  <SCORE.INTRA.REPUL>
0.0224344

>  <SCORE.INTRA.REPUL.0>
0

>  <SCORE.INTRA.SOLV>
1.41852

>  <SCORE.INTRA.SOLV.lig_0>
-90.9181

>  <SCORE.INTRA.VDW>
3.26548

>  <SCORE.INTRA.VDW.0>
-3.14158

>  <SCORE.INTRA.norm>
0.031631

>  <SCORE.RESTR>
4.6383

>  <SCORE.RESTR.CAVITY>
4.6383

>  <SCORE.RESTR.norm>
0.125359

>  <SCORE.SYSTEM>
0

>  <SCORE.SYSTEM.CONST>
0

>  <SCORE.SYSTEM.DIHEDRAL>
0

>  <SCORE.SYSTEM.SOLV>
0

>  <SCORE.SYSTEM.norm>
0

>  <SCORE.heavy>
37

>  <SCORE.norm>
-0.194439

>  <RMSD>
15.829

$$$$
1yrj_lig
 OpenBabel11021811423D
libRbt.so/2013.1/901 2013/11/27
 37 40  0  0  0  0  0  0  0  0999 V2000
   26.8576    8.0316   19.6689 C   0  0  1  0  0  0  0  0  0  0  0  0
   27.5833    9.3678   19.4171 C   0  0  1  0  0  0  0  0  0  0  0  0
   28.6839    9.2287   18.3534 C   0  0  0  0  0  0  0  0  0  0  0  0
   29.6717    8.1021   18.7542 C   0  0  1  0  0  0  0  0  0  0  0  0
   28.9106    6.7765   18.9456 C   0  0  1  0  0  0  0  0  0  0  0  0
   29.9446    5.6398   19.3418 C   0  0  1  0  0  0  0  0  0  0  0  0
   31.0007    5.4918   18.2346 C   0  0  1  0  0  0  0  0  0  0  0  0
   31.7003    6.8601   18.0485 C   0  0  2  0  0  0  0  0  0  0  0  0
   32.8710    3.9241   17.4923 C   0  0  0  0  0  0  0  0  0  0  0  0
   26.6465   10.4400   19.0432 N   0  0  0  0  0  0  0  0  0  0  0  0
   31.9500    4.3877   18.5768 N   0  0  0  0  0  0  0  0  0  0  0  0
   25.9573    7.6549   18.6103 O   0  0  0  0  0  0  0  0  0  0  0  0
   27.8593    6.9876   19.9612 O   0  0  0  0  0  0  0  0  0  0  0  0
   30.7316    7.9019   17.7398 O   0  0  0  0  0  0  0  0  0  0  0  0
   30.6231    6.0135   20.5227 O   0  0  0  0  0  0  0  0  0  0  0  0
   32.6589    6.8288   16.9903 O   0  0  0  0  0  0  0  0  0  0  0  0
   33.9460    7.3706   17.3693 C   0  0  2  0  0  0  0  0  0  0  0  0
   34.0028    8.9057   17.3074 C   0  0  1  0  0  0  0  0  0  0  0  0
   33.9395    9.4096   15.8409 C   0  0  2  0  0  0  0  0  0  0  0  0
   35.0696    8.8046   15.0398 C   0  0  1  0  0  0  0  0  0  0  0  0
   34.9677    7.2620   15.0971 C   0  0  1  0  0  0  0  0  0  0  0  0
   36.1033    6.5653   14.3510 C   0  0  0  0  0  0  0  0  0  0  0  0
   34.9799    9.2984   13.6500 N   0  0  0  0  0  0  0  0  0  0  0  0
   35.0112    6.8165   16.5014 O   0  0  0  0  0  0  0  0  0  0  0  0
   32.9337    9.4302   18.1080 O   0  0  0  0  0  0  0  0  0  0  0  0
   34.0703   10.8376   15.8152 O   0  0  0  0  0  0  0  0  0  0  0  0
   35.9431    6.7592   12.9709 O   0  0  0  0  0  0  0  0  0  0  0  0
   25.3385    6.2718   18.4742 C   0  0  1  0  0  0  0  0  0  0  0  0
   26.4976    5.2510   18.4905 C   0  0  1  0  0  0  0  0  0  0  0  0
   25.9653    3.7989   18.4243 C   0  0  2  0  0  0  0  0  0  0  0  0
   25.0272    3.5307   19.6071 C   0  0  1  0  0  0  0  0  0  0  0  0
   23.8384    4.5251   19.5824 C   0  0  0  0  0  0  0  0  0  0  0  0
   24.3865    5.9536   19.6651 C   0  0  2  0  0  0  0  0  0  0  0  0
   24.5134    2.1447   19.5316 N   0  0  0  0  0  0  0  0  0  0  0  0
   23.2390    6.8569   19.6572 N   0  0  0  0  0  0  0  0  0  0  0  0
   27.3469    5.4838   17.3458 O   0  0  0  0  0  0  0  0  0  0  0  0
   27.0859    2.8895   18.4676 O   0  0  0  0  0  0  0  0  0  0  0  0
  1  2  1  0  0  0  0
  1 12  1  6  0  0  0
  1 13  1  0  0  0  0
  2  3  1  0  0  0  0
  2 10  1  6  0  0  0
  4  3  1  6  0  0  0
  4  5  1  0  0  0  0
  4 14  1  0  0  0  0
  5  6  1  0  0  0  0
  5 13  1  1  0  0  0
  6  7  1  0  0  0  0
  6 15  1  1  0  0  0
  7  8  1  0  0  0  0
  7 11  1  1  0  0  0
  8 14  1  0  0  0  0
  8 16  1  6  0  0  0
  9 11  1  0  0  0  0
 17 16  1  6  0  0  0
 17 18  1  0  0  0  0
 17 24  1  0  0  0  0
 18 19  1  0  0  0  0
 18 25  1  1  0  0  0
 19 20  1  0  0  0  0
 19 26  1  1  0  0  0
 20 21  1  0  0  0  0
 20 23  1  6  0  0  0
 21 22  1  6  0  0  0
 21 24  1  0  0  0  0
 22 27  1  0  0  0  0
 28 12  1  1  0  0  0
 28 29  1  0  0  0  0
 28 33  1  0  0  0  0
 29 30  1  0  0  0  0
 29 36  1  6  0  0  0
 30 31  1  0  0  0  0
 30 37  1  1  0  0  0
 31 32  1  0  0  0  0
 31 34  1  6  0  0  0
 32 33  1  0  0  0  0
 33 35  1  6  0  0  0
M  END
>  <CHROM.1>
167.20479406,168.09526620,-130.55182281,-81.57337524,-70.10390064,-53.79042754
29.99694406,6.80811400,17.84321872,2.90769148,-0.39032868,-3.11038397

>  <Name>
1yrj_lig

>  <RI>
0

>  <Rbt.Current_Directory>
/home/itssahil/PROJECTS/Mol_Feturizer/New_Systems/rnas/1yrj

>  <Rbt.Executable>
rbdock ($Id: //depot/dev/client3/rdock/2013.1/src/exe/rbdock.cxx#4 $)

>  <Rbt.Library>
libRbt.so (2013.1, Build901 2013/11/27)

>  <Rbt.Parameter_File>
/export/apps/rDock/src/rDock_2013.1_src/data/scripts/dock_solv.prm

>  <Rbt.Receptor>
prm/blind_docking_40.prm

>  <SCORE>
1.02053

>  <SCORE.INTER>
-4.30375

>  <SCORE.INTER.CONST>
1

>  <SCORE.INTER.POLAR>
-0.723889

>  <SCORE.INTER.ROT>
6

>  <SCORE.INTER.SOLV>
9.90666

>  <SCORE.INTER.VDW>
-11.3584

>  <SCORE.INTER.norm>
-0.116318

>  <SCORE.INTRA>
-0.183102

>  <SCORE.INTRA.DIHEDRAL>
-5.41551

>  <SCORE.INTRA.DIHEDRAL.0>
15.6389

>  <SCORE.INTRA.POLAR>
0

>  <SCORE.INTRA.POLAR.0>
0

>  <SCORE.INTRA.REPUL>
0

>  <SCORE.INTRA.REPUL.0>
0

>  <SCORE.INTRA.SOLV>
0.139026

>  <SCORE.INTRA.SOLV.lig_0>
-90.9181

>  <SCORE.INTRA.VDW>
2.45514

>  <SCORE.INTRA.VDW.0>
-3.14158

>  <SCORE.INTRA.norm>
-0.0049487

>  <SCORE.RESTR>
5.50739

>  <SCORE.RESTR.CAVITY>
5.50739

>  <SCORE.RESTR.norm>
0.148848

>  <SCORE.SYSTEM>
0

>  <SCORE.SYSTEM.CONST>
0

>  <SCORE.SYSTEM.DIHEDRAL>
0

>  <SCORE.SYSTEM.SOLV>
0

>  <SCORE.SYSTEM.norm>
0

>  <SCORE.heavy>
37

>  <SCORE.norm>
0.0275819

>  <RMSD>
15.998

$$$$
1yrj_lig
 OpenBabel11021811423D
libRbt.so/2013.1/901 2013/11/27
 37 40  0  0  0  0  0  0  0  0999 V2000
   32.1544    8.1456   19.1396 C   0  0  1  0  0  0  0  0  0  0  0  0
   31.8916    7.7395   20.6030 C   0  0  1  0  0  0  0  0  0  0  0  0
   30.6797    6.8023   20.7271 C   0  0  0  0  0  0  0  0  0  0  0  0
   29.4328    7.4564   20.0767 C   0  0  1  0  0  0  0  0  0  0  0  0
   29.7244    7.7985   18.6033 C   0  0  1  0  0  0  0  0  0  0  0  0
   28.4304    8.4533   17.9591 C   0  0  1  0  0  0  0  0  0  0  0  0
   27.2514    7.4713   18.0539 C   0  0  1  0  0  0  0  0  0  0  0  0
   27.0321    7.1226   19.5461 C   0  0  2  0  0  0  0  0  0  0  0  0
   25.6901    7.5578   16.0385 C   0  0  0  0  0  0  0  0  0  0  0  0
   33.0762    7.1247   21.2241 N   0  0  0  0  0  0  0  0  0  0  0  0
   26.0403    8.0610   17.4036 N   0  0  0  0  0  0  0  0  0  0  0  0
   32.7314    7.0939   18.3432 O   0  0  0  0  0  0  0  0  0  0  0  0
   30.9081    8.6806   18.5573 O   0  0  0  0  0  0  0  0  0  0  0  0
   28.2448    6.5744   20.1359 O   0  0  0  0  0  0  0  0  0  0  0  0
   28.0753    9.6082   18.6903 O   0  0  0  0  0  0  0  0  0  0  0  0
   25.9896    6.1623   19.7212 O   0  0  0  0  0  0  0  0  0  0  0  0
   25.9201    5.1928   18.6494 C   0  0  2  0  0  0  0  0  0  0  0  0
   24.7912    4.1649   18.8302 C   0  0  1  0  0  0  0  0  0  0  0  0
   25.0894    3.2087   20.0156 C   0  0  2  0  0  0  0  0  0  0  0  0
   26.4115    2.5105   19.7934 C   0  0  1  0  0  0  0  0  0  0  0  0
   27.5297    3.5691   19.6450 C   0  0  1  0  0  0  0  0  0  0  0  0
   28.8981    2.9505   19.3680 C   0  0  0  0  0  0  0  0  0  0  0  0
   26.6693    1.6126   20.9383 N   0  0  0  0  0  0  0  0  0  0  0  0
   27.2086    4.4723   18.5253 O   0  0  0  0  0  0  0  0  0  0  0  0
   23.5565    4.8752   19.0034 O   0  0  0  0  0  0  0  0  0  0  0  0
   24.0560    2.2185   20.1086 O   0  0  0  0  0  0  0  0  0  0  0  0
   28.8392    2.1976   18.1859 O   0  0  0  0  0  0  0  0  0  0  0  0
   32.9376    7.1843   16.8387 C   0  0  1  0  0  0  0  0  0  0  0  0
   33.9608    8.3136   16.5865 C   0  0  1  0  0  0  0  0  0  0  0  0
   34.2921    8.4423   15.0799 C   0  0  2  0  0  0  0  0  0  0  0  0
   34.8499    7.1156   14.5512 C   0  0  1  0  0  0  0  0  0  0  0  0
   33.8176    5.9791   14.7644 C   0  0  0  0  0  0  0  0  0  0  0  0
   33.5168    5.8585   16.2620 C   0  0  2  0  0  0  0  0  0  0  0  0
   35.1540    7.2423   13.1083 N   0  0  0  0  0  0  0  0  0  0  0  0
   32.5572    4.7693   16.4227 N   0  0  0  0  0  0  0  0  0  0  0  0
   33.4044    9.5650   17.0453 O   0  0  0  0  0  0  0  0  0  0  0  0
   35.2681    9.4920   14.9055 O   0  0  0  0  0  0  0  0  0  0  0  0
  1  2  1  0  0  0  0
  1 12  1  6  0  0  0
  1 13  1  0  0  0  0
  2  3  1  0  0  0  0
  2 10  1  6  0  0  0
  4  3  1  6  0  0  0
  4  5  1  0  0  0  0
  4 14  1  0  0  0  0
  5  6  1  0  0  0  0
  5 13  1  1  0  0  0
  6  7  1  0  0  0  0
  6 15  1  1  0  0  0
  7  8  1  0  0  0  0
  7 11  1  1  0  0  0
  8 14  1  0  0  0  0
  8 16  1  6  0  0  0
  9 11  1  0  0  0  0
 17 16  1  1  0  0  0
 17 18  1  0  0  0  0
 17 24  1  0  0  0  0
 18 19  1  0  0  0  0
 18 25  1  1  0  0  0
 19 20  1  0  0  0  0
 19 26  1  6  0  0  0
 20 21  1  0  0  0  0
 20 23  1  1  0  0  0
 21 22  1  6  0  0  0
 21 24  1  0  0  0  0
 22 27  1  0  0  0  0
 28 12  1  1  0  0  0
 28 29  1  0  0  0  0
 28 33  1  0  0  0  0
 29 30  1  0  0  0  0
 29 36  1  6  0  0  0
 30 31  1  0  0  0  0
 30 37  1  1  0  0  0
 31 32  1  0  0  0  0
 31 34  1  6  0  0  0
 32 33  1  0  0  0  0
 33 35  1  6  0  0  0
M  END
>  <CHROM.1>
172.67833987,102.60810827,34.36966896,-179.53470352,59.14002913,64.39963404
29.58442118,6.29522996,18.20704755,0.40474766,0.37317307,-0.02743616

>  <Name>
1yrj_lig

>  <RI>
0

>  <Rbt.Current_Directory>
/home/itssahil/PROJECTS/Mol_Feturizer/New_Systems/rnas/1yrj

>  <Rbt.Executable>
rbdock ($Id: //depot/dev/client3/rdock/2013.1/src/exe/rbdock.cxx#4 $)

>  <Rbt.Library>
libRbt.so (2013.1, Build901 2013/11/27)

>  <Rbt.Parameter_File>
/export/apps/rDock/src/rDock_2013.1_src/data/scripts/dock_solv.prm

>  <Rbt.Receptor>
prm/blind_docking_40.prm

>  <SCORE>
-11.0083

>  <SCORE.INTER>
-11.7353

>  <SCORE.INTER.CONST>
1

>  <SCORE.INTER.POLAR>
-0.679182

>  <SCORE.INTER.ROT>
6

>  <SCORE.INTER.SOLV>
15.4205

>  <SCORE.INTER.VDW>
-18.2997

>  <SCORE.INTER.norm>
-0.317169

>  <SCORE.INTRA>
-4.78368

>  <SCORE.INTRA.DIHEDRAL>
-11.4309

>  <SCORE.INTRA.DIHEDRAL.0>
15.6389

>  <SCORE.INTRA.POLAR>
0

>  <SCORE.INTRA.POLAR.0>
0

>  <SCORE.INTRA.REPUL>
0

>  <SCORE.INTRA.REPUL.0>
0

>  <SCORE.INTRA.SOLV>
-1.15995

>  <SCORE.INTRA.SOLV.lig_0>
-90.9181

>  <SCORE.INTRA.VDW>
1.51177

>  <SCORE.INTRA.VDW.0>
-3.14158

>  <SCORE.INTRA.norm>
-0.129289

>  <SCORE.RESTR>
5.51068

>  <SCORE.RESTR.CAVITY>
5.51068

>  <SCORE.RESTR.norm>
0.148937

>  <SCORE.SYSTEM>
0

>  <SCORE.SYSTEM.CONST>
0

>  <SCORE.SYSTEM.DIHEDRAL>
0

>  <SCORE.SYSTEM.SOLV>
0

>  <SCORE.SYSTEM.norm>
0

>  <SCORE.heavy>
37

>  <SCORE.norm>
-0.29752

>  <RMSD>
15.999

$$$$
1yrj_lig
 OpenBabel11021811423D
libRbt.so/2013.1/901 2013/11/27
 37 40  0  0  0  0  0  0  0  0999 V2000
   26.5283    6.8932   19.4457 C   0  0  1  0  0  0  0  0  0  0  0  0
   26.3843    6.9050   17.9113 C   0  0  1  0  0  0  0  0  0  0  0  0
   27.7230    6.6262   17.2096 C   0  0  0  0  0  0  0  0  0  0  0  0
   28.7982    7.6327   17.6961 C   0  0  1  0  0  0  0  0  0  0  0  0
   28.9437    7.5502   19.2275 C   0  0  1  0  0  0  0  0  0  0  0  0
   30.0571    8.5788   19.6969 C   0  0  1  0  0  0  0  0  0  0  0  0
   31.3937    8.2409   19.0166 C   0  0  1  0  0  0  0  0  0  0  0  0
   31.1814    8.2896   17.4840 C   0  0  2  0  0  0  0  0  0  0  0  0
   33.1637    8.8117   20.7625 C   0  0  0  0  0  0  0  0  0  0  0  0
   25.3594    5.9553   17.4481 N   0  0  0  0  0  0  0  0  0  0  0  0
   32.4608    9.1749   19.4924 N   0  0  0  0  0  0  0  0  0  0  0  0
   26.6847    5.5740   20.0010 O   0  0  0  0  0  0  0  0  0  0  0  0
   27.6214    7.8062   19.8336 O   0  0  0  0  0  0  0  0  0  0  0  0
   30.1195    7.3809   17.0769 O   0  0  0  0  0  0  0  0  0  0  0  0
   29.6949    9.8813   19.2883 O   0  0  0  0  0  0  0  0  0  0  0  0
   32.3638    7.9256   16.7705 O   0  0  0  0  0  0  0  0  0  0  0  0
   32.2995    6.5987   16.1972 C   0  0  2  0  0  0  0  0  0  0  0  0
   32.7194    5.4908   17.1770 C   0  0  1  0  0  0  0  0  0  0  0  0
   34.2395    5.5598   17.4819 C   0  0  2  0  0  0  0  0  0  0  0  0
   35.0273    5.4568   16.1960 C   0  0  1  0  0  0  0  0  0  0  0  0
   34.6039    6.6007   15.2444 C   0  0  1  0  0  0  0  0  0  0  0  0
   35.3185    6.5446   13.8961 C   0  0  0  0  0  0  0  0  0  0  0  0
   36.4676    5.5301   16.5178 N   0  0  0  0  0  0  0  0  0  0  0  0
   33.1544    6.5197   14.9899 O   0  0  0  0  0  0  0  0  0  0  0  0
   31.9219    5.6109   18.3639 O   0  0  0  0  0  0  0  0  0  0  0  0
   34.6101    4.4698   18.3371 O   0  0  0  0  0  0  0  0  0  0  0  0
   34.9849    5.3501   13.2405 O   0  0  0  0  0  0  0  0  0  0  0  0
   26.2611    4.2979   19.2893 C   0  0  1  0  0  0  0  0  0  0  0  0
   27.4804    3.3495   19.2913 C   0  0  1  0  0  0  0  0  0  0  0  0
   27.1306    1.9871   18.6449 C   0  0  2  0  0  0  0  0  0  0  0  0
   25.9683    1.3320   19.4005 C   0  0  1  0  0  0  0  0  0  0  0  0
   24.7252    2.2576   19.3749 C   0  0  0  0  0  0  0  0  0  0  0  0
   25.0887    3.5926   20.0333 C   0  0  2  0  0  0  0  0  0  0  0  0
   25.6319    0.0356   18.7707 N   0  0  0  0  0  0  0  0  0  0  0  0
   23.8906    4.4272   20.0058 N   0  0  0  0  0  0  0  0  0  0  0  0
   28.5514    3.9570   18.5365 O   0  0  0  0  0  0  0  0  0  0  0  0
   28.2947    1.1346   18.6958 O   0  0  0  0  0  0  0  0  0  0  0  0
  1  2  1  0  0  0  0
  1 12  1  6  0  0  0
  1 13  1  0  0  0  0
  2  3  1  0  0  0  0
  2 10  1  1  0  0  0
  4  3  1  6  0  0  0
  4  5  1  0  0  0  0
  4 14  1  0  0  0  0
  5  6  1  0  0  0  0
  5 13  1  1  0  0  0
  6  7  1  0  0  0  0
  6 15  1  6  0  0  0
  7  8  1  0  0  0  0
  7 11  1  6  0  0  0
  8 14  1  0  0  0  0
  8 16  1  6  0  0  0
  9 11  1  0  0  0  0
 17 16  1  1  0  0  0
 17 18  1  0  0  0  0
 17 24  1  0  0  0  0
 18 19  1  0  0  0  0
 18 25  1  1  0  0  0
 19 20  1  0  0  0  0
 19 26  1  1  0  0  0
 20 21  1  0  0  0  0
 20 23  1  1  0  0  0
 21 22  1  6  0  0  0
 21 24  1  0  0  0  0
 22 27  1  0  0  0  0
 28 12  1  1  0  0  0
 28 29  1  0  0  0  0
 28 33  1  0  0  0  0
 29 30  1  0  0  0  0
 29 36  1  6  0  0  0
 30 31  1  0  0  0  0
 30 37  1  1  0  0  0
 31 32  1  0  0  0  0
 31 34  1  6  0  0  0
 32 33  1  0  0  0  0
 33 35  1  6  0  0  0
M  END
>  <CHROM.1>
-21.13066810,85.26864854,105.11569967,-85.58142340,62.14531922,127.64957208
29.96344932,5.77924013,18.04255548,2.91190953,-0.40331360,-2.88100511

>  <Name>
1yrj_lig

>  <RI>
0

>  <Rbt.Current_Directory>
/home/itssahil/PROJECTS/Mol_Feturizer/New_Systems/rnas/1yrj

>  <Rbt.Executable>
rbdock ($Id: //depot/dev/client3/rdock/2013.1/src/exe/rbdock.cxx#4 $)

>  <Rbt.Library>
libRbt.so (2013.1, Build901 2013/11/27)

>  <Rbt.Parameter_File>
/export/apps/rDock/src/rDock_2013.1_src/data/scripts/dock_solv.prm

>  <Rbt.Receptor>
prm/blind_docking_40.prm

>  <SCORE>
-2.01564

>  <SCORE.INTER>
-15.9285

>  <SCORE.INTER.CONST>
1

>  <SCORE.INTER.POLAR>
-1

>  <SCORE.INTER.ROT>
6

>  <SCORE.INTER.SOLV>
13.5198

>  <SCORE.INTER.VDW>
-19.3923

>  <SCORE.INTER.norm>
-0.4305

>  <SCORE.INTRA>
7.88338

>  <SCORE.INTRA.DIHEDRAL>
5.85101

>  <SCORE.INTRA.DIHEDRAL.0>
15.6389

>  <SCORE.INTRA.POLAR>
0

>  <SCORE.INTRA.POLAR.0>
0

>  <SCORE.INTRA.REPUL>
0

>  <SCORE.INTRA.REPUL.0>
0

>  <SCORE.INTRA.SOLV>
4.23959

>  <SCORE.INTRA.SOLV.lig_0>
-90.9181

>  <SCORE.INTRA.VDW>
2.83808

>  <SCORE.INTRA.VDW.0>
-3.14158

>  <SCORE.INTRA.norm>
0.213064

>  <SCORE.RESTR>
6.02947

>  <SCORE.RESTR.CAVITY>
6.02947

>  <SCORE.RESTR.norm>
0.162959

>  <SCORE.SYSTEM>
0

>  <SCORE.SYSTEM.CONST>
0

>  <SCORE.SYSTEM.DIHEDRAL>
0

>  <SCORE.SYSTEM.SOLV>
0

>  <SCORE.SYSTEM.norm>
0

>  <SCORE.heavy>
37

>  <SCORE.norm>
-0.0544768

>  <RMSD>
16.054

$$$$
1yrj_lig
 OpenBabel11021811423D
libRbt.so/2013.1/901 2013/11/27
 37 40  0  0  0  0  0  0  0  0999 V2000
   32.3096    9.7021   20.3459 C   0  0  1  0  0  0  0  0  0  0  0  0
   32.0849    8.6810   21.4783 C   0  0  1  0  0  0  0  0  0  0  0  0
   31.4833    7.3679   20.9526 C   0  0  0  0  0  0  0  0  0  0  0  0
   30.1765    7.6578   20.1691 C   0  0  1  0  0  0  0  0  0  0  0  0
   30.4586    8.6419   19.0180 C   0  0  1  0  0  0  0  0  0  0  0  0
   29.1101    8.9108   18.2260 C   0  0  1  0  0  0  0  0  0  0  0  0
   28.5628    7.5858   17.6709 C   0  0  1  0  0  0  0  0  0  0  0  0
   28.3435    6.6183   18.8592 C   0  0  2  0  0  0  0  0  0  0  0  0
   26.6514    6.6460   16.2673 C   0  0  0  0  0  0  0  0  0  0  0  0
   33.3227    8.4097   22.2274 N   0  0  0  0  0  0  0  0  0  0  0  0
   27.3183    7.8372   16.8799 N   0  0  0  0  0  0  0  0  0  0  0  0
   33.4290    9.3861   19.4971 O   0  0  0  0  0  0  0  0  0  0  0  0
   31.0524    9.8672   19.5903 O   0  0  0  0  0  0  0  0  0  0  0  0
   29.5772    6.4257   19.6076 O   0  0  0  0  0  0  0  0  0  0  0  0
   28.1401    9.4277   19.1128 O   0  0  0  0  0  0  0  0  0  0  0  0
   27.8923    5.3348   18.4249 O   0  0  0  0  0  0  0  0  0  0  0  0
   27.2205    4.5839   19.4635 C   0  0  2  0  0  0  0  0  0  0  0  0
   26.8238    3.1636   19.0287 C   0  0  1  0  0  0  0  0  0  0  0  0
   25.6899    3.1986   17.9698 C   0  0  2  0  0  0  0  0  0  0  0  0
   24.4926    3.9375   18.5223 C   0  0  1  0  0  0  0  0  0  0  0  0
   24.9168    5.3704   18.9226 C   0  0  1  0  0  0  0  0  0  0  0  0
   23.7749    6.1760   19.5382 C   0  0  0  0  0  0  0  0  0  0  0  0
   23.4339    3.9580   17.4918 N   0  0  0  0  0  0  0  0  0  0  0  0
   26.0063    5.3039   19.9130 O   0  0  0  0  0  0  0  0  0  0  0  0
   27.9975    2.4946   18.5450 O   0  0  0  0  0  0  0  0  0  0  0  0
   25.2934    1.8595   17.6430 O   0  0  0  0  0  0  0  0  0  0  0  0
   24.2560    7.4276   19.9505 O   0  0  0  0  0  0  0  0  0  0  0  0
   33.3146    8.6033   18.1977 C   0  0  1  0  0  0  0  0  0  0  0  0
   33.9565    9.4659   17.0887 C   0  0  1  0  0  0  0  0  0  0  0  0
   33.9510    8.7248   15.7297 C   0  0  2  0  0  0  0  0  0  0  0  0
   34.7100    7.3983   15.8535 C   0  0  1  0  0  0  0  0  0  0  0  0
   34.0537    6.5065   16.9383 C   0  0  0  0  0  0  0  0  0  0  0  0
   34.0845    7.2518   18.2767 C   0  0  2  0  0  0  0  0  0  0  0  0
   34.6913    6.6900   14.5542 N   0  0  0  0  0  0  0  0  0  0  0  0
   33.4756    6.3745   19.2729 N   0  0  0  0  0  0  0  0  0  0  0  0
   33.2042   10.6909   16.9494 O   0  0  0  0  0  0  0  0  0  0  0  0
   34.5827    9.5638   14.7389 O   0  0  0  0  0  0  0  0  0  0  0  0
  1  2  1  0  0  0  0
  1 12  1  6  0  0  0
  1 13  1  0  0  0  0
  2  3  1  0  0  0  0
  2 10  1  6  0  0  0
  4  3  1  6  0  0  0
  4  5  1  0  0  0  0
  4 14  1  0  0  0  0
  5  6  1  0  0  0  0
  5 13  1  1  0  0  0
  6  7  1  0  0  0  0
  6 15  1  1  0  0  0
  7  8  1  0  0  0  0
  7 11  1  1  0  0  0
  8 14  1  0  0  0  0
  8 16  1  6  0  0  0
  9 11  1  0  0  0  0
 17 16  1  6  0  0  0
 17 18  1  0  0  0  0
 17 24  1  0  0  0  0
 18 19  1  0  0  0  0
 18 25  1  6  0  0  0
 19 20  1  0  0  0  0
 19 26  1  1  0  0  0
 20 21  1  0  0  0  0
 20 23  1  6  0  0  0
 21 22  1  1  0  0  0
 21 24  1  0  0  0  0
 22 27  1  0  0  0  0
 28 12  1  1  0  0  0
 28 29  1  0  0  0  0
 28 33  1  0  0  0  0
 29 30  1  0  0  0  0
 29 36  1  6  0  0  0
 30 31  1  0  0  0  0
 30 37  1  6  0  0  0
 31 32  1  0  0  0  0
 31 34  1  6  0  0  0
 32 33  1  0  0  0  0
 33 35  1  1  0  0  0
M  END
>  <CHROM.1>
93.91597371,-179.90719044,-158.62373304,-175.84435894,176.29981771,125.39713015
29.68918849,6.95440207,18.45458213,0.22871541,0.40867989,0.83192693

>  <Name>
1yrj_lig

>  <RI>
0

>  <Rbt.Current_Directory>
/home/itssahil/PROJECTS/Mol_Feturizer/New_Systems/rnas/1yrj

>  <Rbt.Executable>
rbdock ($Id: //depot/dev/client3/rdock/2013.1/src/exe/rbdock.cxx#4 $)

>  <Rbt.Library>
libRbt.so (2013.1, Build901 2013/11/27)

>  <Rbt.Parameter_File>
/export/apps/rDock/src/rDock_2013.1_src/data/scripts/dock_solv.prm

>  <Rbt.Receptor>
prm/blind_docking_40.prm

>  <SCORE>
4.39596

>  <SCORE.INTER>
-2.37873

>  <SCORE.INTER.CONST>
1

>  <SCORE.INTER.POLAR>
0

>  <SCORE.INTER.ROT>
6

>  <SCORE.INTER.SOLV>
13.0683

>  <SCORE.INTER.VDW>
-13.5419

>  <SCORE.INTER.norm>
-0.0642899

>  <SCORE.INTRA>
0.91453

>  <SCORE.INTRA.DIHEDRAL>
-2.08082

>  <SCORE.INTRA.DIHEDRAL.0>
15.6389

>  <SCORE.INTRA.POLAR>
0

>  <SCORE.INTRA.POLAR.0>
0

>  <SCORE.INTRA.REPUL>
0

>  <SCORE.INTRA.REPUL.0>
0

>  <SCORE.INTRA.SOLV>
2.7528

>  <SCORE.INTRA.SOLV.lig_0>
-90.9181

>  <SCORE.INTRA.VDW>
0.578536

>  <SCORE.INTRA.VDW.0>
-3.14158

>  <SCORE.INTRA.norm>
0.024717

>  <SCORE.RESTR>
5.86016

>  <SCORE.RESTR.CAVITY>
5.86016

>  <SCORE.RESTR.norm>
0.158383

>  <SCORE.SYSTEM>
0

>  <SCORE.SYSTEM.CONST>
0

>  <SCORE.SYSTEM.DIHEDRAL>
0

>  <SCORE.SYSTEM.SOLV>
0

>  <SCORE.SYSTEM.norm>
0

>  <SCORE.heavy>
37

>  <SCORE.norm>
0.11881

>  <RMSD>
16.276

$$$$
1yrj_lig
 OpenBabel11021811423D
libRbt.so/2013.1/901 2013/11/27
 37 40  0  0  0  0  0  0  0  0999 V2000
   27.8792    8.0790   20.2319 C   0  0  1  0  0  0  0  0  0  0  0  0
   28.3499    9.5337   20.0380 C   0  0  1  0  0  0  0  0  0  0  0  0
   29.1776    9.7001   18.7536 C   0  0  0  0  0  0  0  0  0  0  0  0
   30.3664    8.7039   18.7542 C   0  0  1  0  0  0  0  0  0  0  0  0
   29.8460    7.2613   18.8991 C   0  0  1  0  0  0  0  0  0  0  0  0
   31.0795    6.2631   18.8838 C   0  0  1  0  0  0  0  0  0  0  0  0
   31.8552    6.4189   17.5657 C   0  0  1  0  0  0  0  0  0  0  0  0
   32.3123    7.8930   17.4457 C   0  0  2  0  0  0  0  0  0  0  0  0
   32.9759    4.4361   16.4172 C   0  0  0  0  0  0  0  0  0  0  0  0
   27.2234   10.4814   20.0439 N   0  0  0  0  0  0  0  0  0  0  0  0
   32.9903    5.4458   17.5215 N   0  0  0  0  0  0  0  0  0  0  0  0
   26.8100    7.6952   19.3471 O   0  0  0  0  0  0  0  0  0  0  0  0
   29.0454    7.1791   20.1375 O   0  0  0  0  0  0  0  0  0  0  0  0
   31.1743    8.7980   17.5168 O   0  0  0  0  0  0  0  0  0  0  0  0
   31.9641    6.5941   19.9338 O   0  0  0  0  0  0  0  0  0  0  0  0
   32.9907    8.1419   16.2139 O   0  0  0  0  0  0  0  0  0  0  0  0
   33.8816    9.2805   16.2723 C   0  0  2  0  0  0  0  0  0  0  0  0
   34.5070    9.4940   17.6604 C   0  0  1  0  0  0  0  0  0  0  0  0
   33.4412    9.9553   18.6897 C   0  0  2  0  0  0  0  0  0  0  0  0
   32.7755   11.2239   18.2075 C   0  0  1  0  0  0  0  0  0  0  0  0
   32.1313   10.9688   16.8242 C   0  0  1  0  0  0  0  0  0  0  0  0
   31.4748   12.2164   16.2374 C   0  0  0  0  0  0  0  0  0  0  0  0
   31.7648   11.6347   19.2040 N   0  0  0  0  0  0  0  0  0  0  0  0
   33.1636   10.5142   15.8755 O   0  0  0  0  0  0  0  0  0  0  0  0
   35.1531    8.2758   18.0573 O   0  0  0  0  0  0  0  0  0  0  0  0
   34.0704   10.2170   19.9516 O   0  0  0  0  0  0  0  0  0  0  0  0
   32.3656   13.2967   16.3234 O   0  0  0  0  0  0  0  0  0  0  0  0
   26.7537    6.3653   18.6106 C   0  0  1  0  0  0  0  0  0  0  0  0
   26.4549    5.2746   19.6629 C   0  0  1  0  0  0  0  0  0  0  0  0
   26.3102    3.8829   19.0007 C   0  0  2  0  0  0  0  0  0  0  0  0
   25.1863    3.9133   17.9581 C   0  0  1  0  0  0  0  0  0  0  0  0
   25.4914    4.9789   16.8745 C   0  0  0  0  0  0  0  0  0  0  0  0
   25.6143    6.3493   17.5490 C   0  0  2  0  0  0  0  0  0  0  0  0
   25.0609    2.5832   17.3213 N   0  0  0  0  0  0  0  0  0  0  0  0
   25.8831    7.3253   16.4964 N   0  0  0  0  0  0  0  0  0  0  0  0
   27.5430    5.2237   20.6112 O   0  0  0  0  0  0  0  0  0  0  0  0
   26.0080    2.9095   20.0233 O   0  0  0  0  0  0  0  0  0  0  0  0
  1  2  1  0  0  0  0
  1 12  1  6  0  0  0
  1 13  1  0  0  0  0
  2  3  1  0  0  0  0
  2 10  1  6  0  0  0
  4  3  1  6  0  0  0
  4  5  1  0  0  0  0
  4 14  1  0  0  0  0
  5  6  1  0  0  0  0
  5 13  1  1  0  0  0
  6  7  1  0  0  0  0
  6 15  1  1  0  0  0
  7  8  1  0  0  0  0
  7 11  1  1  0  0  0
  8 14  1  0  0  0  0
  8 16  1  6  0  0  0
  9 11  1  0  0  0  0
 17 16  1  1  0  0  0
 17 18  1  0  0  0  0
 17 24  1  0  0  0  0
 18 19  1  0  0  0  0
 18 25  1  1  0  0  0
 19 20  1  0  0  0  0
 19 26  1  1  0  0  0
 20 21  1  0  0  0  0
 20 23  1  1  0  0  0
 21 22  1  6  0  0  0
 21 24  1  0  0  0  0
 22 27  1  0  0  0  0
 28 12  1  1  0  0  0
 28 29  1  0  0  0  0
 28 33  1  0  0  0  0
 29 30  1  0  0  0  0
 29 36  1  1  0  0  0
 30 31  1  0  0  0  0
 30 37  1  1  0  0  0
 31 32  1  0  0  0  0
 31 34  1  6  0  0  0
 32 33  1  0  0  0  0
 33 35  1  6  0  0  0
M  END
>  <CHROM.1>
136.53612247,118.86663286,-156.33724353,31.69615009,48.56088256,71.54058840
30.07584639,7.80592705,18.25123173,2.51274964,-0.20090962,-3.09911714

>  <Name>
1yrj_lig

>  <RI>
0

>  <Rbt.Current_Directory>
/home/itssahil/PROJECTS/Mol_Feturizer/New_Systems/rnas/1yrj

>  <Rbt.Executable>
rbdock ($Id: //depot/dev/client3/rdock/2013.1/src/exe/rbdock.cxx#4 $)

>  <Rbt.Library>
libRbt.so (2013.1, Build901 2013/11/27)

>  <Rbt.Parameter_File>
/export/apps/rDock/src/rDock_2013.1_src/data/scripts/dock_solv.prm

>  <Rbt.Receptor>
prm/blind_docking_40.prm

>  <SCORE>
5.53274

>  <SCORE.INTER>
-4.46718

>  <SCORE.INTER.CONST>
1

>  <SCORE.INTER.POLAR>
0

>  <SCORE.INTER.ROT>
6

>  <SCORE.INTER.SOLV>
10.5026

>  <SCORE.INTER.VDW>
-14.079

>  <SCORE.INTER.norm>
-0.120734

>  <SCORE.INTRA>
6.15777

>  <SCORE.INTRA.DIHEDRAL>
-1.73612

>  <SCORE.INTRA.DIHEDRAL.0>
15.6389

>  <SCORE.INTRA.POLAR>
0

>  <SCORE.INTRA.POLAR.0>
0

>  <SCORE.INTRA.REPUL>
0

>  <SCORE.INTRA.REPUL.0>
0

>  <SCORE.INTRA.SOLV>
2.71174

>  <SCORE.INTRA.SOLV.lig_0>
-90.9181

>  <SCORE.INTRA.VDW>
5.66996

>  <SCORE.INTRA.VDW.0>
-3.14158

>  <SCORE.INTRA.norm>
0.166426

>  <SCORE.RESTR>
3.84215

>  <SCORE.RESTR.CAVITY>
3.84215

>  <SCORE.RESTR.norm>
0.103842

>  <SCORE.SYSTEM>
0

>  <SCORE.SYSTEM.CONST>
0

>  <SCORE.SYSTEM.DIHEDRAL>
0

>  <SCORE.SYSTEM.SOLV>
0

>  <SCORE.SYSTEM.norm>
0

>  <SCORE.heavy>
37

>  <SCORE.norm>
0.149534

>  <RMSD>
16.528

$$$$
1yrj_lig
 OpenBabel11021811423D
libRbt.so/2013.1/901 2013/11/27
 37 40  0  0  0  0  0  0  0  0999 V2000
   28.1911    6.8728   19.4860 C   0  0  1  0  0  0  0  0  0  0  0  0
   28.5092    8.3679   19.6833 C   0  0  1  0  0  0  0  0  0  0  0  0
   29.3340    8.9354   18.5171 C   0  0  0  0  0  0  0  0  0  0  0  0
   30.6209    8.0931   18.3165 C   0  0  1  0  0  0  0  0  0  0  0  0
   30.2529    6.6172   18.0728 C   0  0  1  0  0  0  0  0  0  0  0  0
   31.5846    5.7815   17.8581 C   0  0  1  0  0  0  0  0  0  0  0  0
   32.3594    6.3422   16.6545 C   0  0  1  0  0  0  0  0  0  0  0  0
   32.6607    7.8359   16.9277 C   0  0  2  0  0  0  0  0  0  0  0  0
   34.4238    5.8924   15.2255 C   0  0  0  0  0  0  0  0  0  0  0  0
   27.2893    9.1680   19.8807 N   0  0  0  0  0  0  0  0  0  0  0  0
   33.5911    5.5282   16.4142 N   0  0  0  0  0  0  0  0  0  0  0  0
   27.1817    6.6237   18.4899 O   0  0  0  0  0  0  0  0  0  0  0  0
   29.4468    6.1451   19.2168 O   0  0  0  0  0  0  0  0  0  0  0  0
   31.4329    8.5771   17.1768 O   0  0  0  0  0  0  0  0  0  0  0  0
   32.4136    5.9197   18.9931 O   0  0  0  0  0  0  0  0  0  0  0  0
   33.3277    8.4547   15.8269 O   0  0  0  0  0  0  0  0  0  0  0  0
   34.1233    9.6004   16.2119 C   0  0  2  0  0  0  0  0  0  0  0  0
   34.5258    9.5915   17.6957 C   0  0  1  0  0  0  0  0  0  0  0  0
   33.2941    9.8213   18.6113 C   0  0  2  0  0  0  0  0  0  0  0  0
   32.6225   11.1269   18.2521 C   0  0  1  0  0  0  0  0  0  0  0  0
   32.2035   11.0933   16.7632 C   0  0  1  0  0  0  0  0  0  0  0  0
   31.5575   12.3971   16.3000 C   0  0  0  0  0  0  0  0  0  0  0  0
   31.4533   11.3150   19.1358 N   0  0  0  0  0  0  0  0  0  0  0  0
   33.3900   10.8546   15.9221 O   0  0  0  0  0  0  0  0  0  0  0  0
   35.1870    8.3495   17.9772 O   0  0  0  0  0  0  0  0  0  0  0  0
   33.7154    9.8821   19.9808 O   0  0  0  0  0  0  0  0  0  0  0  0
   30.9896   12.2114   15.0309 O   0  0  0  0  0  0  0  0  0  0  0  0
   26.3158    5.3734   18.4531 C   0  0  1  0  0  0  0  0  0  0  0  0
   27.0867    4.2637   19.2017 C   0  0  1  0  0  0  0  0  0  0  0  0
   26.2559    2.9599   19.2791 C   0  0  2  0  0  0  0  0  0  0  0  0
   24.9238    3.2292   19.9891 C   0  0  1  0  0  0  0  0  0  0  0  0
   24.1224    4.3155   19.2272 C   0  0  0  0  0  0  0  0  0  0  0  0
   24.9555    5.6006   19.1767 C   0  0  2  0  0  0  0  0  0  0  0  0
   24.1301    1.9814   20.0497 N   0  0  0  0  0  0  0  0  0  0  0  0
   24.1615    6.6015   18.4692 N   0  0  0  0  0  0  0  0  0  0  0  0
   28.3164    3.9863   18.4968 O   0  0  0  0  0  0  0  0  0  0  0  0
   27.0115    1.9686   20.0078 O   0  0  0  0  0  0  0  0  0  0  0  0
  1  2  1  0  0  0  0
  1 12  1  6  0  0  0
  1 13  1  0  0  0  0
  2  3  1  0  0  0  0
  2 10  1  6  0  0  0
  4  3  1  6  0  0  0
  4  5  1  0  0  0  0
  4 14  1  0  0  0  0
  5  6  1  0  0  0  0
  5 13  1  1  0  0  0
  6  7  1  0  0  0  0
  6 15  1  1  0  0  0
  7  8  1  0  0  0  0
  7 11  1  1  0  0  0
  8 14  1  0  0  0  0
  8 16  1  6  0  0  0
  9 11  1  0  0  0  0
 17 16  1  1  0  0  0
 17 18  1  0  0  0  0
 17 24  1  0  0  0  0
 18 19  1  0  0  0  0
 18 25  1  1  0  0  0
 19 20  1  0  0  0  0
 19 26  1  1  0  0  0
 20 21  1  0  0  0  0
 20 23  1  1  0  0  0
 21 22  1  6  0  0  0
 21 24  1  0  0  0  0
 22 27  1  0  0  0  0
 28 12  1  1  0  0  0
 28 29  1  0  0  0  0
 28 33  1  0  0  0  0
 29 30  1  0  0  0  0
 29 36  1  6  0  0  0
 30 31  1  0  0  0  0
 30 37  1  1  0  0  0
 31 32  1  0  0  0  0
 31 34  1  6  0  0  0
 32 33  1  0  0  0  0
 33 35  1  6  0  0  0
M  END
>  <CHROM.1>
-155.91866339,176.60739117,-154.69368600,22.29602063,-169.33711189,-23.86326025
30.13382629,7.35256846,18.11525649,2.50401351,-0.25809565,3.07568740

>  <Name>
1yrj_lig

>  <RI>
0

>  <Rbt.Current_Directory>
/home/itssahil/PROJECTS/Mol_Feturizer/New_Systems/rnas/1yrj

>  <Rbt.Executable>
rbdock ($Id: //depot/dev/client3/rdock/2013.1/src/exe/rbdock.cxx#4 $)

>  <Rbt.Library>
libRbt.so (2013.1, Build901 2013/11/27)

>  <Rbt.Parameter_File>
/export/apps/rDock/src/rDock_2013.1_src/data/scripts/dock_solv.prm

>  <Rbt.Receptor>
prm/blind_docking_40.prm

>  <SCORE>
5.53491

>  <SCORE.INTER>
-6.21394

>  <SCORE.INTER.CONST>
1

>  <SCORE.INTER.POLAR>
0

>  <SCORE.INTER.ROT>
6

>  <SCORE.INTER.SOLV>
10.9603

>  <SCORE.INTER.VDW>
-15.3961

>  <SCORE.INTER.norm>
-0.167944

>  <SCORE.INTRA>
7.57175

>  <SCORE.INTRA.DIHEDRAL>
-0.229477

>  <SCORE.INTRA.DIHEDRAL.0>
15.6389

>  <SCORE.INTRA.POLAR>
0

>  <SCORE.INTRA.POLAR.0>
0

>  <SCORE.INTRA.REPUL>
0

>  <SCORE.INTRA.REPUL.0>
0

>  <SCORE.INTRA.SOLV>
2.60576

>  <SCORE.INTRA.SOLV.lig_0>
-90.9181

>  <SCORE.INTRA.VDW>
6.38361

>  <SCORE.INTRA.VDW.0>
-3.14158

>  <SCORE.INTRA.norm>
0.204642

>  <SCORE.RESTR>
4.17711

>  <SCORE.RESTR.CAVITY>
4.17711

>  <SCORE.RESTR.norm>
0.112895

>  <SCORE.SYSTEM>
0

>  <SCORE.SYSTEM.CONST>
0

>  <SCORE.SYSTEM.DIHEDRAL>
0

>  <SCORE.SYSTEM.SOLV>
0

>  <SCORE.SYSTEM.norm>
0

>  <SCORE.heavy>
37

>  <SCORE.norm>
0.149592

>  <RMSD>
16.555

$$$$
