ligand
 OpenBabel11021811513D
libRbt.so/2013.1/901 2013/11/27
 22 23  0  0  0  0  0  0  0  0999 V2000
   29.3726   -3.6228  107.0186 N   0  0  0  0  0  0  0  0  0  0  0  0
   26.0510   -4.4454  106.9935 C   0  0  1  0  0  0  0  0  0  0  0  0
   27.1004   -3.6204  107.6096 O   0  0  0  0  0  0  0  0  0  0  0  0
   24.9607   -8.0856  107.4013 P   0  0  2  0  0  0  0  0  0  0  0  0
   28.0814   -3.3211  106.5732 C   0  0  2  0  0  0  0  0  0  0  0  0
   31.0730   -4.7126  107.8745 N   0  0  0  0  0  0  0  0  0  0  0  0
   28.0067   -3.4537  104.1870 O   0  0  0  0  0  0  0  0  0  0  0  0
   27.7326   -4.1572  105.4077 C   0  0  2  0  0  0  0  0  0  0  0  0
   33.9166   -3.8391  108.1230 N   0  0  0  0  0  0  0  0  0  0  0  0
   25.5525   -3.3372  104.9407 O   0  0  0  0  0  0  0  0  0  0  0  0
   26.2956   -4.4189  105.5447 C   0  0  2  0  0  0  0  0  0  0  0  0
   31.5126   -3.4953  107.5004 C   0  0  0  0  0  0  0  0  0  0  0  0
   30.4725   -1.4685  106.4394 N   0  0  0  0  0  0  0  0  0  0  0  0
   25.0800   -6.5818  106.9906 O   0  0  0  0  0  0  0  0  0  0  0  0
   26.1474   -5.8384  107.4942 C   0  0  0  0  0  0  0  0  0  0  0  0
   23.7166   -8.7478  106.6722 O   0  0  0  0  0  0  0  0  0  0  0  0
   29.7547   -4.7748  107.5711 C   0  0  0  0  0  0  0  0  0  0  0  0
   33.1738   -1.8225  107.3680 O   0  0  0  0  0  0  0  0  0  0  0  0
   32.9130   -2.9890  107.6515 C   0  0  0  0  0  0  0  0  0  0  0  0
   30.4465   -2.7926  106.9580 C   0  0  0  0  0  0  0  0  0  0  0  0
   24.8613   -8.2351  108.8706 O   0  5  0  0  0  0  0  0  0  0  0  0
   26.2134   -8.8302  107.1004 O   0  0  0  0  0  0  0  0  0  0  0  0
  1 17  1  0  0  0  0
  1 20  1  0  0  0  0
  2 15  1  1  0  0  0
  2  3  1  0  0  0  0
  2 11  1  0  0  0  0
  3  5  1  0  0  0  0
  4 16  1  6  0  0  0
  4 21  1  0  0  0  0
  4 22  2  0  0  0  0
  4 14  1  0  0  0  0
  5  1  1  1  0  0  0
  5  8  1  0  0  0  0
  6 17  2  0  0  0  0
  6 12  1  0  0  0  0
  8  7  1  6  0  0  0
  8 11  1  0  0  0  0
  9 19  1  0  0  0  0
 11 10  1  6  0  0  0
 12 20  2  0  0  0  0
 12 19  1  0  0  0  0
 13 20  1  0  0  0  0
 14 15  1  0  0  0  0
 18 19  2  0  0  0  0
M  CHG  1  21  -1
M  END
>  <CHROM.1>
50.58990000,175.02705143,-177.72291036,-179.20105755,5.13831207,27.98967865
-4.91884974,106.93451277,0.50192439,-0.34225724,-0.53425288

>  <Name>
ligand

>  <RI>
0

>  <Rbt.Current_Directory>
/home/itssahil/PROJECTS/Mol_Feturizer/New_Systems/rnas/4XW7

>  <Rbt.Executable>
rbdock ($Id: //depot/dev/client3/rdock/2013.1/src/exe/rbdock.cxx#4 $)

>  <Rbt.Library>
libRbt.so (2013.1, Build901 2013/11/27)

>  <Rbt.Parameter_File>
/export/apps/rDock/src/rDock_2013.1_src/data/scripts/dock_solv.prm

>  <Rbt.Receptor>
prm/pocket_docking_2.prm

>  <SCORE>
-1.36677

>  <SCORE.INTER>
-0.948286

>  <SCORE.INTER.CONST>
1

>  <SCORE.INTER.POLAR>
0

>  <SCORE.INTER.ROT>
5

>  <SCORE.INTER.SOLV>
10.372

>  <SCORE.INTER.VDW>
-11.0228

>  <SCORE.INTER.norm>
-0.0431039

>  <SCORE.INTRA>
-0.418479

>  <SCORE.INTRA.DIHEDRAL>
-1.01457

>  <SCORE.INTRA.DIHEDRAL.0>
2.61549

>  <SCORE.INTRA.POLAR>
0

>  <SCORE.INTRA.POLAR.0>
0

>  <SCORE.INTRA.REPUL>
0

>  <SCORE.INTRA.REPUL.0>
0

>  <SCORE.INTRA.SOLV>
0.283529

>  <SCORE.INTRA.SOLV.lig_0>
-73.766

>  <SCORE.INTRA.VDW>
-0.0529598

>  <SCORE.INTRA.VDW.0>
-1.95055

>  <SCORE.INTRA.norm>
-0.0190218

>  <SCORE.RESTR>
0

>  <SCORE.RESTR.CAVITY>
0

>  <SCORE.RESTR.norm>
0

>  <SCORE.SYSTEM>
0

>  <SCORE.SYSTEM.CONST>
0

>  <SCORE.SYSTEM.DIHEDRAL>
0

>  <SCORE.SYSTEM.SOLV>
0

>  <SCORE.SYSTEM.norm>
0

>  <SCORE.heavy>
22

>  <SCORE.norm>
-0.0621257

>  <RMSD>
0.637

$$$$
ligand
 OpenBabel11021811513D
libRbt.so/2013.1/901 2013/11/27
 22 23  0  0  0  0  0  0  0  0999 V2000
   29.4027   -3.5862  106.9865 N   0  0  0  0  0  0  0  0  0  0  0  0
   26.0852   -4.4223  106.9167 C   0  0  1  0  0  0  0  0  0  0  0  0
   27.1246   -3.6010  107.5542 O   0  0  0  0  0  0  0  0  0  0  0  0
   24.9982   -8.0683  107.2775 P   0  0  2  0  0  0  0  0  0  0  0  0
   28.1149   -3.2841  106.5319 C   0  0  2  0  0  0  0  0  0  0  0  0
   31.0966   -4.6763  107.8551 N   0  0  0  0  0  0  0  0  0  0  0  0
   28.0651   -3.3860  104.1435 O   0  0  0  0  0  0  0  0  0  0  0  0
   27.7816   -4.1064  105.3522 C   0  0  2  0  0  0  0  0  0  0  0  0
   33.9350   -3.7990  108.1395 N   0  0  0  0  0  0  0  0  0  0  0  0
   25.6028   -3.2896  104.8735 O   0  0  0  0  0  0  0  0  0  0  0  0
   26.3444   -4.3759  105.4710 C   0  0  2  0  0  0  0  0  0  0  0  0
   31.5395   -3.4595  107.4832 C   0  0  0  0  0  0  0  0  0  0  0  0
   30.5078   -1.4329  106.4134 N   0  0  0  0  0  0  0  0  0  0  0  0
   25.1251   -6.5632  106.8739 O   0  0  0  0  0  0  0  0  0  0  0  0
   26.1825   -5.8213  107.4003 C   0  0  0  0  0  0  0  0  0  0  0  0
   23.7518   -8.7212  106.5439 O   0  0  0  0  0  0  0  0  0  0  0  0
   29.7804   -4.7381  107.5425 C   0  0  0  0  0  0  0  0  0  0  0  0
   33.2057   -1.7922  107.3463 O   0  0  0  0  0  0  0  0  0  0  0  0
   32.9390   -2.9539  107.6436 C   0  0  0  0  0  0  0  0  0  0  0  0
   30.4775   -2.7567  106.9328 C   0  0  0  0  0  0  0  0  0  0  0  0
   24.8964   -8.2242  108.7460 O   0  5  0  0  0  0  0  0  0  0  0  0
   26.2476   -8.8175  106.9746 O   0  0  0  0  0  0  0  0  0  0  0  0
  1 17  1  0  0  0  0
  1 20  1  0  0  0  0
  2 15  1  1  0  0  0
  2  3  1  0  0  0  0
  2 11  1  0  0  0  0
  3  5  1  0  0  0  0
  4 16  1  6  0  0  0
  4 21  1  0  0  0  0
  4 22  2  0  0  0  0
  4 14  1  0  0  0  0
  5  1  1  1  0  0  0
  5  8  1  0  0  0  0
  6 17  2  0  0  0  0
  6 12  1  0  0  0  0
  8  7  1  6  0  0  0
  8 11  1  0  0  0  0
  9 19  1  0  0  0  0
 11 10  1  6  0  0  0
 12 20  2  0  0  0  0
 12 19  1  0  0  0  0
 13 20  1  0  0  0  0
 14 15  1  0  0  0  0
 18 19  2  0  0  0  0
M  CHG  1  21  -1
M  END
>  <CHROM.1>
49.73379714,175.15036917,-178.80128613,-178.44727512,4.28878035,28.02509123
-4.88748538,106.87039711,0.49951022,-0.35121951,-0.52633890

>  <Name>
ligand

>  <RI>
0

>  <Rbt.Current_Directory>
/home/itssahil/PROJECTS/Mol_Feturizer/New_Systems/rnas/4XW7

>  <Rbt.Executable>
rbdock ($Id: //depot/dev/client3/rdock/2013.1/src/exe/rbdock.cxx#4 $)

>  <Rbt.Library>
libRbt.so (2013.1, Build901 2013/11/27)

>  <Rbt.Parameter_File>
/export/apps/rDock/src/rDock_2013.1_src/data/scripts/dock_solv.prm

>  <Rbt.Receptor>
prm/pocket_docking_2.prm

>  <SCORE>
-1.41432

>  <SCORE.INTER>
-0.996407

>  <SCORE.INTER.CONST>
1

>  <SCORE.INTER.POLAR>
0

>  <SCORE.INTER.ROT>
5

>  <SCORE.INTER.SOLV>
10.6358

>  <SCORE.INTER.VDW>
-11.1429

>  <SCORE.INTER.norm>
-0.0452912

>  <SCORE.INTRA>
-0.417913

>  <SCORE.INTRA.DIHEDRAL>
-1.02513

>  <SCORE.INTRA.DIHEDRAL.0>
2.61549

>  <SCORE.INTRA.POLAR>
0

>  <SCORE.INTRA.POLAR.0>
0

>  <SCORE.INTRA.REPUL>
0

>  <SCORE.INTRA.REPUL.0>
0

>  <SCORE.INTRA.SOLV>
0.30176

>  <SCORE.INTRA.SOLV.lig_0>
-73.766

>  <SCORE.INTRA.VDW>
-0.0562258

>  <SCORE.INTRA.VDW.0>
-1.95055

>  <SCORE.INTRA.norm>
-0.0189961

>  <SCORE.RESTR>
0

>  <SCORE.RESTR.CAVITY>
0

>  <SCORE.RESTR.norm>
0

>  <SCORE.SYSTEM>
0

>  <SCORE.SYSTEM.CONST>
0

>  <SCORE.SYSTEM.DIHEDRAL>
0

>  <SCORE.SYSTEM.SOLV>
0

>  <SCORE.SYSTEM.norm>
0

>  <SCORE.heavy>
22

>  <SCORE.norm>
-0.0642873

>  <RMSD>
0.646

$$$$
ligand
 OpenBabel11021811513D
libRbt.so/2013.1/901 2013/11/27
 22 23  0  0  0  0  0  0  0  0999 V2000
   29.0956   -3.5378  106.6486 N   0  0  0  0  0  0  0  0  0  0  0  0
   25.7687   -4.1096  106.0877 C   0  0  1  0  0  0  0  0  0  0  0  0
   26.7647   -3.3486  106.8560 O   0  0  0  0  0  0  0  0  0  0  0  0
   24.8166   -6.8097  108.6178 P   0  0  2  0  0  0  0  0  0  0  0  0
   27.9224   -3.1527  105.9915 C   0  0  2  0  0  0  0  0  0  0  0  0
   30.5436   -4.7289  107.7873 N   0  0  0  0  0  0  0  0  0  0  0  0
   28.2287   -3.3461  103.6280 O   0  0  0  0  0  0  0  0  0  0  0  0
   27.7043   -3.9926  104.7973 C   0  0  2  0  0  0  0  0  0  0  0  0
   33.3511   -4.0465  108.5330 N   0  0  0  0  0  0  0  0  0  0  0  0
   25.7011   -3.0250  103.9642 O   0  0  0  0  0  0  0  0  0  0  0  0
   26.2482   -4.1420  104.6991 C   0  0  2  0  0  0  0  0  0  0  0  0
   31.1305   -3.5564  107.4777 C   0  0  0  0  0  0  0  0  0  0  0  0
   30.4373   -1.4846  106.2357 N   0  0  0  0  0  0  0  0  0  0  0  0
   25.1004   -5.4552  107.8904 O   0  0  0  0  0  0  0  0  0  0  0  0
   25.6723   -5.4914  106.6187 C   0  0  0  0  0  0  0  0  0  0  0  0
   23.9128   -7.7368  107.7004 O   0  0  0  0  0  0  0  0  0  0  0  0
   29.2924   -4.7013  107.2699 C   0  0  0  0  0  0  0  0  0  0  0  0
   32.9264   -2.0263  107.5703 O   0  0  0  0  0  0  0  0  0  0  0  0
   32.5214   -3.1509  107.8535 C   0  0  0  0  0  0  0  0  0  0  0  0
   30.2251   -2.7904  106.7578 C   0  0  0  0  0  0  0  0  0  0  0  0
   24.1872   -6.5885  109.9393 O   0  5  0  0  0  0  0  0  0  0  0  0
   26.0812   -7.4994  108.9911 O   0  0  0  0  0  0  0  0  0  0  0  0
  1 17  1  0  0  0  0
  1 20  1  0  0  0  0
  2 15  1  1  0  0  0
  2  3  1  0  0  0  0
  2 11  1  0  0  0  0
  3  5  1  0  0  0  0
  4 16  1  6  0  0  0
  4 21  1  0  0  0  0
  4 22  2  0  0  0  0
  4 14  1  0  0  0  0
  5  1  1  1  0  0  0
  5  8  1  0  0  0  0
  6 17  2  0  0  0  0
  6 12  1  0  0  0  0
  8  7  1  6  0  0  0
  8 11  1  0  0  0  0
  9 19  1  0  0  0  0
 11 10  1  6  0  0  0
 12 20  2  0  0  0  0
 12 19  1  0  0  0  0
 13 20  1  0  0  0  0
 14 15  1  0  0  0  0
 18 19  2  0  0  0  0
M  CHG  1  21  -1
M  END
>  <CHROM.1>
50.84855346,68.64004357,-55.28438072,176.32986079,3.08432704,27.78335992
-4.48619862,107.00897210,0.37280605,-0.33352120,-0.95931854

>  <Name>
ligand

>  <RI>
0

>  <Rbt.Current_Directory>
/home/itssahil/PROJECTS/Mol_Feturizer/New_Systems/rnas/4XW7

>  <Rbt.Executable>
rbdock ($Id: //depot/dev/client3/rdock/2013.1/src/exe/rbdock.cxx#4 $)

>  <Rbt.Library>
libRbt.so (2013.1, Build901 2013/11/27)

>  <Rbt.Parameter_File>
/export/apps/rDock/src/rDock_2013.1_src/data/scripts/dock_solv.prm

>  <Rbt.Receptor>
prm/pocket_docking_2.prm

>  <SCORE>
-0.713158

>  <SCORE.INTER>
0.286722

>  <SCORE.INTER.CONST>
1

>  <SCORE.INTER.POLAR>
0

>  <SCORE.INTER.ROT>
5

>  <SCORE.INTER.SOLV>
8.83356

>  <SCORE.INTER.VDW>
-9.6867

>  <SCORE.INTER.norm>
0.0130328

>  <SCORE.INTRA>
-0.99988

>  <SCORE.INTRA.DIHEDRAL>
-0.754826

>  <SCORE.INTRA.DIHEDRAL.0>
2.61549

>  <SCORE.INTRA.POLAR>
0

>  <SCORE.INTRA.POLAR.0>
0

>  <SCORE.INTRA.REPUL>
0

>  <SCORE.INTRA.REPUL.0>
0

>  <SCORE.INTRA.SOLV>
-0.54747

>  <SCORE.INTRA.SOLV.lig_0>
-73.766

>  <SCORE.INTRA.VDW>
-0.348732

>  <SCORE.INTRA.VDW.0>
-1.95055

>  <SCORE.INTRA.norm>
-0.0454491

>  <SCORE.RESTR>
0

>  <SCORE.RESTR.CAVITY>
0

>  <SCORE.RESTR.norm>
0

>  <SCORE.SYSTEM>
0

>  <SCORE.SYSTEM.CONST>
0

>  <SCORE.SYSTEM.DIHEDRAL>
0

>  <SCORE.SYSTEM.SOLV>
0

>  <SCORE.SYSTEM.norm>
0

>  <SCORE.heavy>
22

>  <SCORE.norm>
-0.0324163

>  <RMSD>
0.835

$$$$
ligand
 OpenBabel11021811513D
libRbt.so/2013.1/901 2013/11/27
 22 23  0  0  0  0  0  0  0  0999 V2000
   29.4189   -3.5649  106.9861 N   0  0  0  0  0  0  0  0  0  0  0  0
   26.0941   -4.3742  106.9580 C   0  0  1  0  0  0  0  0  0  0  0  0
   27.1419   -3.5350  107.5574 O   0  0  0  0  0  0  0  0  0  0  0  0
   24.9792   -7.9930  107.4745 P   0  0  2  0  0  0  0  0  0  0  0  0
   28.1328   -3.2716  106.5207 C   0  0  2  0  0  0  0  0  0  0  0  0
   31.1146   -4.6457  107.8626 N   0  0  0  0  0  0  0  0  0  0  0  0
   28.0774   -3.4769  104.1392 O   0  0  0  0  0  0  0  0  0  0  0  0
   27.7901   -4.1416  105.3785 C   0  0  2  0  0  0  0  0  0  0  0  0
   33.9138   -3.7057  108.2880 N   0  0  0  0  0  0  0  0  0  0  0  0
   25.6175   -3.3273  104.8681 O   0  0  0  0  0  0  0  0  0  0  0  0
   26.3508   -4.3930  105.5112 C   0  0  2  0  0  0  0  0  0  0  0  0
   31.5490   -3.4214  107.5060 C   0  0  0  0  0  0  0  0  0  0  0  0
   30.5081   -1.3958  106.4433 N   0  0  0  0  0  0  0  0  0  0  0  0
   25.1175   -6.5075  107.0069 O   0  0  0  0  0  0  0  0  0  0  0  0
   26.1802   -5.7516  107.5019 C   0  0  0  0  0  0  0  0  0  0  0  0
   26.2896   -8.8032  107.0948 O   0  0  0  0  0  0  0  0  0  0  0  0
   29.8023   -4.7178  107.5359 C   0  0  0  0  0  0  0  0  0  0  0  0
   33.2235   -1.7683  107.3091 O   0  0  0  0  0  0  0  0  0  0  0  0
   32.9417   -2.9032  107.6853 C   0  0  0  0  0  0  0  0  0  0  0  0
   30.4857   -2.7243  106.9507 C   0  0  0  0  0  0  0  0  0  0  0  0
   23.7723   -8.6276  106.8983 O   0  5  0  0  0  0  0  0  0  0  0  0
   24.7041   -8.0779  108.9343 O   0  0  0  0  0  0  0  0  0  0  0  0
  1 17  1  0  0  0  0
  1 20  1  0  0  0  0
  2 15  1  1  0  0  0
  2  3  1  0  0  0  0
  2 11  1  0  0  0  0
  3  5  1  0  0  0  0
  4 16  1  6  0  0  0
  4 21  1  0  0  0  0
  4 22  2  0  0  0  0
  4 14  1  0  0  0  0
  5  1  1  1  0  0  0
  5  8  1  0  0  0  0
  6 17  2  0  0  0  0
  6 12  1  0  0  0  0
  8  7  1  6  0  0  0
  8 11  1  0  0  0  0
  9 19  1  0  0  0  0
 11 10  1  6  0  0  0
 12 20  2  0  0  0  0
 12 19  1  0  0  0  0
 13 20  1  0  0  0  0
 14 15  1  0  0  0  0
 18 19  2  0  0  0  0
M  CHG  1  21  -1
M  END
>  <CHROM.1>
52.99287963,175.31891487,-58.68699950,-178.48832108,-1.09217837,28.02330898
-4.85099114,106.94430838,0.49256898,-0.35049079,-0.56821999

>  <Name>
ligand

>  <RI>
0

>  <Rbt.Current_Directory>
/home/itssahil/PROJECTS/Mol_Feturizer/New_Systems/rnas/4XW7

>  <Rbt.Executable>
rbdock ($Id: //depot/dev/client3/rdock/2013.1/src/exe/rbdock.cxx#4 $)

>  <Rbt.Library>
libRbt.so (2013.1, Build901 2013/11/27)

>  <Rbt.Parameter_File>
/export/apps/rDock/src/rDock_2013.1_src/data/scripts/dock_solv.prm

>  <Rbt.Receptor>
prm/pocket_docking_2.prm

>  <SCORE>
-1.74303

>  <SCORE.INTER>
-0.90103

>  <SCORE.INTER.CONST>
1

>  <SCORE.INTER.POLAR>
0

>  <SCORE.INTER.ROT>
5

>  <SCORE.INTER.SOLV>
10.3577

>  <SCORE.INTER.VDW>
-10.9866

>  <SCORE.INTER.norm>
-0.0409559

>  <SCORE.INTRA>
-0.841997

>  <SCORE.INTRA.DIHEDRAL>
-1.0503

>  <SCORE.INTRA.DIHEDRAL.0>
2.61549

>  <SCORE.INTRA.POLAR>
0

>  <SCORE.INTRA.POLAR.0>
0

>  <SCORE.INTRA.REPUL>
0

>  <SCORE.INTRA.REPUL.0>
0

>  <SCORE.INTRA.SOLV>
-0.418104

>  <SCORE.INTRA.SOLV.lig_0>
-73.766

>  <SCORE.INTRA.VDW>
-0.107795

>  <SCORE.INTRA.VDW.0>
-1.95055

>  <SCORE.INTRA.norm>
-0.0382726

>  <SCORE.RESTR>
0

>  <SCORE.RESTR.CAVITY>
0

>  <SCORE.RESTR.norm>
0

>  <SCORE.SYSTEM>
0

>  <SCORE.SYSTEM.CONST>
0

>  <SCORE.SYSTEM.DIHEDRAL>
0

>  <SCORE.SYSTEM.SOLV>
0

>  <SCORE.SYSTEM.norm>
0

>  <SCORE.heavy>
22

>  <SCORE.norm>
-0.0792285

>  <RMSD>
0.916

$$$$
ligand
 OpenBabel11021811513D
libRbt.so/2013.1/901 2013/11/27
 22 23  0  0  0  0  0  0  0  0999 V2000
   29.3989   -3.6144  106.9547 N   0  0  0  0  0  0  0  0  0  0  0  0
   26.0837   -4.4589  106.8770 C   0  0  1  0  0  0  0  0  0  0  0  0
   27.1136   -3.6094  107.4926 O   0  0  0  0  0  0  0  0  0  0  0  0
   25.0266   -8.1026  107.3377 P   0  0  2  0  0  0  0  0  0  0  0  0
   28.1167   -3.3342  106.4708 C   0  0  2  0  0  0  0  0  0  0  0  0
   31.0887   -4.6725  107.8693 N   0  0  0  0  0  0  0  0  0  0  0  0
   28.0984   -3.5373  104.0885 O   0  0  0  0  0  0  0  0  0  0  0  0
   27.8000   -4.2064  105.3228 C   0  0  2  0  0  0  0  0  0  0  0  0
   33.9244   -3.7733  108.1389 N   0  0  0  0  0  0  0  0  0  0  0  0
   25.6267   -3.4147  104.7815 O   0  0  0  0  0  0  0  0  0  0  0  0
   26.3618   -4.4733  105.4342 C   0  0  2  0  0  0  0  0  0  0  0  0
   31.5233   -3.4541  107.4928 C   0  0  0  0  0  0  0  0  0  0  0  0
   30.4875   -1.4532  106.3797 N   0  0  0  0  0  0  0  0  0  0  0  0
   25.1261   -6.6011  106.9137 O   0  0  0  0  0  0  0  0  0  0  0  0
   26.1765   -5.8360  107.4207 C   0  0  0  0  0  0  0  0  0  0  0  0
   26.3626   -8.8643  106.9467 O   0  0  0  0  0  0  0  0  0  0  0  0
   29.7800   -4.7549  107.5311 C   0  0  0  0  0  0  0  0  0  0  0  0
   33.1571   -1.7508  107.4255 O   0  0  0  0  0  0  0  0  0  0  0  0
   32.9127   -2.9284  107.6756 C   0  0  0  0  0  0  0  0  0  0  0  0
   30.4637   -2.7714  106.9132 C   0  0  0  0  0  0  0  0  0  0  0  0
   23.8429   -8.7544  106.7333 O   0  5  0  0  0  0  0  0  0  0  0  0
   24.7424   -8.2370  108.7921 O   0  0  0  0  0  0  0  0  0  0  0  0
  1 17  1  0  0  0  0
  1 20  1  0  0  0  0
  2 15  1  1  0  0  0
  2  3  1  0  0  0  0
  2 11  1  0  0  0  0
  3  5  1  0  0  0  0
  4 16  1  6  0  0  0
  4 21  1  0  0  0  0
  4 22  2  0  0  0  0
  4 14  1  0  0  0  0
  5  1  1  1  0  0  0
  5  8  1  0  0  0  0
  6 17  2  0  0  0  0
  6 12  1  0  0  0  0
  8  7  1  6  0  0  0
  8 11  1  0  0  0  0
  9 19  1  0  0  0  0
 11 10  1  6  0  0  0
 12 20  2  0  0  0  0
 12 19  1  0  0  0  0
 13 20  1  0  0  0  0
 14 15  1  0  0  0  0
 18 19  2  0  0  0  0
M  CHG  1  21  -1
M  END
>  <CHROM.1>
51.68379917,175.07846080,-57.57498959,179.30793442,7.43600697,28.02751737
-4.92158369,106.87425014,0.49909253,-0.36293927,-0.55191724

>  <Name>
ligand

>  <RI>
0

>  <Rbt.Current_Directory>
/home/itssahil/PROJECTS/Mol_Feturizer/New_Systems/rnas/4XW7

>  <Rbt.Executable>
rbdock ($Id: //depot/dev/client3/rdock/2013.1/src/exe/rbdock.cxx#4 $)

>  <Rbt.Library>
libRbt.so (2013.1, Build901 2013/11/27)

>  <Rbt.Parameter_File>
/export/apps/rDock/src/rDock_2013.1_src/data/scripts/dock_solv.prm

>  <Rbt.Receptor>
prm/pocket_docking_2.prm

>  <SCORE>
-1.80224

>  <SCORE.INTER>
-0.96181

>  <SCORE.INTER.CONST>
1

>  <SCORE.INTER.POLAR>
0

>  <SCORE.INTER.ROT>
5

>  <SCORE.INTER.SOLV>
10.6201

>  <SCORE.INTER.VDW>
-11.1146

>  <SCORE.INTER.norm>
-0.0437186

>  <SCORE.INTRA>
-0.840435

>  <SCORE.INTRA.DIHEDRAL>
-0.983341

>  <SCORE.INTRA.DIHEDRAL.0>
2.61549

>  <SCORE.INTRA.POLAR>
0

>  <SCORE.INTRA.POLAR.0>
0

>  <SCORE.INTRA.REPUL>
0

>  <SCORE.INTRA.REPUL.0>
0

>  <SCORE.INTRA.SOLV>
-0.400181

>  <SCORE.INTRA.SOLV.lig_0>
-73.766

>  <SCORE.INTRA.VDW>
-0.148674

>  <SCORE.INTRA.VDW.0>
-1.95055

>  <SCORE.INTRA.norm>
-0.0382016

>  <SCORE.RESTR>
0

>  <SCORE.RESTR.CAVITY>
0

>  <SCORE.RESTR.norm>
0

>  <SCORE.SYSTEM>
0

>  <SCORE.SYSTEM.CONST>
0

>  <SCORE.SYSTEM.DIHEDRAL>
0

>  <SCORE.SYSTEM.SOLV>
0

>  <SCORE.SYSTEM.norm>
0

>  <SCORE.heavy>
22

>  <SCORE.norm>
-0.0819202

>  <RMSD>
0.944

$$$$
ligand
 OpenBabel11021811513D
libRbt.so/2013.1/901 2013/11/27
 22 23  0  0  0  0  0  0  0  0999 V2000
   29.3814   -3.6065  106.9879 N   0  0  0  0  0  0  0  0  0  0  0  0
   26.0668   -4.4550  106.9290 C   0  0  1  0  0  0  0  0  0  0  0  0
   27.1013   -3.6132  107.5476 O   0  0  0  0  0  0  0  0  0  0  0  0
   25.0148   -8.1049  107.3510 P   0  0  2  0  0  0  0  0  0  0  0  0
   28.0942   -3.3210  106.5206 C   0  0  2  0  0  0  0  0  0  0  0  0
   31.0800   -4.6736  107.8754 N   0  0  0  0  0  0  0  0  0  0  0  0
   28.0536   -3.4881  104.1357 O   0  0  0  0  0  0  0  0  0  0  0  0
   27.7679   -4.1763  105.3625 C   0  0  2  0  0  0  0  0  0  0  0  0
   33.9154   -3.7750  108.1390 N   0  0  0  0  0  0  0  0  0  0  0  0
   25.5884   -3.3799  104.8539 O   0  0  0  0  0  0  0  0  0  0  0  0
   26.3312   -4.4471  105.4835 C   0  0  2  0  0  0  0  0  0  0  0  0
   31.5118   -3.4529  107.5035 C   0  0  0  0  0  0  0  0  0  0  0  0
   30.4662   -1.4421  106.4177 N   0  0  0  0  0  0  0  0  0  0  0  0
   25.1165   -6.6007  106.9371 O   0  0  0  0  0  0  0  0  0  0  0  0
   26.1668   -5.8400  107.4508 C   0  0  0  0  0  0  0  0  0  0  0  0
   26.3443   -8.8688  106.9426 O   0  0  0  0  0  0  0  0  0  0  0  0
   29.7675   -4.7519  107.5512 C   0  0  0  0  0  0  0  0  0  0  0  0
   33.1506   -1.7553  107.4150 O   0  0  0  0  0  0  0  0  0  0  0  0
   32.9038   -2.9302  107.6750 C   0  0  0  0  0  0  0  0  0  0  0  0
   30.4467   -2.7644  106.9412 C   0  0  0  0  0  0  0  0  0  0  0  0
   23.8233   -8.7476  106.7523 O   0  5  0  0  0  0  0  0  0  0  0  0
   24.7430   -8.2489  108.8068 O   0  0  0  0  0  0  0  0  0  0  0  0
  1 17  1  0  0  0  0
  1 20  1  0  0  0  0
  2 15  1  1  0  0  0
  2  3  1  0  0  0  0
  2 11  1  0  0  0  0
  3  5  1  0  0  0  0
  4 16  1  6  0  0  0
  4 21  1  0  0  0  0
  4 22  2  0  0  0  0
  4 14  1  0  0  0  0
  5  1  1  1  0  0  0
  5  8  1  0  0  0  0
  6 17  2  0  0  0  0
  6 12  1  0  0  0  0
  8  7  1  6  0  0  0
  8 11  1  0  0  0  0
  9 19  1  0  0  0  0
 11 10  1  6  0  0  0
 12 20  2  0  0  0  0
 12 19  1  0  0  0  0
 13 20  1  0  0  0  0
 14 15  1  0  0  0  0
 18 19  2  0  0  0  0
M  CHG  1  21  -1
M  END
>  <CHROM.1>
51.22509311,175.36641841,-58.19714604,179.97981880,6.50581183,28.01049164
-4.91479696,106.90029463,0.50513614,-0.35468737,-0.53736372

>  <Name>
ligand

>  <RI>
0

>  <Rbt.Current_Directory>
/home/itssahil/PROJECTS/Mol_Feturizer/New_Systems/rnas/4XW7

>  <Rbt.Executable>
rbdock ($Id: //depot/dev/client3/rdock/2013.1/src/exe/rbdock.cxx#4 $)

>  <Rbt.Library>
libRbt.so (2013.1, Build901 2013/11/27)

>  <Rbt.Parameter_File>
/export/apps/rDock/src/rDock_2013.1_src/data/scripts/dock_solv.prm

>  <Rbt.Receptor>
prm/pocket_docking_2.prm

>  <SCORE>
-1.81501

>  <SCORE.INTER>
-0.973358

>  <SCORE.INTER.CONST>
1

>  <SCORE.INTER.POLAR>
0

>  <SCORE.INTER.ROT>
5

>  <SCORE.INTER.SOLV>
10.3475

>  <SCORE.INTER.VDW>
-11.0314

>  <SCORE.INTER.norm>
-0.0442436

>  <SCORE.INTRA>
-0.8439

>  <SCORE.INTRA.DIHEDRAL>
-1.0139

>  <SCORE.INTRA.DIHEDRAL.0>
2.61549

>  <SCORE.INTRA.POLAR>
0

>  <SCORE.INTRA.POLAR.0>
0

>  <SCORE.INTRA.REPUL>
0

>  <SCORE.INTRA.REPUL.0>
0

>  <SCORE.INTRA.SOLV>
-0.380015

>  <SCORE.INTRA.SOLV.lig_0>
-73.766

>  <SCORE.INTRA.VDW>
-0.146944

>  <SCORE.INTRA.VDW.0>
-1.95055

>  <SCORE.INTRA.norm>
-0.0383591

>  <SCORE.RESTR>
0.00225064

>  <SCORE.RESTR.CAVITY>
0.00225064

>  <SCORE.RESTR.norm>
0.000102302

>  <SCORE.SYSTEM>
0

>  <SCORE.SYSTEM.CONST>
0

>  <SCORE.SYSTEM.DIHEDRAL>
0

>  <SCORE.SYSTEM.SOLV>
0

>  <SCORE.SYSTEM.norm>
0

>  <SCORE.heavy>
22

>  <SCORE.norm>
-0.0825004

>  <RMSD>
0.945

$$$$
ligand
 OpenBabel11021811513D
libRbt.so/2013.1/901 2013/11/27
 22 23  0  0  0  0  0  0  0  0999 V2000
   29.3963   -3.5902  106.9768 N   0  0  0  0  0  0  0  0  0  0  0  0
   26.0774   -4.4225  106.9278 C   0  0  1  0  0  0  0  0  0  0  0  0
   27.1178   -3.5854  107.5429 O   0  0  0  0  0  0  0  0  0  0  0  0
   25.0369   -8.0793  107.3177 P   0  0  2  0  0  0  0  0  0  0  0  0
   28.1093   -3.2988  106.5129 C   0  0  2  0  0  0  0  0  0  0  0  0
   31.0891   -4.6605  107.8716 N   0  0  0  0  0  0  0  0  0  0  0  0
   28.0610   -3.4674  104.1283 O   0  0  0  0  0  0  0  0  0  0  0  0
   27.7755   -4.1533  105.3564 C   0  0  2  0  0  0  0  0  0  0  0  0
   33.9331   -3.7847  108.1136 N   0  0  0  0  0  0  0  0  0  0  0  0
   25.5984   -3.3466  104.8534 O   0  0  0  0  0  0  0  0  0  0  0  0
   26.3378   -4.4170  105.4816 C   0  0  2  0  0  0  0  0  0  0  0  0
   31.5317   -3.4511  107.4760 C   0  0  0  0  0  0  0  0  0  0  0  0
   30.5007   -1.4480  106.3623 N   0  0  0  0  0  0  0  0  0  0  0  0
   25.1388   -6.5733  106.9103 O   0  0  0  0  0  0  0  0  0  0  0  0
   26.1722   -5.8077  107.4504 C   0  0  0  0  0  0  0  0  0  0  0  0
   26.3830   -8.8322  106.9452 O   0  0  0  0  0  0  0  0  0  0  0  0
   29.7737   -4.7300  107.5572 C   0  0  0  0  0  0  0  0  0  0  0  0
   33.1903   -1.7764  107.3368 O   0  0  0  0  0  0  0  0  0  0  0  0
   32.9303   -2.9408  107.6294 C   0  0  0  0  0  0  0  0  0  0  0  0
   30.4703   -2.7608  106.9087 C   0  0  0  0  0  0  0  0  0  0  0  0
   23.8676   -8.7294  106.6843 O   0  5  0  0  0  0  0  0  0  0  0  0
   24.7252   -8.2289  108.7650 O   0  0  0  0  0  0  0  0  0  0  0  0
  1 17  1  0  0  0  0
  1 20  1  0  0  0  0
  2 15  1  1  0  0  0
  2  3  1  0  0  0  0
  2 11  1  0  0  0  0
  3  5  1  0  0  0  0
  4 16  1  6  0  0  0
  4 21  1  0  0  0  0
  4 22  2  0  0  0  0
  4 14  1  0  0  0  0
  5  1  1  1  0  0  0
  5  8  1  0  0  0  0
  6 17  2  0  0  0  0
  6 12  1  0  0  0  0
  8  7  1  6  0  0  0
  8 11  1  0  0  0  0
  9 19  1  0  0  0  0
 11 10  1  6  0  0  0
 12 20  2  0  0  0  0
 12 19  1  0  0  0  0
 13 20  1  0  0  0  0
 14 15  1  0  0  0  0
 18 19  2  0  0  0  0
M  CHG  1  21  -1
M  END
>  <CHROM.1>
50.19794377,177.03988696,-57.90808253,179.86294125,5.88969066,28.02824562
-4.89763882,106.87784925,0.50466782,-0.34832948,-0.53157073

>  <Name>
ligand

>  <RI>
0

>  <Rbt.Current_Directory>
/home/itssahil/PROJECTS/Mol_Feturizer/New_Systems/rnas/4XW7

>  <Rbt.Executable>
rbdock ($Id: //depot/dev/client3/rdock/2013.1/src/exe/rbdock.cxx#4 $)

>  <Rbt.Library>
libRbt.so (2013.1, Build901 2013/11/27)

>  <Rbt.Parameter_File>
/export/apps/rDock/src/rDock_2013.1_src/data/scripts/dock_solv.prm

>  <Rbt.Receptor>
prm/pocket_docking_2.prm

>  <SCORE>
-1.82685

>  <SCORE.INTER>
-0.991264

>  <SCORE.INTER.CONST>
1

>  <SCORE.INTER.POLAR>
0

>  <SCORE.INTER.ROT>
5

>  <SCORE.INTER.SOLV>
10.7653

>  <SCORE.INTER.VDW>
-11.1826

>  <SCORE.INTER.norm>
-0.0450574

>  <SCORE.INTRA>
-0.835588

>  <SCORE.INTRA.DIHEDRAL>
-1.06437

>  <SCORE.INTRA.DIHEDRAL.0>
2.61549

>  <SCORE.INTRA.POLAR>
0

>  <SCORE.INTRA.POLAR.0>
0

>  <SCORE.INTRA.REPUL>
0

>  <SCORE.INTRA.REPUL.0>
0

>  <SCORE.INTRA.SOLV>
-0.34625

>  <SCORE.INTRA.SOLV.lig_0>
-73.766

>  <SCORE.INTRA.VDW>
-0.13028

>  <SCORE.INTRA.VDW.0>
-1.95055

>  <SCORE.INTRA.norm>
-0.0379813

>  <SCORE.RESTR>
0

>  <SCORE.RESTR.CAVITY>
0

>  <SCORE.RESTR.norm>
0

>  <SCORE.SYSTEM>
0

>  <SCORE.SYSTEM.CONST>
0

>  <SCORE.SYSTEM.DIHEDRAL>
0

>  <SCORE.SYSTEM.SOLV>
0

>  <SCORE.SYSTEM.norm>
0

>  <SCORE.heavy>
22

>  <SCORE.norm>
-0.0830387

>  <RMSD>
0.948

$$$$
ligand
 OpenBabel11021811513D
libRbt.so/2013.1/901 2013/11/27
 22 23  0  0  0  0  0  0  0  0999 V2000
   29.3994   -3.6046  106.9650 N   0  0  0  0  0  0  0  0  0  0  0  0
   26.0853   -4.4528  106.8821 C   0  0  1  0  0  0  0  0  0  0  0  0
   27.1151   -3.6101  107.5072 O   0  0  0  0  0  0  0  0  0  0  0  0
   25.0167   -8.0959  107.3187 P   0  0  2  0  0  0  0  0  0  0  0  0
   28.1160   -3.3198  106.4873 C   0  0  2  0  0  0  0  0  0  0  0  0
   31.0895   -4.6682  107.8730 N   0  0  0  0  0  0  0  0  0  0  0  0
   28.0935   -3.4908  104.1025 O   0  0  0  0  0  0  0  0  0  0  0  0
   27.7984   -4.1769  105.3283 C   0  0  2  0  0  0  0  0  0  0  0  0
   33.9236   -3.7725  108.1551 N   0  0  0  0  0  0  0  0  0  0  0  0
   25.6229   -3.3812  104.8017 O   0  0  0  0  0  0  0  0  0  0  0  0
   26.3607   -4.4474  105.4387 C   0  0  2  0  0  0  0  0  0  0  0  0
   31.5273   -3.4525  107.4915 C   0  0  0  0  0  0  0  0  0  0  0  0
   30.4944   -1.4494  106.3797 N   0  0  0  0  0  0  0  0  0  0  0  0
   25.1442   -6.6025  106.8739 O   0  0  0  0  0  0  0  0  0  0  0  0
   26.1811   -5.8370  107.4071 C   0  0  0  0  0  0  0  0  0  0  0  0
   24.8437   -8.1778  108.8939 O   0  0  0  0  0  0  0  0  0  0  0  0
   29.7786   -4.7456  107.5418 C   0  0  0  0  0  0  0  0  0  0  0  0
   33.1742   -1.7637  107.3860 O   0  0  0  0  0  0  0  0  0  0  0  0
   32.9200   -2.9325  107.6659 C   0  0  0  0  0  0  0  0  0  0  0  0
   30.4677   -2.7663  106.9161 C   0  0  0  0  0  0  0  0  0  0  0  0
   26.1794   -8.8925  106.8663 O   0  5  0  0  0  0  0  0  0  0  0  0
   23.8899   -8.7741  106.6226 O   0  0  0  0  0  0  0  0  0  0  0  0
  1 17  1  0  0  0  0
  1 20  1  0  0  0  0
  2 15  1  1  0  0  0
  2  3  1  0  0  0  0
  2 11  1  0  0  0  0
  3  5  1  0  0  0  0
  4 16  1  1  0  0  0
  4 21  1  0  0  0  0
  4 22  2  0  0  0  0
  4 14  1  0  0  0  0
  5  1  1  1  0  0  0
  5  8  1  0  0  0  0
  6 17  2  0  0  0  0
  6 12  1  0  0  0  0
  8  7  1  6  0  0  0
  8 11  1  0  0  0  0
  9 19  1  0  0  0  0
 11 10  1  6  0  0  0
 12 20  2  0  0  0  0
 12 19  1  0  0  0  0
 13 20  1  0  0  0  0
 14 15  1  0  0  0  0
 18 19  2  0  0  0  0
M  CHG  1  21  -1
M  END
>  <CHROM.1>
50.71196155,176.07971582,58.48222330,-178.30111476,5.95053431,28.02719511
-4.91306398,106.86868614,0.49764423,-0.36616549,-0.55193173

>  <Name>
ligand

>  <RI>
0

>  <Rbt.Current_Directory>
/home/itssahil/PROJECTS/Mol_Feturizer/New_Systems/rnas/4XW7

>  <Rbt.Executable>
rbdock ($Id: //depot/dev/client3/rdock/2013.1/src/exe/rbdock.cxx#4 $)

>  <Rbt.Library>
libRbt.so (2013.1, Build901 2013/11/27)

>  <Rbt.Parameter_File>
/export/apps/rDock/src/rDock_2013.1_src/data/scripts/dock_solv.prm

>  <Rbt.Receptor>
prm/pocket_docking_2.prm

>  <SCORE>
-1.80531

>  <SCORE.INTER>
-0.974959

>  <SCORE.INTER.CONST>
1

>  <SCORE.INTER.POLAR>
0

>  <SCORE.INTER.ROT>
5

>  <SCORE.INTER.SOLV>
10.6169

>  <SCORE.INTER.VDW>
-11.1223

>  <SCORE.INTER.norm>
-0.0443163

>  <SCORE.INTRA>
-0.830352

>  <SCORE.INTRA.DIHEDRAL>
-1.02935

>  <SCORE.INTRA.DIHEDRAL.0>
2.61549

>  <SCORE.INTRA.POLAR>
0

>  <SCORE.INTRA.POLAR.0>
0

>  <SCORE.INTRA.REPUL>
0

>  <SCORE.INTRA.REPUL.0>
0

>  <SCORE.INTRA.SOLV>
-0.360634

>  <SCORE.INTRA.SOLV.lig_0>
-73.766

>  <SCORE.INTRA.VDW>
-0.135361

>  <SCORE.INTRA.VDW.0>
-1.95055

>  <SCORE.INTRA.norm>
-0.0377433

>  <SCORE.RESTR>
0

>  <SCORE.RESTR.CAVITY>
0

>  <SCORE.RESTR.norm>
0

>  <SCORE.SYSTEM>
0

>  <SCORE.SYSTEM.CONST>
0

>  <SCORE.SYSTEM.DIHEDRAL>
0

>  <SCORE.SYSTEM.SOLV>
0

>  <SCORE.SYSTEM.norm>
0

>  <SCORE.heavy>
22

>  <SCORE.norm>
-0.0820596

>  <RMSD>
0.962

$$$$
ligand
 OpenBabel11021811513D
libRbt.so/2013.1/901 2013/11/27
 22 23  0  0  0  0  0  0  0  0999 V2000
   29.3738   -3.6200  106.9257 N   0  0  0  0  0  0  0  0  0  0  0  0
   26.0713   -4.5062  106.7932 C   0  0  1  0  0  0  0  0  0  0  0  0
   27.0831   -3.6571  107.4387 O   0  0  0  0  0  0  0  0  0  0  0  0
   25.0252   -8.1588  107.2058 P   0  0  2  0  0  0  0  0  0  0  0  0
   28.0932   -3.3461  106.4342 C   0  0  2  0  0  0  0  0  0  0  0  0
   31.0610   -4.6667  107.8582 N   0  0  0  0  0  0  0  0  0  0  0  0
   28.1030   -3.4965  104.0479 O   0  0  0  0  0  0  0  0  0  0  0  0
   27.8005   -4.1967  105.2638 C   0  0  2  0  0  0  0  0  0  0  0  0
   33.8885   -3.7547  108.1555 N   0  0  0  0  0  0  0  0  0  0  0  0
   25.6226   -3.4219  104.7164 O   0  0  0  0  0  0  0  0  0  0  0  0
   26.3648   -4.4849  105.3536 C   0  0  2  0  0  0  0  0  0  0  0  0
   31.4962   -3.4524  107.4696 C   0  0  0  0  0  0  0  0  0  0  0  0
   30.4631   -1.4646  106.3306 N   0  0  0  0  0  0  0  0  0  0  0  0
   25.1408   -6.6606  106.7741 O   0  0  0  0  0  0  0  0  0  0  0  0
   26.1768   -5.8937  107.3074 C   0  0  0  0  0  0  0  0  0  0  0  0
   26.4118   -8.8956  106.9766 O   0  0  0  0  0  0  0  0  0  0  0  0
   29.7536   -4.7539  107.5162 C   0  0  0  0  0  0  0  0  0  0  0  0
   33.1350   -1.7558  107.3648 O   0  0  0  0  0  0  0  0  0  0  0  0
   32.8846   -2.9237  107.6516 C   0  0  0  0  0  0  0  0  0  0  0  0
   30.4383   -2.7768  106.8787 C   0  0  0  0  0  0  0  0  0  0  0  0
   23.9299   -8.8434  106.4828 O   0  5  0  0  0  0  0  0  0  0  0  0
   24.5836   -8.2821  108.6213 O   0  0  0  0  0  0  0  0  0  0  0  0
  1 17  1  0  0  0  0
  1 20  1  0  0  0  0
  2 15  1  1  0  0  0
  2  3  1  0  0  0  0
  2 11  1  0  0  0  0
  3  5  1  0  0  0  0
  4 16  1  6  0  0  0
  4 21  1  0  0  0  0
  4 22  2  0  0  0  0
  4 14  1  0  0  0  0
  5  1  1  1  0  0  0
  5  8  1  0  0  0  0
  6 17  2  0  0  0  0
  6 12  1  0  0  0  0
  8  7  1  6  0  0  0
  8 11  1  0  0  0  0
  9 19  1  0  0  0  0
 11 10  1  6  0  0  0
 12 20  2  0  0  0  0
 12 19  1  0  0  0  0
 13 20  1  0  0  0  0
 14 15  1  0  0  0  0
 18 19  2  0  0  0  0
M  CHG  1  21  -1
M  END
>  <CHROM.1>
49.60291820,174.97014879,-52.73402321,-178.45076575,6.03812580,28.01448835
-4.94323129,106.80358392,0.50191110,-0.37355329,-0.54191364

>  <Name>
ligand

>  <RI>
0

>  <Rbt.Current_Directory>
/home/itssahil/PROJECTS/Mol_Feturizer/New_Systems/rnas/4XW7

>  <Rbt.Executable>
rbdock ($Id: //depot/dev/client3/rdock/2013.1/src/exe/rbdock.cxx#4 $)

>  <Rbt.Library>
libRbt.so (2013.1, Build901 2013/11/27)

>  <Rbt.Parameter_File>
/export/apps/rDock/src/rDock_2013.1_src/data/scripts/dock_solv.prm

>  <Rbt.Receptor>
prm/pocket_docking_2.prm

>  <SCORE>
-1.7361

>  <SCORE.INTER>
-0.944847

>  <SCORE.INTER.CONST>
1

>  <SCORE.INTER.POLAR>
0

>  <SCORE.INTER.ROT>
5

>  <SCORE.INTER.SOLV>
10.6497

>  <SCORE.INTER.VDW>
-11.1131

>  <SCORE.INTER.norm>
-0.0429476

>  <SCORE.INTRA>
-0.791257

>  <SCORE.INTRA.DIHEDRAL>
-0.917377

>  <SCORE.INTRA.DIHEDRAL.0>
2.61549

>  <SCORE.INTRA.POLAR>
0

>  <SCORE.INTRA.POLAR.0>
0

>  <SCORE.INTRA.REPUL>
0

>  <SCORE.INTRA.REPUL.0>
0

>  <SCORE.INTRA.SOLV>
-0.37687

>  <SCORE.INTRA.SOLV.lig_0>
-73.766

>  <SCORE.INTRA.VDW>
-0.144134

>  <SCORE.INTRA.VDW.0>
-1.95055

>  <SCORE.INTRA.norm>
-0.0359662

>  <SCORE.RESTR>
0

>  <SCORE.RESTR.CAVITY>
0

>  <SCORE.RESTR.norm>
0

>  <SCORE.SYSTEM>
0

>  <SCORE.SYSTEM.CONST>
0

>  <SCORE.SYSTEM.DIHEDRAL>
0

>  <SCORE.SYSTEM.SOLV>
0

>  <SCORE.SYSTEM.norm>
0

>  <SCORE.heavy>
22

>  <SCORE.norm>
-0.0789139

>  <RMSD>
0.964

$$$$
ligand
 OpenBabel11021811513D
libRbt.so/2013.1/901 2013/11/27
 22 23  0  0  0  0  0  0  0  0999 V2000
   29.3956   -3.5915  106.9869 N   0  0  0  0  0  0  0  0  0  0  0  0
   26.0790   -4.4326  106.9307 C   0  0  1  0  0  0  0  0  0  0  0  0
   27.1183   -3.6030  107.5577 O   0  0  0  0  0  0  0  0  0  0  0  0
   25.0031   -8.0785  107.3237 P   0  0  2  0  0  0  0  0  0  0  0  0
   28.1067   -3.2961  106.5307 C   0  0  2  0  0  0  0  0  0  0  0  0
   31.0921   -4.6700  107.8646 N   0  0  0  0  0  0  0  0  0  0  0  0
   28.0538   -3.4242  104.1436 O   0  0  0  0  0  0  0  0  0  0  0  0
   27.7729   -4.1317  105.3605 C   0  0  2  0  0  0  0  0  0  0  0  0
   33.9288   -3.7845  108.1397 N   0  0  0  0  0  0  0  0  0  0  0  0
   25.5924   -3.3229  104.8759 O   0  0  0  0  0  0  0  0  0  0  0  0
   26.3362   -4.4017  105.4843 C   0  0  2  0  0  0  0  0  0  0  0  0
   31.5327   -3.4565  107.4795 C   0  0  0  0  0  0  0  0  0  0  0  0
   30.4968   -1.4428  106.3898 N   0  0  0  0  0  0  0  0  0  0  0  0
   25.1301   -6.5787  106.9009 O   0  0  0  0  0  0  0  0  0  0  0  0
   26.1788   -5.8261  107.4295 C   0  0  0  0  0  0  0  0  0  0  0  0
   24.8599   -8.1852  108.9004 O   0  0  0  0  0  0  0  0  0  0  0  0
   29.7756   -4.7369  107.5544 C   0  0  0  0  0  0  0  0  0  0  0  0
   33.1971   -1.7893  107.3200 O   0  0  0  0  0  0  0  0  0  0  0  0
   32.9318   -2.9472  107.6328 C   0  0  0  0  0  0  0  0  0  0  0  0
   30.4690   -2.7610  106.9230 C   0  0  0  0  0  0  0  0  0  0  0  0
   26.1527   -8.8735  106.8361 O   0  5  0  0  0  0  0  0  0  0  0  0
   23.8595   -8.7394  106.6385 O   0  0  0  0  0  0  0  0  0  0  0  0
  1 17  1  0  0  0  0
  1 20  1  0  0  0  0
  2 15  1  1  0  0  0
  2  3  1  0  0  0  0
  2 11  1  0  0  0  0
  3  5  1  0  0  0  0
  4 16  1  1  0  0  0
  4 21  1  0  0  0  0
  4 22  2  0  0  0  0
  4 14  1  0  0  0  0
  5  1  1  1  0  0  0
  5  8  1  0  0  0  0
  6 17  2  0  0  0  0
  6 12  1  0  0  0  0
  8  7  1  6  0  0  0
  8 11  1  0  0  0  0
  9 19  1  0  0  0  0
 11 10  1  6  0  0  0
 12 20  2  0  0  0  0
 12 19  1  0  0  0  0
 13 20  1  0  0  0  0
 14 15  1  0  0  0  0
 18 19  2  0  0  0  0
M  CHG  1  21  -1
M  END
>  <CHROM.1>
49.76262084,175.79820841,58.29290581,-178.17722257,4.11239562,28.01924909
-4.89695308,106.88201977,0.50206904,-0.35271486,-0.53689732

>  <Name>
ligand

>  <RI>
0

>  <Rbt.Current_Directory>
/home/itssahil/PROJECTS/Mol_Feturizer/New_Systems/rnas/4XW7

>  <Rbt.Executable>
rbdock ($Id: //depot/dev/client3/rdock/2013.1/src/exe/rbdock.cxx#4 $)

>  <Rbt.Library>
libRbt.so (2013.1, Build901 2013/11/27)

>  <Rbt.Parameter_File>
/export/apps/rDock/src/rDock_2013.1_src/data/scripts/dock_solv.prm

>  <Rbt.Receptor>
prm/pocket_docking_2.prm

>  <SCORE>
-1.84038

>  <SCORE.INTER>
-1.00918

>  <SCORE.INTER.CONST>
1

>  <SCORE.INTER.POLAR>
0

>  <SCORE.INTER.ROT>
5

>  <SCORE.INTER.SOLV>
10.6331

>  <SCORE.INTER.VDW>
-11.1505

>  <SCORE.INTER.norm>
-0.0458719

>  <SCORE.INTRA>
-0.831389

>  <SCORE.INTRA.DIHEDRAL>
-1.03948

>  <SCORE.INTRA.DIHEDRAL.0>
2.61549

>  <SCORE.INTRA.POLAR>
0

>  <SCORE.INTRA.POLAR.0>
0

>  <SCORE.INTRA.REPUL>
0

>  <SCORE.INTRA.REPUL.0>
0

>  <SCORE.INTRA.SOLV>
-0.336088

>  <SCORE.INTRA.SOLV.lig_0>
-73.766

>  <SCORE.INTRA.VDW>
-0.143605

>  <SCORE.INTRA.VDW.0>
-1.95055

>  <SCORE.INTRA.norm>
-0.0377904

>  <SCORE.RESTR>
0.000189422

>  <SCORE.RESTR.CAVITY>
0.000189422

>  <SCORE.RESTR.norm>
8.61011e-06

>  <SCORE.SYSTEM>
0

>  <SCORE.SYSTEM.CONST>
0

>  <SCORE.SYSTEM.DIHEDRAL>
0

>  <SCORE.SYSTEM.SOLV>
0

>  <SCORE.SYSTEM.norm>
0

>  <SCORE.heavy>
22

>  <SCORE.norm>
-0.0836537

>  <RMSD>
0.965

$$$$
ligand
 OpenBabel11021811513D
libRbt.so/2013.1/901 2013/11/27
 22 23  0  0  0  0  0  0  0  0999 V2000
   29.3972   -3.5948  106.9835 N   0  0  0  0  0  0  0  0  0  0  0  0
   26.0792   -4.4299  106.9291 C   0  0  1  0  0  0  0  0  0  0  0  0
   27.1195   -3.5993  107.5529 O   0  0  0  0  0  0  0  0  0  0  0  0
   25.0164   -8.0810  107.3106 P   0  0  2  0  0  0  0  0  0  0  0  0
   28.1092   -3.2990  106.5250 C   0  0  2  0  0  0  0  0  0  0  0  0
   31.0921   -4.6736  107.8639 N   0  0  0  0  0  0  0  0  0  0  0  0
   28.0577   -3.4382  104.1386 O   0  0  0  0  0  0  0  0  0  0  0  0
   27.7746   -4.1395  105.3586 C   0  0  2  0  0  0  0  0  0  0  0  0
   33.9352   -3.7979  108.1146 N   0  0  0  0  0  0  0  0  0  0  0  0
   25.5960   -3.3290  104.8687 O   0  0  0  0  0  0  0  0  0  0  0  0
   26.3374   -4.4063  105.4827 C   0  0  2  0  0  0  0  0  0  0  0  0
   31.5335   -3.4600  107.4801 C   0  0  0  0  0  0  0  0  0  0  0  0
   30.4997   -1.4458  106.3893 N   0  0  0  0  0  0  0  0  0  0  0  0
   25.1352   -6.5782  106.8964 O   0  0  0  0  0  0  0  0  0  0  0  0
   26.1761   -5.8213  107.4344 C   0  0  0  0  0  0  0  0  0  0  0  0
   24.8654   -8.1971  108.8860 O   0  0  0  0  0  0  0  0  0  0  0  0
   29.7762   -4.7404  107.5513 C   0  0  0  0  0  0  0  0  0  0  0  0
   33.1922   -1.7846  107.3509 O   0  0  0  0  0  0  0  0  0  0  0  0
   32.9323   -2.9508  107.6362 C   0  0  0  0  0  0  0  0  0  0  0  0
   30.4709   -2.7642  106.9220 C   0  0  0  0  0  0  0  0  0  0  0  0
   26.1741   -8.8654  106.8252 O   0  5  0  0  0  0  0  0  0  0  0  0
   23.8812   -8.7463  106.6158 O   0  0  0  0  0  0  0  0  0  0  0  0
  1 17  1  0  0  0  0
  1 20  1  0  0  0  0
  2 15  1  1  0  0  0
  2  3  1  0  0  0  0
  2 11  1  0  0  0  0
  3  5  1  0  0  0  0
  4 16  1  1  0  0  0
  4 21  1  0  0  0  0
  4 22  2  0  0  0  0
  4 14  1  0  0  0  0
  5  1  1  1  0  0  0
  5  8  1  0  0  0  0
  6 17  2  0  0  0  0
  6 12  1  0  0  0  0
  8  7  1  6  0  0  0
  8 11  1  0  0  0  0
  9 19  1  0  0  0  0
 11 10  1  6  0  0  0
 12 20  2  0  0  0  0
 12 19  1  0  0  0  0
 13 20  1  0  0  0  0
 14 15  1  0  0  0  0
 18 19  2  0  0  0  0
M  CHG  1  21  -1
M  END
>  <CHROM.1>
50.08007474,176.47833526,58.31084911,-178.88076713,5.64129009,28.02400622
-4.90005871,106.87744085,0.50222639,-0.35308143,-0.53379629

>  <Name>
ligand

>  <RI>
0

>  <Rbt.Current_Directory>
/home/itssahil/PROJECTS/Mol_Feturizer/New_Systems/rnas/4XW7

>  <Rbt.Executable>
rbdock ($Id: //depot/dev/client3/rdock/2013.1/src/exe/rbdock.cxx#4 $)

>  <Rbt.Library>
libRbt.so (2013.1, Build901 2013/11/27)

>  <Rbt.Parameter_File>
/export/apps/rDock/src/rDock_2013.1_src/data/scripts/dock_solv.prm

>  <Rbt.Receptor>
prm/pocket_docking_2.prm

>  <SCORE>
-1.83047

>  <SCORE.INTER>
-1.00376

>  <SCORE.INTER.CONST>
1

>  <SCORE.INTER.POLAR>
0

>  <SCORE.INTER.ROT>
5

>  <SCORE.INTER.SOLV>
10.6864

>  <SCORE.INTER.VDW>
-11.1646

>  <SCORE.INTER.norm>
-0.0456255

>  <SCORE.INTRA>
-0.826713

>  <SCORE.INTRA.DIHEDRAL>
-1.05081

>  <SCORE.INTRA.DIHEDRAL.0>
2.61549

>  <SCORE.INTRA.POLAR>
0

>  <SCORE.INTRA.POLAR.0>
0

>  <SCORE.INTRA.REPUL>
0

>  <SCORE.INTRA.REPUL.0>
0

>  <SCORE.INTRA.SOLV>
-0.333047

>  <SCORE.INTRA.SOLV.lig_0>
-73.766

>  <SCORE.INTRA.VDW>
-0.134786

>  <SCORE.INTRA.VDW.0>
-1.95055

>  <SCORE.INTRA.norm>
-0.0375779

>  <SCORE.RESTR>
0

>  <SCORE.RESTR.CAVITY>
0

>  <SCORE.RESTR.norm>
0

>  <SCORE.SYSTEM>
0

>  <SCORE.SYSTEM.CONST>
0

>  <SCORE.SYSTEM.DIHEDRAL>
0

>  <SCORE.SYSTEM.SOLV>
0

>  <SCORE.SYSTEM.norm>
0

>  <SCORE.heavy>
22

>  <SCORE.norm>
-0.0832034

>  <RMSD>
0.968

$$$$
ligand
 OpenBabel11021811513D
libRbt.so/2013.1/901 2013/11/27
 22 23  0  0  0  0  0  0  0  0999 V2000
   29.3965   -3.6022  106.9686 N   0  0  0  0  0  0  0  0  0  0  0  0
   26.0863   -4.4641  106.8706 C   0  0  1  0  0  0  0  0  0  0  0  0
   27.1123   -3.6281  107.5108 O   0  0  0  0  0  0  0  0  0  0  0  0
   25.0691   -8.1337  107.1955 P   0  0  2  0  0  0  0  0  0  0  0  0
   28.1117   -3.3147  106.4963 C   0  0  2  0  0  0  0  0  0  0  0  0
   31.0888   -4.6704  107.8669 N   0  0  0  0  0  0  0  0  0  0  0  0
   28.0896   -3.4426  104.1088 O   0  0  0  0  0  0  0  0  0  0  0  0
   27.7979   -4.1522  105.3219 C   0  0  2  0  0  0  0  0  0  0  0  0
   33.9265   -3.7803  108.1343 N   0  0  0  0  0  0  0  0  0  0  0  0
   25.6186   -3.3570  104.8100 O   0  0  0  0  0  0  0  0  0  0  0  0
   26.3615   -4.4312  105.4275 C   0  0  2  0  0  0  0  0  0  0  0  0
   31.5263   -3.4536  107.4886 C   0  0  0  0  0  0  0  0  0  0  0  0
   30.4910   -1.4455  106.3879 N   0  0  0  0  0  0  0  0  0  0  0  0
   25.1526   -6.6166  106.8268 O   0  0  0  0  0  0  0  0  0  0  0  0
   26.1886   -5.8571  107.3704 C   0  0  0  0  0  0  0  0  0  0  0  0
   26.4173   -8.8640  106.7870 O   0  0  0  0  0  0  0  0  0  0  0  0
   29.7769   -4.7457  107.5398 C   0  0  0  0  0  0  0  0  0  0  0  0
   33.1721   -1.7633  107.3918 O   0  0  0  0  0  0  0  0  0  0  0  0
   32.9198   -2.9352  107.6604 C   0  0  0  0  0  0  0  0  0  0  0  0
   30.4652   -2.7645  106.9194 C   0  0  0  0  0  0  0  0  0  0  0  0
   23.8980   -8.7777  106.5592 O   0  5  0  0  0  0  0  0  0  0  0  0
   24.7767   -8.3243  108.6419 O   0  0  0  0  0  0  0  0  0  0  0  0
  1 17  1  0  0  0  0
  1 20  1  0  0  0  0
  2 15  1  1  0  0  0
  2  3  1  0  0  0  0
  2 11  1  0  0  0  0
  3  5  1  0  0  0  0
  4 16  1  6  0  0  0
  4 21  1  0  0  0  0
  4 22  2  0  0  0  0
  4 14  1  0  0  0  0
  5  1  1  1  0  0  0
  5  8  1  0  0  0  0
  6 17  2  0  0  0  0
  6 12  1  0  0  0  0
  8  7  1  6  0  0  0
  8 11  1  0  0  0  0
  9 19  1  0  0  0  0
 11 10  1  6  0  0  0
 12 20  2  0  0  0  0
 12 19  1  0  0  0  0
 13 20  1  0  0  0  0
 14 15  1  0  0  0  0
 18 19  2  0  0  0  0
M  CHG  1  21  -1
M  END
>  <CHROM.1>
49.81828125,175.89125238,-57.66189955,179.02871786,6.39317175,28.04044486
-4.92026727,106.83350907,0.50730480,-0.36071278,-0.51556523

>  <Name>
ligand

>  <RI>
0

>  <Rbt.Current_Directory>
/home/itssahil/PROJECTS/Mol_Feturizer/New_Systems/rnas/4XW7

>  <Rbt.Executable>
rbdock ($Id: //depot/dev/client3/rdock/2013.1/src/exe/rbdock.cxx#4 $)

>  <Rbt.Library>
libRbt.so (2013.1, Build901 2013/11/27)

>  <Rbt.Parameter_File>
/export/apps/rDock/src/rDock_2013.1_src/data/scripts/dock_solv.prm

>  <Rbt.Receptor>
prm/pocket_docking_2.prm

>  <SCORE>
-1.82893

>  <SCORE.INTER>
-0.994912

>  <SCORE.INTER.CONST>
1

>  <SCORE.INTER.POLAR>
0

>  <SCORE.INTER.ROT>
5

>  <SCORE.INTER.SOLV>
10.5978

>  <SCORE.INTER.VDW>
-11.1292

>  <SCORE.INTER.norm>
-0.0452233

>  <SCORE.INTRA>
-0.834015

>  <SCORE.INTRA.DIHEDRAL>
-1.02346

>  <SCORE.INTRA.DIHEDRAL.0>
2.61549

>  <SCORE.INTRA.POLAR>
0

>  <SCORE.INTRA.POLAR.0>
0

>  <SCORE.INTRA.REPUL>
0

>  <SCORE.INTRA.REPUL.0>
0

>  <SCORE.INTRA.SOLV>
-0.342533

>  <SCORE.INTRA.SOLV.lig_0>
-73.766

>  <SCORE.INTRA.VDW>
-0.151018

>  <SCORE.INTRA.VDW.0>
-1.95055

>  <SCORE.INTRA.norm>
-0.0379098

>  <SCORE.RESTR>
0

>  <SCORE.RESTR.CAVITY>
0

>  <SCORE.RESTR.norm>
0

>  <SCORE.SYSTEM>
0

>  <SCORE.SYSTEM.CONST>
0

>  <SCORE.SYSTEM.DIHEDRAL>
0

>  <SCORE.SYSTEM.SOLV>
0

>  <SCORE.SYSTEM.norm>
0

>  <SCORE.heavy>
22

>  <SCORE.norm>
-0.083133

>  <RMSD>
0.975

$$$$
ligand
 OpenBabel11021811513D
libRbt.so/2013.1/901 2013/11/27
 22 23  0  0  0  0  0  0  0  0999 V2000
   29.3984   -3.5994  106.9843 N   0  0  0  0  0  0  0  0  0  0  0  0
   26.0830   -4.4436  106.9120 C   0  0  1  0  0  0  0  0  0  0  0  0
   27.1192   -3.6164  107.5472 O   0  0  0  0  0  0  0  0  0  0  0  0
   25.0083   -8.0921  107.2832 P   0  0  2  0  0  0  0  0  0  0  0  0
   28.1108   -3.3027  106.5253 C   0  0  2  0  0  0  0  0  0  0  0  0
   31.0920   -4.6793  107.8659 N   0  0  0  0  0  0  0  0  0  0  0  0
   28.0664   -3.4178  104.1374 O   0  0  0  0  0  0  0  0  0  0  0  0
   27.7820   -4.1323  105.3494 C   0  0  2  0  0  0  0  0  0  0  0  0
   33.9324   -3.8013  108.1324 N   0  0  0  0  0  0  0  0  0  0  0  0
   25.6024   -3.3231  104.8616 O   0  0  0  0  0  0  0  0  0  0  0  0
   26.3452   -4.4044  105.4666 C   0  0  2  0  0  0  0  0  0  0  0  0
   31.5346   -3.4663  107.4817 C   0  0  0  0  0  0  0  0  0  0  0  0
   30.5030   -1.4517  106.3895 N   0  0  0  0  0  0  0  0  0  0  0  0
   25.1350   -6.5899  106.8690 O   0  0  0  0  0  0  0  0  0  0  0  0
   26.1826   -5.8397  107.4034 C   0  0  0  0  0  0  0  0  0  0  0  0
   24.8320   -8.2060  108.8560 O   0  0  0  0  0  0  0  0  0  0  0  0
   29.7762   -4.7451  107.5528 C   0  0  0  0  0  0  0  0  0  0  0  0
   33.1979   -1.7964  107.3389 O   0  0  0  0  0  0  0  0  0  0  0  0
   32.9338   -2.9582  107.6381 C   0  0  0  0  0  0  0  0  0  0  0  0
   30.4728   -2.7698  106.9228 C   0  0  0  0  0  0  0  0  0  0  0  0
   26.1728   -8.8782  106.8173 O   0  5  0  0  0  0  0  0  0  0  0  0
   23.8836   -8.7572  106.5711 O   0  0  0  0  0  0  0  0  0  0  0  0
  1 17  1  0  0  0  0
  1 20  1  0  0  0  0
  2 15  1  1  0  0  0
  2  3  1  0  0  0  0
  2 11  1  0  0  0  0
  3  5  1  0  0  0  0
  4 16  1  1  0  0  0
  4 21  1  0  0  0  0
  4 22  2  0  0  0  0
  4 14  1  0  0  0  0
  5  1  1  1  0  0  0
  5  8  1  0  0  0  0
  6 17  2  0  0  0  0
  6 12  1  0  0  0  0
  8  7  1  6  0  0  0
  8 11  1  0  0  0  0
  9 19  1  0  0  0  0
 11 10  1  6  0  0  0
 12 20  2  0  0  0  0
 12 19  1  0  0  0  0
 13 20  1  0  0  0  0
 14 15  1  0  0  0  0
 18 19  2  0  0  0  0
M  CHG  1  21  -1
M  END
>  <CHROM.1>
49.41552841,175.69100223,59.47626426,-178.19349004,4.87116649,28.02397735
-4.90619530,106.86635137,0.50136114,-0.35497967,-0.53184841

>  <Name>
ligand

>  <RI>
0

>  <Rbt.Current_Directory>
/home/itssahil/PROJECTS/Mol_Feturizer/New_Systems/rnas/4XW7

>  <Rbt.Executable>
rbdock ($Id: //depot/dev/client3/rdock/2013.1/src/exe/rbdock.cxx#4 $)

>  <Rbt.Library>
libRbt.so (2013.1, Build901 2013/11/27)

>  <Rbt.Parameter_File>
/export/apps/rDock/src/rDock_2013.1_src/data/scripts/dock_solv.prm

>  <Rbt.Receptor>
prm/pocket_docking_2.prm

>  <SCORE>
-1.83562

>  <SCORE.INTER>
-1.01036

>  <SCORE.INTER.CONST>
1

>  <SCORE.INTER.POLAR>
0

>  <SCORE.INTER.ROT>
5

>  <SCORE.INTER.SOLV>
10.6791

>  <SCORE.INTER.VDW>
-11.1666

>  <SCORE.INTER.norm>
-0.0459256

>  <SCORE.INTRA>
-0.825342

>  <SCORE.INTRA.DIHEDRAL>
-1.03349

>  <SCORE.INTRA.DIHEDRAL.0>
2.61549

>  <SCORE.INTRA.POLAR>
0

>  <SCORE.INTRA.POLAR.0>
0

>  <SCORE.INTRA.REPUL>
0

>  <SCORE.INTRA.REPUL.0>
0

>  <SCORE.INTRA.SOLV>
-0.319012

>  <SCORE.INTRA.SOLV.lig_0>
-73.766

>  <SCORE.INTRA.VDW>
-0.14909

>  <SCORE.INTRA.VDW.0>
-1.95055

>  <SCORE.INTRA.norm>
-0.0375155

>  <SCORE.RESTR>
8.25463e-05

>  <SCORE.RESTR.CAVITY>
8.25463e-05

>  <SCORE.RESTR.norm>
3.75211e-06

>  <SCORE.SYSTEM>
0

>  <SCORE.SYSTEM.CONST>
0

>  <SCORE.SYSTEM.DIHEDRAL>
0

>  <SCORE.SYSTEM.SOLV>
0

>  <SCORE.SYSTEM.norm>
0

>  <SCORE.heavy>
22

>  <SCORE.norm>
-0.0834374

>  <RMSD>
0.976

$$$$
ligand
 OpenBabel11021811513D
libRbt.so/2013.1/901 2013/11/27
 22 23  0  0  0  0  0  0  0  0999 V2000
   29.3622   -3.6157  106.9636 N   0  0  0  0  0  0  0  0  0  0  0  0
   26.0594   -4.5051  106.8617 C   0  0  1  0  0  0  0  0  0  0  0  0
   27.0787   -3.6649  107.5070 O   0  0  0  0  0  0  0  0  0  0  0  0
   25.0559   -8.1786  107.1852 P   0  0  2  0  0  0  0  0  0  0  0  0
   28.0746   -3.3359  106.4941 C   0  0  2  0  0  0  0  0  0  0  0  0
   31.0638   -4.6752  107.8545 N   0  0  0  0  0  0  0  0  0  0  0  0
   28.0520   -3.4474  104.1058 O   0  0  0  0  0  0  0  0  0  0  0  0
   27.7671   -4.1678  105.3141 C   0  0  2  0  0  0  0  0  0  0  0  0
   33.8899   -3.7582  108.1441 N   0  0  0  0  0  0  0  0  0  0  0  0
   25.5808   -3.3878  104.8091 O   0  0  0  0  0  0  0  0  0  0  0  0
   26.3332   -4.4598  105.4187 C   0  0  2  0  0  0  0  0  0  0  0  0
   31.4912   -3.4530  107.4822 C   0  0  0  0  0  0  0  0  0  0  0  0
   30.4390   -1.4475  106.3930 N   0  0  0  0  0  0  0  0  0  0  0  0
   25.1288   -6.6592  106.8242 O   0  0  0  0  0  0  0  0  0  0  0  0
   26.1739   -5.9006  107.3517 C   0  0  0  0  0  0  0  0  0  0  0  0
   26.3961   -8.9040  106.7430 O   0  0  0  0  0  0  0  0  0  0  0  0
   29.7521   -4.7591  107.5284 C   0  0  0  0  0  0  0  0  0  0  0  0
   33.1278   -1.7544  107.3745 O   0  0  0  0  0  0  0  0  0  0  0  0
   32.8808   -2.9245  107.6552 C   0  0  0  0  0  0  0  0  0  0  0  0
   30.4241   -2.7694  106.9176 C   0  0  0  0  0  0  0  0  0  0  0  0
   23.8723   -8.8208  106.5705 O   0  5  0  0  0  0  0  0  0  0  0  0
   24.7953   -8.3786  108.6365 O   0  0  0  0  0  0  0  0  0  0  0  0
  1 17  1  0  0  0  0
  1 20  1  0  0  0  0
  2 15  1  1  0  0  0
  2  3  1  0  0  0  0
  2 11  1  0  0  0  0
  3  5  1  0  0  0  0
  4 16  1  6  0  0  0
  4 21  1  0  0  0  0
  4 22  2  0  0  0  0
  4 14  1  0  0  0  0
  5  1  1  1  0  0  0
  5  8  1  0  0  0  0
  6 17  2  0  0  0  0
  6 12  1  0  0  0  0
  8  7  1  6  0  0  0
  8 11  1  0  0  0  0
  9 19  1  0  0  0  0
 11 10  1  6  0  0  0
 12 20  2  0  0  0  0
 12 19  1  0  0  0  0
 13 20  1  0  0  0  0
 14 15  1  0  0  0  0
 18 19  2  0  0  0  0
M  CHG  1  21  -1
M  END
>  <CHROM.1>
49.70878770,174.74536152,-57.76976057,178.98434266,5.36250140,28.01231172
-4.94256526,106.82644958,0.51369332,-0.36403498,-0.51253340

>  <Name>
ligand

>  <RI>
0

>  <Rbt.Current_Directory>
/home/itssahil/PROJECTS/Mol_Feturizer/New_Systems/rnas/4XW7

>  <Rbt.Executable>
rbdock ($Id: //depot/dev/client3/rdock/2013.1/src/exe/rbdock.cxx#4 $)

>  <Rbt.Library>
libRbt.so (2013.1, Build901 2013/11/27)

>  <Rbt.Parameter_File>
/export/apps/rDock/src/rDock_2013.1_src/data/scripts/dock_solv.prm

>  <Rbt.Receptor>
prm/pocket_docking_2.prm

>  <SCORE>
-1.82829

>  <SCORE.INTER>
-0.99161

>  <SCORE.INTER.CONST>
1

>  <SCORE.INTER.POLAR>
0

>  <SCORE.INTER.ROT>
5

>  <SCORE.INTER.SOLV>
10.3202

>  <SCORE.INTER.VDW>
-11.0345

>  <SCORE.INTER.norm>
-0.0450732

>  <SCORE.INTRA>
-0.836678

>  <SCORE.INTRA.DIHEDRAL>
-1.00056

>  <SCORE.INTRA.DIHEDRAL.0>
2.61549

>  <SCORE.INTRA.POLAR>
0

>  <SCORE.INTRA.POLAR.0>
0

>  <SCORE.INTRA.REPUL>
0

>  <SCORE.INTRA.REPUL.0>
0

>  <SCORE.INTRA.SOLV>
-0.341224

>  <SCORE.INTRA.SOLV.lig_0>
-73.766

>  <SCORE.INTRA.VDW>
-0.165785

>  <SCORE.INTRA.VDW.0>
-1.95055

>  <SCORE.INTRA.norm>
-0.0380308

>  <SCORE.RESTR>
0

>  <SCORE.RESTR.CAVITY>
0

>  <SCORE.RESTR.norm>
0

>  <SCORE.SYSTEM>
0

>  <SCORE.SYSTEM.CONST>
0

>  <SCORE.SYSTEM.DIHEDRAL>
0

>  <SCORE.SYSTEM.SOLV>
0

>  <SCORE.SYSTEM.norm>
0

>  <SCORE.heavy>
22

>  <SCORE.norm>
-0.083104

>  <RMSD>
0.977

$$$$
ligand
 OpenBabel11021811513D
libRbt.so/2013.1/901 2013/11/27
 22 23  0  0  0  0  0  0  0  0999 V2000
   29.4003   -3.5836  106.9791 N   0  0  0  0  0  0  0  0  0  0  0  0
   26.0907   -4.4479  106.8830 C   0  0  1  0  0  0  0  0  0  0  0  0
   27.1206   -3.6291  107.5388 O   0  0  0  0  0  0  0  0  0  0  0  0
   25.0561   -8.1177  107.1449 P   0  0  2  0  0  0  0  0  0  0  0  0
   28.1112   -3.2847  106.5257 C   0  0  2  0  0  0  0  0  0  0  0  0
   31.0984   -4.6701  107.8438 N   0  0  0  0  0  0  0  0  0  0  0  0
   28.0700   -3.3435  104.1358 O   0  0  0  0  0  0  0  0  0  0  0  0
   27.7891   -4.0884  105.3301 C   0  0  2  0  0  0  0  0  0  0  0  0
   33.9320   -3.7811  108.1372 N   0  0  0  0  0  0  0  0  0  0  0  0
   25.6046   -3.2825  104.8591 O   0  0  0  0  0  0  0  0  0  0  0  0
   26.3540   -4.3728  105.4392 C   0  0  2  0  0  0  0  0  0  0  0  0
   31.5366   -3.4505  107.4758 C   0  0  0  0  0  0  0  0  0  0  0  0
   30.4972   -1.4243  106.4128 N   0  0  0  0  0  0  0  0  0  0  0  0
   25.1453   -6.5944  106.8047 O   0  0  0  0  0  0  0  0  0  0  0  0
   26.1991   -5.8546  107.3413 C   0  0  0  0  0  0  0  0  0  0  0  0
   26.3846   -8.8530  106.6839 O   0  0  0  0  0  0  0  0  0  0  0  0
   29.7823   -4.7358  107.5313 C   0  0  0  0  0  0  0  0  0  0  0  0
   33.1980   -1.7783  107.3381 O   0  0  0  0  0  0  0  0  0  0  0  0
   32.9343   -2.9401  107.6376 C   0  0  0  0  0  0  0  0  0  0  0  0
   30.4719   -2.7498  106.9279 C   0  0  0  0  0  0  0  0  0  0  0  0
   23.8609   -8.7369  106.5289 O   0  5  0  0  0  0  0  0  0  0  0  0
   24.8022   -8.3350  108.5948 O   0  0  0  0  0  0  0  0  0  0  0  0
  1 17  1  0  0  0  0
  1 20  1  0  0  0  0
  2 15  1  1  0  0  0
  2  3  1  0  0  0  0
  2 11  1  0  0  0  0
  3  5  1  0  0  0  0
  4 16  1  6  0  0  0
  4 21  1  0  0  0  0
  4 22  2  0  0  0  0
  4 14  1  0  0  0  0
  5  1  1  1  0  0  0
  5  8  1  0  0  0  0
  6 17  2  0  0  0  0
  6 12  1  0  0  0  0
  8  7  1  6  0  0  0
  8 11  1  0  0  0  0
  9 19  1  0  0  0  0
 11 10  1  1  0  0  0
 12 20  2  0  0  0  0
 12 19  1  0  0  0  0
 13 20  1  0  0  0  0
 14 15  1  0  0  0  0
 18 19  2  0  0  0  0
M  CHG  1  21  -1
M  END
>  <CHROM.1>
48.80342255,174.77919405,-58.08285991,179.61346217,3.94781234,28.03911430
-4.89874981,106.82190060,0.51005514,-0.35230437,-0.49661759

>  <Name>
ligand

>  <RI>
0

>  <Rbt.Current_Directory>
/home/itssahil/PROJECTS/Mol_Feturizer/New_Systems/rnas/4XW7

>  <Rbt.Executable>
rbdock ($Id: //depot/dev/client3/rdock/2013.1/src/exe/rbdock.cxx#4 $)

>  <Rbt.Library>
libRbt.so (2013.1, Build901 2013/11/27)

>  <Rbt.Parameter_File>
/export/apps/rDock/src/rDock_2013.1_src/data/scripts/dock_solv.prm

>  <Rbt.Receptor>
prm/pocket_docking_2.prm

>  <SCORE>
-1.85632

>  <SCORE.INTER>
-1.0198

>  <SCORE.INTER.CONST>
1

>  <SCORE.INTER.POLAR>
0

>  <SCORE.INTER.ROT>
5

>  <SCORE.INTER.SOLV>
10.5839

>  <SCORE.INTER.VDW>
-11.1412

>  <SCORE.INTER.norm>
-0.0463543

>  <SCORE.INTRA>
-0.836526

>  <SCORE.INTRA.DIHEDRAL>
-1.02333

>  <SCORE.INTRA.DIHEDRAL.0>
2.61549

>  <SCORE.INTRA.POLAR>
0

>  <SCORE.INTRA.POLAR.0>
0

>  <SCORE.INTRA.REPUL>
0

>  <SCORE.INTRA.REPUL.0>
0

>  <SCORE.INTRA.SOLV>
-0.31145

>  <SCORE.INTRA.SOLV.lig_0>
-73.766

>  <SCORE.INTRA.VDW>
-0.169135

>  <SCORE.INTRA.VDW.0>
-1.95055

>  <SCORE.INTRA.norm>
-0.0380239

>  <SCORE.RESTR>
0

>  <SCORE.RESTR.CAVITY>
0

>  <SCORE.RESTR.norm>
0

>  <SCORE.SYSTEM>
0

>  <SCORE.SYSTEM.CONST>
0

>  <SCORE.SYSTEM.DIHEDRAL>
0

>  <SCORE.SYSTEM.SOLV>
0

>  <SCORE.SYSTEM.norm>
0

>  <SCORE.heavy>
22

>  <SCORE.norm>
-0.0843782

>  <RMSD>
0.986

$$$$
ligand
 OpenBabel11021811513D
libRbt.so/2013.1/901 2013/11/27
 22 23  0  0  0  0  0  0  0  0999 V2000
   29.3892   -3.5972  106.9668 N   0  0  0  0  0  0  0  0  0  0  0  0
   26.0860   -4.4843  106.8579 C   0  0  1  0  0  0  0  0  0  0  0  0
   27.1078   -3.6585  107.5177 O   0  0  0  0  0  0  0  0  0  0  0  0
   25.0555   -8.1534  107.1440 P   0  0  2  0  0  0  0  0  0  0  0  0
   28.0998   -3.3072  106.5085 C   0  0  2  0  0  0  0  0  0  0  0  0
   31.0896   -4.6697  107.8444 N   0  0  0  0  0  0  0  0  0  0  0  0
   28.0681   -3.3657  104.1184 O   0  0  0  0  0  0  0  0  0  0  0  0
   27.7878   -4.1127  105.3116 C   0  0  2  0  0  0  0  0  0  0  0  0
   33.9182   -3.7661  108.1402 N   0  0  0  0  0  0  0  0  0  0  0  0
   25.5996   -3.3217  104.8324 O   0  0  0  0  0  0  0  0  0  0  0  0
   26.3543   -4.4070  105.4152 C   0  0  2  0  0  0  0  0  0  0  0  0
   31.5243   -3.4521  107.4655 C   0  0  0  0  0  0  0  0  0  0  0  0
   30.4796   -1.4397  106.3817 N   0  0  0  0  0  0  0  0  0  0  0  0
   25.1426   -6.6321  106.7944 O   0  0  0  0  0  0  0  0  0  0  0  0
   26.2023   -5.8903  107.3164 C   0  0  0  0  0  0  0  0  0  0  0  0
   26.3867   -8.8890  106.6916 O   0  0  0  0  0  0  0  0  0  0  0  0
   29.7743   -4.7428  107.5305 C   0  0  0  0  0  0  0  0  0  0  0  0
   33.1814   -1.7775  107.3089 O   0  0  0  0  0  0  0  0  0  0  0  0
   32.9200   -2.9355  107.6246 C   0  0  0  0  0  0  0  0  0  0  0  0
   30.4580   -2.7603  106.9093 C   0  0  0  0  0  0  0  0  0  0  0  0
   23.8633   -8.7789  106.5287 O   0  5  0  0  0  0  0  0  0  0  0  0
   24.7979   -8.3619  108.5947 O   0  0  0  0  0  0  0  0  0  0  0  0
  1 17  1  0  0  0  0
  1 20  1  0  0  0  0
  2 15  1  1  0  0  0
  2  3  1  0  0  0  0
  2 11  1  0  0  0  0
  3  5  1  0  0  0  0
  4 16  1  6  0  0  0
  4 21  1  0  0  0  0
  4 22  2  0  0  0  0
  4 14  1  0  0  0  0
  5  1  1  1  0  0  0
  5  8  1  0  0  0  0
  6 17  2  0  0  0  0
  6 12  1  0  0  0  0
  8  7  1  6  0  0  0
  8 11  1  0  0  0  0
  9 19  1  0  0  0  0
 11 10  1  1  0  0  0
 12 20  2  0  0  0  0
 12 19  1  0  0  0  0
 13 20  1  0  0  0  0
 14 15  1  0  0  0  0
 18 19  2  0  0  0  0
M  CHG  1  21  -1
M  END
>  <CHROM.1>
48.20036046,173.76309705,-57.33786922,179.95768999,3.62001441,28.03266309
-4.92069189,106.80943067,0.51268036,-0.35704957,-0.50276917

>  <Name>
ligand

>  <RI>
0

>  <Rbt.Current_Directory>
/home/itssahil/PROJECTS/Mol_Feturizer/New_Systems/rnas/4XW7

>  <Rbt.Executable>
rbdock ($Id: //depot/dev/client3/rdock/2013.1/src/exe/rbdock.cxx#4 $)

>  <Rbt.Library>
libRbt.so (2013.1, Build901 2013/11/27)

>  <Rbt.Parameter_File>
/export/apps/rDock/src/rDock_2013.1_src/data/scripts/dock_solv.prm

>  <Rbt.Receptor>
prm/pocket_docking_2.prm

>  <SCORE>
-1.85353

>  <SCORE.INTER>
-1.02794

>  <SCORE.INTER.CONST>
1

>  <SCORE.INTER.POLAR>
0

>  <SCORE.INTER.ROT>
5

>  <SCORE.INTER.SOLV>
10.5872

>  <SCORE.INTER.VDW>
-11.1477

>  <SCORE.INTER.norm>
-0.0467245

>  <SCORE.INTRA>
-0.825595

>  <SCORE.INTRA.DIHEDRAL>
-0.981551

>  <SCORE.INTRA.DIHEDRAL.0>
2.61549

>  <SCORE.INTRA.POLAR>
0

>  <SCORE.INTRA.POLAR.0>
0

>  <SCORE.INTRA.REPUL>
0

>  <SCORE.INTRA.REPUL.0>
0

>  <SCORE.INTRA.SOLV>
-0.30368

>  <SCORE.INTRA.SOLV.lig_0>
-73.766

>  <SCORE.INTRA.VDW>
-0.18298

>  <SCORE.INTRA.VDW.0>
-1.95055

>  <SCORE.INTRA.norm>
-0.0375271

>  <SCORE.RESTR>
0

>  <SCORE.RESTR.CAVITY>
0

>  <SCORE.RESTR.norm>
0

>  <SCORE.SYSTEM>
0

>  <SCORE.SYSTEM.CONST>
0

>  <SCORE.SYSTEM.DIHEDRAL>
0

>  <SCORE.SYSTEM.SOLV>
0

>  <SCORE.SYSTEM.norm>
0

>  <SCORE.heavy>
22

>  <SCORE.norm>
-0.0842515

>  <RMSD>
0.988

$$$$
ligand
 OpenBabel11021811513D
libRbt.so/2013.1/901 2013/11/27
 22 23  0  0  0  0  0  0  0  0999 V2000
   29.3705   -3.6051  106.9871 N   0  0  0  0  0  0  0  0  0  0  0  0
   26.0663   -4.4889  106.8820 C   0  0  1  0  0  0  0  0  0  0  0  0
   27.0875   -3.6549  107.5323 O   0  0  0  0  0  0  0  0  0  0  0  0
   25.0884   -8.1745  107.1406 P   0  0  2  0  0  0  0  0  0  0  0  0
   28.0829   -3.3202  106.5208 C   0  0  2  0  0  0  0  0  0  0  0  0
   31.0718   -4.6740  107.8674 N   0  0  0  0  0  0  0  0  0  0  0  0
   28.0580   -3.4146  104.1318 O   0  0  0  0  0  0  0  0  0  0  0  0
   27.7732   -4.1432  105.3352 C   0  0  2  0  0  0  0  0  0  0  0  0
   33.9013   -3.7649  108.1529 N   0  0  0  0  0  0  0  0  0  0  0  0
   25.5876   -3.3563  104.8378 O   0  0  0  0  0  0  0  0  0  0  0  0
   26.3390   -4.4338  105.4391 C   0  0  2  0  0  0  0  0  0  0  0  0
   31.4999   -3.4487  107.5062 C   0  0  0  0  0  0  0  0  0  0  0  0
   30.4487   -1.4325  106.4362 N   0  0  0  0  0  0  0  0  0  0  0  0
   25.1676   -6.6545  106.7833 O   0  0  0  0  0  0  0  0  0  0  0  0
   26.1793   -5.8881  107.3619 C   0  0  0  0  0  0  0  0  0  0  0  0
   26.4441   -8.8952  106.7398 O   0  0  0  0  0  0  0  0  0  0  0  0
   29.7600   -4.7540  107.5411 C   0  0  0  0  0  0  0  0  0  0  0  0
   33.1353   -1.7476  107.4235 O   0  0  0  0  0  0  0  0  0  0  0  0
   32.8900   -2.9228  107.6836 C   0  0  0  0  0  0  0  0  0  0  0  0
   30.4331   -2.7591  106.9485 C   0  0  0  0  0  0  0  0  0  0  0  0
   23.9266   -8.8200  106.4888 O   0  5  0  0  0  0  0  0  0  0  0  0
   24.7833   -8.3767  108.5828 O   0  0  0  0  0  0  0  0  0  0  0  0
  1 17  1  0  0  0  0
  1 20  1  0  0  0  0
  2 15  1  1  0  0  0
  2  3  1  0  0  0  0
  2 11  1  0  0  0  0
  3  5  1  0  0  0  0
  4 16  1  6  0  0  0
  4 21  1  0  0  0  0
  4 22  2  0  0  0  0
  4 14  1  0  0  0  0
  5  1  1  1  0  0  0
  5  8  1  0  0  0  0
  6 17  2  0  0  0  0
  6 12  1  0  0  0  0
  8  7  1  6  0  0  0
  8 11  1  0  0  0  0
  9 19  1  0  0  0  0
 11 10  1  6  0  0  0
 12 20  2  0  0  0  0
 12 19  1  0  0  0  0
 13 20  1  0  0  0  0
 14 15  1  0  0  0  0
 18 19  2  0  0  0  0
M  CHG  1  21  -1
M  END
>  <CHROM.1>
49.84287353,177.34799990,-58.86715164,179.81257379,5.93126032,28.02721530
-4.93200979,106.83099674,0.51572116,-0.36333683,-0.49525262

>  <Name>
ligand

>  <RI>
0

>  <Rbt.Current_Directory>
/home/itssahil/PROJECTS/Mol_Feturizer/New_Systems/rnas/4XW7

>  <Rbt.Executable>
rbdock ($Id: //depot/dev/client3/rdock/2013.1/src/exe/rbdock.cxx#4 $)

>  <Rbt.Library>
libRbt.so (2013.1, Build901 2013/11/27)

>  <Rbt.Parameter_File>
/export/apps/rDock/src/rDock_2013.1_src/data/scripts/dock_solv.prm

>  <Rbt.Receptor>
prm/pocket_docking_2.prm

>  <SCORE>
-1.82325

>  <SCORE.INTER>
-0.993175

>  <SCORE.INTER.CONST>
1

>  <SCORE.INTER.POLAR>
0

>  <SCORE.INTER.ROT>
5

>  <SCORE.INTER.SOLV>
10.1588

>  <SCORE.INTER.VDW>
-10.9817

>  <SCORE.INTER.norm>
-0.0451443

>  <SCORE.INTRA>
-0.830771

>  <SCORE.INTRA.DIHEDRAL>
-1.07449

>  <SCORE.INTRA.DIHEDRAL.0>
2.61549

>  <SCORE.INTRA.POLAR>
0

>  <SCORE.INTRA.POLAR.0>
0

>  <SCORE.INTRA.REPUL>
0

>  <SCORE.INTRA.REPUL.0>
0

>  <SCORE.INTRA.SOLV>
-0.327841

>  <SCORE.INTRA.SOLV.lig_0>
-73.766

>  <SCORE.INTRA.VDW>
-0.129607

>  <SCORE.INTRA.VDW.0>
-1.95055

>  <SCORE.INTRA.norm>
-0.0377623

>  <SCORE.RESTR>
0.000695814

>  <SCORE.RESTR.CAVITY>
0.000695814

>  <SCORE.RESTR.norm>
3.16279e-05

>  <SCORE.SYSTEM>
0

>  <SCORE.SYSTEM.CONST>
0

>  <SCORE.SYSTEM.DIHEDRAL>
0

>  <SCORE.SYSTEM.SOLV>
0

>  <SCORE.SYSTEM.norm>
0

>  <SCORE.heavy>
22

>  <SCORE.norm>
-0.082875

>  <RMSD>
0.990

$$$$
ligand
 OpenBabel11021811513D
libRbt.so/2013.1/901 2013/11/27
 22 23  0  0  0  0  0  0  0  0999 V2000
   29.4005   -3.5925  106.9800 N   0  0  0  0  0  0  0  0  0  0  0  0
   26.0906   -4.4556  106.8837 C   0  0  1  0  0  0  0  0  0  0  0  0
   27.1198   -3.6329  107.5358 O   0  0  0  0  0  0  0  0  0  0  0  0
   25.0769   -8.1319  107.1369 P   0  0  2  0  0  0  0  0  0  0  0  0
   28.1124   -3.2960  106.5222 C   0  0  2  0  0  0  0  0  0  0  0  0
   31.0957   -4.6730  107.8578 N   0  0  0  0  0  0  0  0  0  0  0  0
   28.0755   -3.3711  104.1327 O   0  0  0  0  0  0  0  0  0  0  0  0
   27.7921   -4.1076  105.3316 C   0  0  2  0  0  0  0  0  0  0  0  0
   33.9352   -3.7924  108.1254 N   0  0  0  0  0  0  0  0  0  0  0  0
   25.6089   -3.3038  104.8511 O   0  0  0  0  0  0  0  0  0  0  0  0
   26.3566   -4.3905  105.4400 C   0  0  2  0  0  0  0  0  0  0  0  0
   31.5367   -3.4582  107.4771 C   0  0  0  0  0  0  0  0  0  0  0  0
   30.5022   -1.4416  106.3915 N   0  0  0  0  0  0  0  0  0  0  0  0
   25.1641   -6.6097  106.7909 O   0  0  0  0  0  0  0  0  0  0  0  0
   26.1974   -5.8592  107.3519 C   0  0  0  0  0  0  0  0  0  0  0  0
   26.4192   -8.8613  106.7078 O   0  0  0  0  0  0  0  0  0  0  0  0
   29.7798   -4.7394  107.5449 C   0  0  0  0  0  0  0  0  0  0  0  0
   33.1977   -1.7857  107.3396 O   0  0  0  0  0  0  0  0  0  0  0  0
   32.9353   -2.9489  107.6347 C   0  0  0  0  0  0  0  0  0  0  0  0
   30.4738   -2.7614  106.9207 C   0  0  0  0  0  0  0  0  0  0  0  0
   23.8987   -8.7614  106.4991 O   0  5  0  0  0  0  0  0  0  0  0  0
   24.7938   -8.3434  108.5823 O   0  0  0  0  0  0  0  0  0  0  0  0
  1 17  1  0  0  0  0
  1 20  1  0  0  0  0
  2 15  1  1  0  0  0
  2  3  1  0  0  0  0
  2 11  1  0  0  0  0
  3  5  1  0  0  0  0
  4 16  1  6  0  0  0
  4 21  1  0  0  0  0
  4 22  2  0  0  0  0
  4 14  1  0  0  0  0
  5  1  1  1  0  0  0
  5  8  1  0  0  0  0
  6 17  2  0  0  0  0
  6 12  1  0  0  0  0
  8  7  1  6  0  0  0
  8 11  1  0  0  0  0
  9 19  1  0  0  0  0
 11 10  1  1  0  0  0
 12 20  2  0  0  0  0
 12 19  1  0  0  0  0
 13 20  1  0  0  0  0
 14 15  1  0  0  0  0
 18 19  2  0  0  0  0
M  CHG  1  21  -1
M  END
>  <CHROM.1>
48.55872209,176.29629396,-58.44592480,179.65080911,4.90882976,28.04597290
-4.91103321,106.81881852,0.51095313,-0.35328965,-0.49571319

>  <Name>
ligand

>  <RI>
0

>  <Rbt.Current_Directory>
/home/itssahil/PROJECTS/Mol_Feturizer/New_Systems/rnas/4XW7

>  <Rbt.Executable>
rbdock ($Id: //depot/dev/client3/rdock/2013.1/src/exe/rbdock.cxx#4 $)

>  <Rbt.Library>
libRbt.so (2013.1, Build901 2013/11/27)

>  <Rbt.Parameter_File>
/export/apps/rDock/src/rDock_2013.1_src/data/scripts/dock_solv.prm

>  <Rbt.Receptor>
prm/pocket_docking_2.prm

>  <SCORE>
-1.8569

>  <SCORE.INTER>
-1.02534

>  <SCORE.INTER.CONST>
1

>  <SCORE.INTER.POLAR>
0

>  <SCORE.INTER.ROT>
5

>  <SCORE.INTER.SOLV>
10.6798

>  <SCORE.INTER.VDW>
-11.1768

>  <SCORE.INTER.norm>
-0.0466063

>  <SCORE.INTRA>
-0.831565

>  <SCORE.INTRA.DIHEDRAL>
-1.06234

>  <SCORE.INTRA.DIHEDRAL.0>
2.61549

>  <SCORE.INTRA.POLAR>
0

>  <SCORE.INTRA.POLAR.0>
0

>  <SCORE.INTRA.REPUL>
0

>  <SCORE.INTRA.REPUL.0>
0

>  <SCORE.INTRA.SOLV>
-0.297175

>  <SCORE.INTRA.SOLV.lig_0>
-73.766

>  <SCORE.INTRA.VDW>
-0.15181

>  <SCORE.INTRA.VDW.0>
-1.95055

>  <SCORE.INTRA.norm>
-0.0377984

>  <SCORE.RESTR>
0

>  <SCORE.RESTR.CAVITY>
0

>  <SCORE.RESTR.norm>
0

>  <SCORE.SYSTEM>
0

>  <SCORE.SYSTEM.CONST>
0

>  <SCORE.SYSTEM.DIHEDRAL>
0

>  <SCORE.SYSTEM.SOLV>
0

>  <SCORE.SYSTEM.norm>
0

>  <SCORE.heavy>
22

>  <SCORE.norm>
-0.0844047

>  <RMSD>
0.991

$$$$
ligand
 OpenBabel11021811513D
libRbt.so/2013.1/901 2013/11/27
 22 23  0  0  0  0  0  0  0  0999 V2000
   29.3766   -3.6057  106.9804 N   0  0  0  0  0  0  0  0  0  0  0  0
   26.0705   -4.4832  106.8840 C   0  0  1  0  0  0  0  0  0  0  0  0
   27.0965   -3.6575  107.5374 O   0  0  0  0  0  0  0  0  0  0  0  0
   25.0774   -8.1659  107.1225 P   0  0  2  0  0  0  0  0  0  0  0  0
   28.0870   -3.3138  106.5241 C   0  0  2  0  0  0  0  0  0  0  0  0
   31.0784   -4.6827  107.8498 N   0  0  0  0  0  0  0  0  0  0  0  0
   28.0489   -3.3833  104.1343 O   0  0  0  0  0  0  0  0  0  0  0  0
   27.7695   -4.1240  105.3317 C   0  0  2  0  0  0  0  0  0  0  0  0
   33.9075   -3.7798  108.1457 N   0  0  0  0  0  0  0  0  0  0  0  0
   25.5825   -3.3286  104.8544 O   0  0  0  0  0  0  0  0  0  0  0  0
   26.3354   -4.4135  105.4403 C   0  0  2  0  0  0  0  0  0  0  0  0
   31.5113   -3.4614  107.4809 C   0  0  0  0  0  0  0  0  0  0  0  0
   30.4640   -1.4418  106.4131 N   0  0  0  0  0  0  0  0  0  0  0  0
   25.1458   -6.6383  106.7969 O   0  0  0  0  0  0  0  0  0  0  0  0
   26.1837   -5.8874  107.3487 C   0  0  0  0  0  0  0  0  0  0  0  0
   26.4235   -8.8753  106.6723 O   0  0  0  0  0  0  0  0  0  0  0  0
   29.7633   -4.7552  107.5349 C   0  0  0  0  0  0  0  0  0  0  0  0
   33.1643   -1.7808  107.3456 O   0  0  0  0  0  0  0  0  0  0  0  0
   32.9062   -2.9440  107.6447 C   0  0  0  0  0  0  0  0  0  0  0  0
   30.4442   -2.7667  106.9300 C   0  0  0  0  0  0  0  0  0  0  0  0
   23.9005   -8.7990  106.4859 O   0  5  0  0  0  0  0  0  0  0  0  0
   24.8087   -8.4002  108.5672 O   0  0  0  0  0  0  0  0  0  0  0  0
  1 17  1  0  0  0  0
  1 20  1  0  0  0  0
  2 15  1  1  0  0  0
  2  3  1  0  0  0  0
  2 11  1  0  0  0  0
  3  5  1  0  0  0  0
  4 16  1  6  0  0  0
  4 21  1  0  0  0  0
  4 22  2  0  0  0  0
  4 14  1  0  0  0  0
  5  1  1  1  0  0  0
  5  8  1  0  0  0  0
  6 17  2  0  0  0  0
  6 12  1  0  0  0  0
  8  7  1  6  0  0  0
  8 11  1  0  0  0  0
  9 19  1  0  0  0  0
 11 10  1  1  0  0  0
 12 20  2  0  0  0  0
 12 19  1  0  0  0  0
 13 20  1  0  0  0  0
 14 15  1  0  0  0  0
 18 19  2  0  0  0  0
M  CHG  1  21  -1
M  END
>  <CHROM.1>
48.99108189,175.72324562,-57.80726281,178.67548875,4.03712643,28.02845200
-4.92936672,106.81715263,0.51551692,-0.35636276,-0.49045262

>  <Name>
ligand

>  <RI>
0

>  <Rbt.Current_Directory>
/home/itssahil/PROJECTS/Mol_Feturizer/New_Systems/rnas/4XW7

>  <Rbt.Executable>
rbdock ($Id: //depot/dev/client3/rdock/2013.1/src/exe/rbdock.cxx#4 $)

>  <Rbt.Library>
libRbt.so (2013.1, Build901 2013/11/27)

>  <Rbt.Parameter_File>
/export/apps/rDock/src/rDock_2013.1_src/data/scripts/dock_solv.prm

>  <Rbt.Receptor>
prm/pocket_docking_2.prm

>  <SCORE>
-1.85212

>  <SCORE.INTER>
-1.01568

>  <SCORE.INTER.CONST>
1

>  <SCORE.INTER.POLAR>
0

>  <SCORE.INTER.ROT>
5

>  <SCORE.INTER.SOLV>
10.3723

>  <SCORE.INTER.VDW>
-11.0679

>  <SCORE.INTER.norm>
-0.0461672

>  <SCORE.INTRA>
-0.836446

>  <SCORE.INTRA.DIHEDRAL>
-1.04363

>  <SCORE.INTRA.DIHEDRAL.0>
2.61549

>  <SCORE.INTRA.POLAR>
0

>  <SCORE.INTRA.POLAR.0>
0

>  <SCORE.INTRA.REPUL>
0

>  <SCORE.INTRA.REPUL.0>
0

>  <SCORE.INTRA.SOLV>
-0.314963

>  <SCORE.INTRA.SOLV.lig_0>
-73.766

>  <SCORE.INTRA.VDW>
-0.15715

>  <SCORE.INTRA.VDW.0>
-1.95055

>  <SCORE.INTRA.norm>
-0.0380203

>  <SCORE.RESTR>
0

>  <SCORE.RESTR.CAVITY>
0

>  <SCORE.RESTR.norm>
0

>  <SCORE.SYSTEM>
0

>  <SCORE.SYSTEM.CONST>
0

>  <SCORE.SYSTEM.DIHEDRAL>
0

>  <SCORE.SYSTEM.SOLV>
0

>  <SCORE.SYSTEM.norm>
0

>  <SCORE.heavy>
22

>  <SCORE.norm>
-0.0841874

>  <RMSD>
0.996

$$$$
ligand
 OpenBabel11021811513D
libRbt.so/2013.1/901 2013/11/27
 22 23  0  0  0  0  0  0  0  0999 V2000
   29.4103   -3.8146  107.1391 N   0  0  0  0  0  0  0  0  0  0  0  0
   26.0744   -4.5548  106.9547 C   0  0  1  0  0  0  0  0  0  0  0  0
   27.1127   -3.7527  107.6180 O   0  0  0  0  0  0  0  0  0  0  0  0
   24.7993   -8.1251  107.4340 P   0  0  2  0  0  0  0  0  0  0  0  0
   28.1504   -3.4834  106.6296 C   0  0  2  0  0  0  0  0  0  0  0  0
   31.0471   -4.9516  108.0555 N   0  0  0  0  0  0  0  0  0  0  0  0
   28.1891   -3.6271  104.2432 O   0  0  0  0  0  0  0  0  0  0  0  0
   27.8382   -4.3169  105.4521 C   0  0  2  0  0  0  0  0  0  0  0  0
   33.1245   -1.9972  108.5934 N   0  0  0  0  0  0  0  0  0  0  0  0
   25.7047   -3.4457  104.8753 O   0  0  0  0  0  0  0  0  0  0  0  0
   26.3901   -4.5422  105.5196 C   0  0  2  0  0  0  0  0  0  0  0  0
   31.5197   -3.7279  107.7484 C   0  0  0  0  0  0  0  0  0  0  0  0
   30.5631   -1.6555  106.6969 N   0  0  0  0  0  0  0  0  0  0  0  0
   25.0041   -6.6431  106.9804 O   0  0  0  0  0  0  0  0  0  0  0  0
   26.1114   -5.9470  107.4654 C   0  0  0  0  0  0  0  0  0  0  0  0
   23.4698   -8.7077  106.7929 O   0  0  0  0  0  0  0  0  0  0  0  0
   29.7482   -4.9885  107.6741 C   0  0  0  0  0  0  0  0  0  0  0  0
   33.8699   -3.9405  107.6680 O   0  0  0  0  0  0  0  0  0  0  0  0
   32.9137   -3.2432  107.9974 C   0  0  0  0  0  0  0  0  0  0  0  0
   30.4939   -2.9954  107.1687 C   0  0  0  0  0  0  0  0  0  0  0  0
   24.7749   -8.2370  108.9098 O   0  5  0  0  0  0  0  0  0  0  0  0
   25.9745   -8.9669  107.0813 O   0  0  0  0  0  0  0  0  0  0  0  0
  1 17  1  0  0  0  0
  1 20  1  0  0  0  0
  2 15  1  1  0  0  0
  2  3  1  0  0  0  0
  2 11  1  0  0  0  0
  3  5  1  0  0  0  0
  4 16  1  6  0  0  0
  4 21  1  0  0  0  0
  4 22  2  0  0  0  0
  4 14  1  0  0  0  0
  5  1  1  1  0  0  0
  5  8  1  0  0  0  0
  6 17  2  0  0  0  0
  6 12  1  0  0  0  0
  8  7  1  6  0  0  0
  8 11  1  0  0  0  0
  9 19  1  0  0  0  0
 11 10  1  6  0  0  0
 12 20  2  0  0  0  0
 12 19  1  0  0  0  0
 13 20  1  0  0  0  0
 14 15  1  0  0  0  0
 18 19  2  0  0  0  0
M  CHG  1  21  -1
M  END
>  <CHROM.1>
52.96760611,171.30503951,178.71310869,-177.64152792,-132.36478692,27.97615533
-5.06086565,107.03565304,0.44595009,-0.36977437,-0.57213269

>  <Name>
ligand

>  <RI>
0

>  <Rbt.Current_Directory>
/home/itssahil/PROJECTS/Mol_Feturizer/New_Systems/rnas/4XW7

>  <Rbt.Executable>
rbdock ($Id: //depot/dev/client3/rdock/2013.1/src/exe/rbdock.cxx#4 $)

>  <Rbt.Library>
libRbt.so (2013.1, Build901 2013/11/27)

>  <Rbt.Parameter_File>
/export/apps/rDock/src/rDock_2013.1_src/data/scripts/dock_solv.prm

>  <Rbt.Receptor>
prm/pocket_docking_2.prm

>  <SCORE>
-1.04323

>  <SCORE.INTER>
-0.649992

>  <SCORE.INTER.CONST>
1

>  <SCORE.INTER.POLAR>
0

>  <SCORE.INTER.ROT>
5

>  <SCORE.INTER.SOLV>
8.81112

>  <SCORE.INTER.VDW>
-10.3037

>  <SCORE.INTER.norm>
-0.0295451

>  <SCORE.INTRA>
-0.393236

>  <SCORE.INTRA.DIHEDRAL>
-0.685211

>  <SCORE.INTRA.DIHEDRAL.0>
2.61549

>  <SCORE.INTRA.POLAR>
0

>  <SCORE.INTRA.POLAR.0>
0

>  <SCORE.INTRA.REPUL>
0

>  <SCORE.INTRA.REPUL.0>
0

>  <SCORE.INTRA.SOLV>
0.263836

>  <SCORE.INTRA.SOLV.lig_0>
-73.766

>  <SCORE.INTRA.VDW>
-0.182548

>  <SCORE.INTRA.VDW.0>
-1.95055

>  <SCORE.INTRA.norm>
-0.0178744

>  <SCORE.RESTR>
0

>  <SCORE.RESTR.CAVITY>
0

>  <SCORE.RESTR.norm>
0

>  <SCORE.SYSTEM>
0

>  <SCORE.SYSTEM.CONST>
0

>  <SCORE.SYSTEM.DIHEDRAL>
0

>  <SCORE.SYSTEM.SOLV>
0

>  <SCORE.SYSTEM.norm>
0

>  <SCORE.heavy>
22

>  <SCORE.norm>
-0.0474194

>  <RMSD>
1.003

$$$$
ligand
 OpenBabel11021811513D
libRbt.so/2013.1/901 2013/11/27
 22 23  0  0  0  0  0  0  0  0999 V2000
   29.3997   -3.6008  106.9633 N   0  0  0  0  0  0  0  0  0  0  0  0
   26.0976   -4.4904  106.8431 C   0  0  1  0  0  0  0  0  0  0  0  0
   27.1150   -3.6575  107.5009 O   0  0  0  0  0  0  0  0  0  0  0  0
   25.1339   -8.1817  107.0701 P   0  0  2  0  0  0  0  0  0  0  0  0
   28.1131   -3.3160  106.4942 C   0  0  2  0  0  0  0  0  0  0  0  0
   31.0980   -4.6677  107.8517 N   0  0  0  0  0  0  0  0  0  0  0  0
   28.0960   -3.3988  104.1047 O   0  0  0  0  0  0  0  0  0  0  0  0
   27.8087   -4.1338  105.3036 C   0  0  2  0  0  0  0  0  0  0  0  0
   33.9276   -3.7609  108.1408 N   0  0  0  0  0  0  0  0  0  0  0  0
   25.6232   -3.3487  104.8030 O   0  0  0  0  0  0  0  0  0  0  0  0
   26.3747   -4.4277  105.4014 C   0  0  2  0  0  0  0  0  0  0  0  0
   31.5291   -3.4458  107.4830 C   0  0  0  0  0  0  0  0  0  0  0  0
   30.4830   -1.4341  106.3993 N   0  0  0  0  0  0  0  0  0  0  0  0
   25.2020   -6.6567  106.7326 O   0  0  0  0  0  0  0  0  0  0  0  0
   26.2116   -5.8916  107.3166 C   0  0  0  0  0  0  0  0  0  0  0  0
   26.4979   -8.8856  106.6677 O   0  0  0  0  0  0  0  0  0  0  0  0
   29.7862   -4.7470  107.5249 C   0  0  0  0  0  0  0  0  0  0  0  0
   33.1697   -1.7506  107.3842 O   0  0  0  0  0  0  0  0  0  0  0  0
   32.9202   -2.9218  107.6580 C   0  0  0  0  0  0  0  0  0  0  0  0
   30.4642   -2.7574  106.9201 C   0  0  0  0  0  0  0  0  0  0  0  0
   23.9813   -8.8287  106.4038 O   0  5  0  0  0  0  0  0  0  0  0  0
   24.8228   -8.4049  108.5080 O   0  0  0  0  0  0  0  0  0  0  0  0
  1 17  1  0  0  0  0
  1 20  1  0  0  0  0
  2 15  1  1  0  0  0
  2  3  1  0  0  0  0
  2 11  1  0  0  0  0
  3  5  1  0  0  0  0
  4 16  1  6  0  0  0
  4 21  1  0  0  0  0
  4 22  2  0  0  0  0
  4 14  1  0  0  0  0
  5  1  1  1  0  0  0
  5  8  1  0  0  0  0
  6 17  2  0  0  0  0
  6 12  1  0  0  0  0
  8  7  1  6  0  0  0
  8 11  1  0  0  0  0
  9 19  1  0  0  0  0
 11 10  1  1  0  0  0
 12 20  2  0  0  0  0
 12 19  1  0  0  0  0
 13 20  1  0  0  0  0
 14 15  1  0  0  0  0
 18 19  2  0  0  0  0
M  CHG  1  21  -1
M  END
>  <CHROM.1>
49.14128979,177.25332800,-58.26616726,179.14444251,5.56121009,28.06278707
-4.93168133,106.78976585,0.51654690,-0.36577296,-0.48895933

>  <Name>
ligand

>  <RI>
0

>  <Rbt.Current_Directory>
/home/itssahil/PROJECTS/Mol_Feturizer/New_Systems/rnas/4XW7

>  <Rbt.Executable>
rbdock ($Id: //depot/dev/client3/rdock/2013.1/src/exe/rbdock.cxx#4 $)

>  <Rbt.Library>
libRbt.so (2013.1, Build901 2013/11/27)

>  <Rbt.Parameter_File>
/export/apps/rDock/src/rDock_2013.1_src/data/scripts/dock_solv.prm

>  <Rbt.Receptor>
prm/pocket_docking_2.prm

>  <SCORE>
-1.83438

>  <SCORE.INTER>
-1.01158

>  <SCORE.INTER.CONST>
1

>  <SCORE.INTER.POLAR>
0

>  <SCORE.INTER.ROT>
5

>  <SCORE.INTER.SOLV>
10.5504

>  <SCORE.INTER.VDW>
-11.1245

>  <SCORE.INTER.norm>
-0.045981

>  <SCORE.INTRA>
-0.827753

>  <SCORE.INTRA.DIHEDRAL>
-1.07159

>  <SCORE.INTRA.DIHEDRAL.0>
2.61549

>  <SCORE.INTRA.POLAR>
0

>  <SCORE.INTRA.POLAR.0>
0

>  <SCORE.INTRA.REPUL>
0

>  <SCORE.INTRA.REPUL.0>
0

>  <SCORE.INTRA.SOLV>
-0.312275

>  <SCORE.INTRA.SOLV.lig_0>
-73.766

>  <SCORE.INTRA.VDW>
-0.135821

>  <SCORE.INTRA.VDW.0>
-1.95055

>  <SCORE.INTRA.norm>
-0.0376251

>  <SCORE.RESTR>
0.00495295

>  <SCORE.RESTR.CAVITY>
0.00495295

>  <SCORE.RESTR.norm>
0.000225134

>  <SCORE.SYSTEM>
0

>  <SCORE.SYSTEM.CONST>
0

>  <SCORE.SYSTEM.DIHEDRAL>
0

>  <SCORE.SYSTEM.SOLV>
0

>  <SCORE.SYSTEM.norm>
0

>  <SCORE.heavy>
22

>  <SCORE.norm>
-0.083381

>  <RMSD>
1.009

$$$$
ligand
 OpenBabel11021811513D
libRbt.so/2013.1/901 2013/11/27
 22 23  0  0  0  0  0  0  0  0999 V2000
   29.2364   -3.5812  106.8472 N   0  0  0  0  0  0  0  0  0  0  0  0
   25.9720   -4.4427  106.2893 C   0  0  1  0  0  0  0  0  0  0  0  0
   26.9137   -3.7222  107.1585 O   0  0  0  0  0  0  0  0  0  0  0  0
   25.5721   -7.6524  108.3244 P   0  0  2  0  0  0  0  0  0  0  0  0
   27.9933   -3.2273  106.3125 C   0  0  2  0  0  0  0  0  0  0  0  0
   30.8302   -4.7436  107.8068 N   0  0  0  0  0  0  0  0  0  0  0  0
   28.1929   -2.9364  103.9477 O   0  0  0  0  0  0  0  0  0  0  0  0
   27.8095   -3.8495  104.9866 C   0  0  2  0  0  0  0  0  0  0  0  0
   33.6567   -3.9542  108.3445 N   0  0  0  0  0  0  0  0  0  0  0  0
   25.6668   -2.9970  104.4165 O   0  0  0  0  0  0  0  0  0  0  0  0
   26.3770   -4.1557  104.9062 C   0  0  2  0  0  0  0  0  0  0  0  0
   31.3373   -3.5365  107.4895 C   0  0  0  0  0  0  0  0  0  0  0  0
   30.4486   -1.4576  106.3923 N   0  0  0  0  0  0  0  0  0  0  0  0
   25.6154   -6.1660  107.8418 O   0  0  0  0  0  0  0  0  0  0  0  0
   26.0635   -5.9006  106.5478 C   0  0  0  0  0  0  0  0  0  0  0  0
   26.9985   -8.3224  108.1394 O   0  0  0  0  0  0  0  0  0  0  0  0
   29.5370   -4.7548  107.4049 C   0  0  0  0  0  0  0  0  0  0  0  0
   33.0750   -1.9381  107.4583 O   0  0  0  0  0  0  0  0  0  0  0  0
   32.7387   -3.0819  107.7540 C   0  0  0  0  0  0  0  0  0  0  0  0
   30.3392   -2.7882  106.8824 C   0  0  0  0  0  0  0  0  0  0  0  0
   24.5249   -8.4185  107.6118 O   0  5  0  0  0  0  0  0  0  0  0  0
   25.1165   -7.7500  109.7376 O   0  0  0  0  0  0  0  0  0  0  0  0
  1 17  1  0  0  0  0
  1 20  1  0  0  0  0
  2 15  1  1  0  0  0
  2  3  1  0  0  0  0
  2 11  1  0  0  0  0
  3  5  1  0  0  0  0
  4 16  1  6  0  0  0
  4 21  1  0  0  0  0
  4 22  2  0  0  0  0
  4 14  1  0  0  0  0
  5  1  1  1  0  0  0
  5  8  1  0  0  0  0
  6 17  2  0  0  0  0
  6 12  1  0  0  0  0
  8  7  1  6  0  0  0
  8 11  1  0  0  0  0
  9 19  1  0  0  0  0
 11 10  1  1  0  0  0
 12 20  2  0  0  0  0
 12 19  1  0  0  0  0
 13 20  1  0  0  0  0
 14 15  1  0  0  0  0
 18 19  2  0  0  0  0
M  CHG  1  21  -1
M  END
>  <CHROM.1>
40.52042667,66.02559241,54.61640148,177.86646936,1.95275853,28.10706949,-4.74670941
107.01780187,0.51535828,-0.35848632,-0.72355626

>  <Name>
ligand

>  <RI>
0

>  <Rbt.Current_Directory>
/home/itssahil/PROJECTS/Mol_Feturizer/New_Systems/rnas/4XW7

>  <Rbt.Executable>
rbdock ($Id: //depot/dev/client3/rdock/2013.1/src/exe/rbdock.cxx#4 $)

>  <Rbt.Library>
libRbt.so (2013.1, Build901 2013/11/27)

>  <Rbt.Parameter_File>
/export/apps/rDock/src/rDock_2013.1_src/data/scripts/dock_solv.prm

>  <Rbt.Receptor>
prm/pocket_docking_2.prm

>  <SCORE>
-1.47614

>  <SCORE.INTER>
-0.501109

>  <SCORE.INTER.CONST>
1

>  <SCORE.INTER.POLAR>
0

>  <SCORE.INTER.ROT>
5

>  <SCORE.INTER.SOLV>
9.47966

>  <SCORE.INTER.VDW>
-10.4273

>  <SCORE.INTER.norm>
-0.0227777

>  <SCORE.INTRA>
-0.975031

>  <SCORE.INTRA.DIHEDRAL>
-0.930651

>  <SCORE.INTRA.DIHEDRAL.0>
2.61549

>  <SCORE.INTRA.POLAR>
0

>  <SCORE.INTRA.POLAR.0>
0

>  <SCORE.INTRA.REPUL>
0

>  <SCORE.INTRA.REPUL.0>
0

>  <SCORE.INTRA.SOLV>
-0.212611

>  <SCORE.INTRA.SOLV.lig_0>
-73.766

>  <SCORE.INTRA.VDW>
-0.4034

>  <SCORE.INTRA.VDW.0>
-1.95055

>  <SCORE.INTRA.norm>
-0.0443196

>  <SCORE.RESTR>
0

>  <SCORE.RESTR.CAVITY>
0

>  <SCORE.RESTR.norm>
0

>  <SCORE.SYSTEM>
0

>  <SCORE.SYSTEM.CONST>
0

>  <SCORE.SYSTEM.DIHEDRAL>
0

>  <SCORE.SYSTEM.SOLV>
0

>  <SCORE.SYSTEM.norm>
0

>  <SCORE.heavy>
22

>  <SCORE.norm>
-0.0670973

>  <RMSD>
1.023

$$$$
ligand
 OpenBabel11021811513D
libRbt.so/2013.1/901 2013/11/27
 22 23  0  0  0  0  0  0  0  0999 V2000
   29.2038   -3.6398  106.8881 N   0  0  0  0  0  0  0  0  0  0  0  0
   25.9593   -4.5549  106.3002 C   0  0  1  0  0  0  0  0  0  0  0  0
   26.8828   -3.8306  107.1856 O   0  0  0  0  0  0  0  0  0  0  0  0
   25.5949   -7.8069  108.2739 P   0  0  2  0  0  0  0  0  0  0  0  0
   27.9565   -3.3013  106.3530 C   0  0  2  0  0  0  0  0  0  0  0  0
   30.8123   -4.7832  107.8459 N   0  0  0  0  0  0  0  0  0  0  0  0
   28.1614   -2.9682  103.9942 O   0  0  0  0  0  0  0  0  0  0  0  0
   27.7910   -3.9054  105.0164 C   0  0  2  0  0  0  0  0  0  0  0  0
   33.6382   -3.9689  108.3527 N   0  0  0  0  0  0  0  0  0  0  0  0
   25.6348   -3.0851  104.4496 O   0  0  0  0  0  0  0  0  0  0  0  0
   26.3651   -4.2378  104.9239 C   0  0  2  0  0  0  0  0  0  0  0  0
   31.3032   -3.5683  107.5329 C   0  0  0  0  0  0  0  0  0  0  0  0
   30.3873   -1.4984  106.4409 N   0  0  0  0  0  0  0  0  0  0  0  0
   25.6155   -6.3117  107.8177 O   0  0  0  0  0  0  0  0  0  0  0  0
   26.0778   -6.0148  106.5356 C   0  0  0  0  0  0  0  0  0  0  0  0
   27.0467   -8.4331  108.1394 O   0  0  0  0  0  0  0  0  0  0  0  0
   29.5198   -4.8108  107.4425 C   0  0  0  0  0  0  0  0  0  0  0  0
   33.0091   -1.9358  107.5408 O   0  0  0  0  0  0  0  0  0  0  0  0
   32.6979   -3.0955  107.8004 C   0  0  0  0  0  0  0  0  0  0  0  0
   30.2956   -2.8319  106.9269 C   0  0  0  0  0  0  0  0  0  0  0  0
   24.6015   -8.5898  107.5048 O   0  5  0  0  0  0  0  0  0  0  0  0
   25.0828   -7.9419  109.6645 O   0  0  0  0  0  0  0  0  0  0  0  0
  1 17  1  0  0  0  0
  1 20  1  0  0  0  0
  2 15  1  1  0  0  0
  2  3  1  0  0  0  0
  2 11  1  0  0  0  0
  3  5  1  0  0  0  0
  4 16  1  6  0  0  0
  4 21  1  0  0  0  0
  4 22  2  0  0  0  0
  4 14  1  0  0  0  0
  5  1  1  1  0  0  0
  5  8  1  0  0  0  0
  6 17  2  0  0  0  0
  6 12  1  0  0  0  0
  8  7  1  6  0  0  0
  8 11  1  0  0  0  0
  9 19  1  0  0  0  0
 11 10  1  1  0  0  0
 12 20  2  0  0  0  0
 12 19  1  0  0  0  0
 13 20  1  0  0  0  0
 14 15  1  0  0  0  0
 18 19  2  0  0  0  0
M  CHG  1  21  -1
M  END
>  <CHROM.1>
39.67304539,66.65936945,56.25334462,177.79779304,3.84943713,28.09280521,-4.83189152
107.02779286,0.52757639,-0.37187819,-0.70227686

>  <Name>
ligand

>  <RI>
0

>  <Rbt.Current_Directory>
/home/itssahil/PROJECTS/Mol_Feturizer/New_Systems/rnas/4XW7

>  <Rbt.Executable>
rbdock ($Id: //depot/dev/client3/rdock/2013.1/src/exe/rbdock.cxx#4 $)

>  <Rbt.Library>
libRbt.so (2013.1, Build901 2013/11/27)

>  <Rbt.Parameter_File>
/export/apps/rDock/src/rDock_2013.1_src/data/scripts/dock_solv.prm

>  <Rbt.Receptor>
prm/pocket_docking_2.prm

>  <SCORE>
-1.47158

>  <SCORE.INTER>
-0.516299

>  <SCORE.INTER.CONST>
1

>  <SCORE.INTER.POLAR>
0

>  <SCORE.INTER.ROT>
5

>  <SCORE.INTER.SOLV>
9.0332

>  <SCORE.INTER.VDW>
-10.2886

>  <SCORE.INTER.norm>
-0.0234682

>  <SCORE.INTRA>
-0.955281

>  <SCORE.INTRA.DIHEDRAL>
-0.912094

>  <SCORE.INTRA.DIHEDRAL.0>
2.61549

>  <SCORE.INTRA.POLAR>
0

>  <SCORE.INTRA.POLAR.0>
0

>  <SCORE.INTRA.REPUL>
0

>  <SCORE.INTRA.REPUL.0>
0

>  <SCORE.INTRA.SOLV>
-0.178337

>  <SCORE.INTRA.SOLV.lig_0>
-73.766

>  <SCORE.INTRA.VDW>
-0.410065

>  <SCORE.INTRA.VDW.0>
-1.95055

>  <SCORE.INTRA.norm>
-0.0434219

>  <SCORE.RESTR>
0

>  <SCORE.RESTR.CAVITY>
0

>  <SCORE.RESTR.norm>
0

>  <SCORE.SYSTEM>
0

>  <SCORE.SYSTEM.CONST>
0

>  <SCORE.SYSTEM.DIHEDRAL>
0

>  <SCORE.SYSTEM.SOLV>
0

>  <SCORE.SYSTEM.norm>
0

>  <SCORE.heavy>
22

>  <SCORE.norm>
-0.06689

>  <RMSD>
1.037

$$$$
ligand
 OpenBabel11021811513D
libRbt.so/2013.1/901 2013/11/27
 22 23  0  0  0  0  0  0  0  0999 V2000
   29.3362   -3.6342  107.0644 N   0  0  0  0  0  0  0  0  0  0  0  0
   26.0305   -4.5152  106.9883 C   0  0  1  0  0  0  0  0  0  0  0  0
   27.0688   -3.7258  107.6665 O   0  0  0  0  0  0  0  0  0  0  0  0
   25.0372   -8.2051  107.0514 P   0  0  2  0  0  0  0  0  0  0  0  0
   28.0364   -3.3204  106.6538 C   0  0  2  0  0  0  0  0  0  0  0  0
   31.0530   -4.7464  107.8565 N   0  0  0  0  0  0  0  0  0  0  0  0
   27.9466   -3.2506  104.2655 O   0  0  0  0  0  0  0  0  0  0  0  0
   27.6947   -4.0607  105.4233 C   0  0  2  0  0  0  0  0  0  0  0  0
   33.8949   -3.8709  108.1038 N   0  0  0  0  0  0  0  0  0  0  0  0
   25.4963   -3.2459  105.0405 O   0  0  0  0  0  0  0  0  0  0  0  0
   26.2638   -4.3606  105.5457 C   0  0  2  0  0  0  0  0  0  0  0  0
   31.4860   -3.5202  107.5046 C   0  0  0  0  0  0  0  0  0  0  0  0
   30.4262   -1.4664  106.5175 N   0  0  0  0  0  0  0  0  0  0  0  0
   25.1009   -6.6623  106.8066 O   0  0  0  0  0  0  0  0  0  0  0  0
   26.1566   -5.9438  107.3677 C   0  0  0  0  0  0  0  0  0  0  0  0
   26.3620   -8.8929  106.5131 O   0  0  0  0  0  0  0  0  0  0  0  0
   29.7285   -4.8001  107.5792 C   0  0  0  0  0  0  0  0  0  0  0  0
   33.1521   -1.8544  107.3486 O   0  0  0  0  0  0  0  0  0  0  0  0
   32.8898   -3.0187  107.6393 C   0  0  0  0  0  0  0  0  0  0  0  0
   30.4096   -2.8033  107.0026 C   0  0  0  0  0  0  0  0  0  0  0  0
   23.8342   -8.7993  106.4263 O   0  5  0  0  0  0  0  0  0  0  0  0
   24.8217   -8.5167  108.4904 O   0  0  0  0  0  0  0  0  0  0  0  0
  1 17  1  0  0  0  0
  1 20  1  0  0  0  0
  2 15  1  1  0  0  0
  2  3  1  0  0  0  0
  2 11  1  0  0  0  0
  3  5  1  0  0  0  0
  4 16  1  6  0  0  0
  4 21  1  0  0  0  0
  4 22  2  0  0  0  0
  4 14  1  0  0  0  0
  5  1  1  1  0  0  0
  5  8  1  0  0  0  0
  6 17  2  0  0  0  0
  6 12  1  0  0  0  0
  8  7  1  6  0  0  0
  8 11  1  0  0  0  0
  9 19  1  0  0  0  0
 11 10  1  1  0  0  0
 12 20  2  0  0  0  0
 12 19  1  0  0  0  0
 13 20  1  0  0  0  0
 14 15  1  0  0  0  0
 18 19  2  0  0  0  0
M  CHG  1  21  -1
M  END
>  <CHROM.1>
46.88340448,175.13285548,-58.31213417,178.95502002,3.33897343,27.98628688
-4.95321021,106.84772444,0.52694231,-0.33324464,-0.43570948

>  <Name>
ligand

>  <RI>
0

>  <Rbt.Current_Directory>
/home/itssahil/PROJECTS/Mol_Feturizer/New_Systems/rnas/4XW7

>  <Rbt.Executable>
rbdock ($Id: //depot/dev/client3/rdock/2013.1/src/exe/rbdock.cxx#4 $)

>  <Rbt.Library>
libRbt.so (2013.1, Build901 2013/11/27)

>  <Rbt.Parameter_File>
/export/apps/rDock/src/rDock_2013.1_src/data/scripts/dock_solv.prm

>  <Rbt.Receptor>
prm/pocket_docking_2.prm

>  <SCORE>
-1.7962

>  <SCORE.INTER>
-0.976802

>  <SCORE.INTER.CONST>
1

>  <SCORE.INTER.POLAR>
0

>  <SCORE.INTER.ROT>
5

>  <SCORE.INTER.SOLV>
9.88389

>  <SCORE.INTER.VDW>
-10.8792

>  <SCORE.INTER.norm>
-0.0444001

>  <SCORE.INTRA>
-0.821627

>  <SCORE.INTRA.DIHEDRAL>
-1.03772

>  <SCORE.INTRA.DIHEDRAL.0>
2.61549

>  <SCORE.INTRA.POLAR>
0

>  <SCORE.INTRA.POLAR.0>
0

>  <SCORE.INTRA.REPUL>
0

>  <SCORE.INTRA.REPUL.0>
0

>  <SCORE.INTRA.SOLV>
-0.25232

>  <SCORE.INTRA.SOLV.lig_0>
-73.766

>  <SCORE.INTRA.VDW>
-0.176608

>  <SCORE.INTRA.VDW.0>
-1.95055

>  <SCORE.INTRA.norm>
-0.0373467

>  <SCORE.RESTR>
0.00222371

>  <SCORE.RESTR.CAVITY>
0.00222371

>  <SCORE.RESTR.norm>
0.000101078

>  <SCORE.SYSTEM>
0

>  <SCORE.SYSTEM.CONST>
0

>  <SCORE.SYSTEM.DIHEDRAL>
0

>  <SCORE.SYSTEM.SOLV>
0

>  <SCORE.SYSTEM.norm>
0

>  <SCORE.heavy>
22

>  <SCORE.norm>
-0.0816457

>  <RMSD>
1.043

$$$$
ligand
 OpenBabel11021811513D
libRbt.so/2013.1/901 2013/11/27
 22 23  0  0  0  0  0  0  0  0999 V2000
   29.1657   -3.6752  106.8885 N   0  0  0  0  0  0  0  0  0  0  0  0
   25.9188   -4.5524  106.2578 C   0  0  1  0  0  0  0  0  0  0  0  0
   26.8368   -3.8236  107.1452 O   0  0  0  0  0  0  0  0  0  0  0  0
   25.5980   -7.7382  108.3443 P   0  0  2  0  0  0  0  0  0  0  0  0
   27.9343   -3.3290  106.3225 C   0  0  2  0  0  0  0  0  0  0  0  0
   30.7431   -4.8288  107.8849 N   0  0  0  0  0  0  0  0  0  0  0  0
   28.1891   -3.0497  103.9616 O   0  0  0  0  0  0  0  0  0  0  0  0
   27.7846   -3.9589  104.9960 C   0  0  2  0  0  0  0  0  0  0  0  0
   33.5281   -3.9972  108.5576 N   0  0  0  0  0  0  0  0  0  0  0  0
   25.6527   -3.1178  104.3705 O   0  0  0  0  0  0  0  0  0  0  0  0
   26.3556   -4.2712  104.8832 C   0  0  2  0  0  0  0  0  0  0  0  0
   31.2484   -3.6161  107.5867 C   0  0  0  0  0  0  0  0  0  0  0  0
   30.3718   -1.5394  106.4755 N   0  0  0  0  0  0  0  0  0  0  0  0
   25.6067   -6.2591  107.8379 O   0  0  0  0  0  0  0  0  0  0  0  0
   26.0097   -6.0085  106.5262 C   0  0  0  0  0  0  0  0  0  0  0  0
   27.0461   -8.3694  108.1941 O   0  0  0  0  0  0  0  0  0  0  0  0
   29.4612   -4.8488  107.4487 C   0  0  0  0  0  0  0  0  0  0  0  0
   32.9899   -2.0219  107.5592 O   0  0  0  0  0  0  0  0  0  0  0  0
   32.6383   -3.1513  107.8905 C   0  0  0  0  0  0  0  0  0  0  0  0
   30.2605   -2.8732  106.9566 C   0  0  0  0  0  0  0  0  0  0  0  0
   24.5856   -8.5458  107.6272 O   0  5  0  0  0  0  0  0  0  0  0  0
   25.1214   -7.8263  109.7511 O   0  0  0  0  0  0  0  0  0  0  0  0
  1 17  1  0  0  0  0
  1 20  1  0  0  0  0
  2 15  1  1  0  0  0
  2  3  1  0  0  0  0
  2 11  1  0  0  0  0
  3  5  1  0  0  0  0
  4 16  1  6  0  0  0
  4 21  1  0  0  0  0
  4 22  2  0  0  0  0
  4 14  1  0  0  0  0
  5  1  1  1  0  0  0
  5  8  1  0  0  0  0
  6 17  2  0  0  0  0
  6 12  1  0  0  0  0
  8  7  1  6  0  0  0
  8 11  1  0  0  0  0
  9 19  1  0  0  0  0
 11 10  1  1  0  0  0
 12 20  2  0  0  0  0
 12 19  1  0  0  0  0
 13 20  1  0  0  0  0
 14 15  1  0  0  0  0
 18 19  2  0  0  0  0
M  CHG  1  21  -1
M  END
>  <CHROM.1>
41.16435127,62.53820334,57.57246464,179.06723397,-1.04817237,28.06927752
-4.83865088,107.05445622,0.50773667,-0.38149818,-0.73462639

>  <Name>
ligand

>  <RI>
0

>  <Rbt.Current_Directory>
/home/itssahil/PROJECTS/Mol_Feturizer/New_Systems/rnas/4XW7

>  <Rbt.Executable>
rbdock ($Id: //depot/dev/client3/rdock/2013.1/src/exe/rbdock.cxx#4 $)

>  <Rbt.Library>
libRbt.so (2013.1, Build901 2013/11/27)

>  <Rbt.Parameter_File>
/export/apps/rDock/src/rDock_2013.1_src/data/scripts/dock_solv.prm

>  <Rbt.Receptor>
prm/pocket_docking_2.prm

>  <SCORE>
-1.51277

>  <SCORE.INTER>
-0.417634

>  <SCORE.INTER.CONST>
1

>  <SCORE.INTER.POLAR>
0

>  <SCORE.INTER.ROT>
5

>  <SCORE.INTER.SOLV>
8.28179

>  <SCORE.INTER.VDW>
-9.97235

>  <SCORE.INTER.norm>
-0.0189833

>  <SCORE.INTRA>
-1.09514

>  <SCORE.INTRA.DIHEDRAL>
-1.09965

>  <SCORE.INTRA.DIHEDRAL.0>
2.61549

>  <SCORE.INTRA.POLAR>
0

>  <SCORE.INTRA.POLAR.0>
0

>  <SCORE.INTRA.REPUL>
0

>  <SCORE.INTRA.REPUL.0>
0

>  <SCORE.INTRA.SOLV>
-0.195925

>  <SCORE.INTRA.SOLV.lig_0>
-73.766

>  <SCORE.INTRA.VDW>
-0.447354

>  <SCORE.INTRA.VDW.0>
-1.95055

>  <SCORE.INTRA.norm>
-0.0497791

>  <SCORE.RESTR>
0

>  <SCORE.RESTR.CAVITY>
0

>  <SCORE.RESTR.norm>
0

>  <SCORE.SYSTEM>
0

>  <SCORE.SYSTEM.CONST>
0

>  <SCORE.SYSTEM.DIHEDRAL>
0

>  <SCORE.SYSTEM.SOLV>
0

>  <SCORE.SYSTEM.norm>
0

>  <SCORE.heavy>
22

>  <SCORE.norm>
-0.0687625

>  <RMSD>
1.061

$$$$
ligand
 OpenBabel11021811513D
libRbt.so/2013.1/901 2013/11/27
 22 23  0  0  0  0  0  0  0  0999 V2000
   29.1811   -3.6867  106.8729 N   0  0  0  0  0  0  0  0  0  0  0  0
   25.9330   -4.5691  106.2556 C   0  0  1  0  0  0  0  0  0  0  0  0
   26.8522   -3.8297  107.1331 O   0  0  0  0  0  0  0  0  0  0  0  0
   25.5989   -7.7291  108.3790 P   0  0  2  0  0  0  0  0  0  0  0  0
   27.9496   -3.3467  106.3034 C   0  0  2  0  0  0  0  0  0  0  0  0
   30.7579   -4.8287  107.8836 N   0  0  0  0  0  0  0  0  0  0  0  0
   28.2030   -3.0981  103.9388 O   0  0  0  0  0  0  0  0  0  0  0  0
   27.7984   -3.9935  104.9851 C   0  0  2  0  0  0  0  0  0  0  0  0
   33.5449   -3.9919  108.5415 N   0  0  0  0  0  0  0  0  0  0  0  0
   25.6669   -3.1586  104.3503 O   0  0  0  0  0  0  0  0  0  0  0  0
   26.3691   -4.3059  104.8773 C   0  0  2  0  0  0  0  0  0  0  0  0
   31.2645   -3.6208  107.5685 C   0  0  0  0  0  0  0  0  0  0  0  0
   30.3895   -1.5583  106.4299 N   0  0  0  0  0  0  0  0  0  0  0  0
   25.6108   -6.2563  107.8546 O   0  0  0  0  0  0  0  0  0  0  0  0
   26.0228   -6.0217  106.5427 C   0  0  0  0  0  0  0  0  0  0  0  0
   27.0371   -8.3764  108.2047 O   0  0  0  0  0  0  0  0  0  0  0  0
   29.4756   -4.8530  107.4488 C   0  0  0  0  0  0  0  0  0  0  0  0
   33.0076   -2.0289  107.5185 O   0  0  0  0  0  0  0  0  0  0  0  0
   32.6552   -3.1536  107.8647 C   0  0  0  0  0  0  0  0  0  0  0  0
   30.2769   -2.8853  106.9292 C   0  0  0  0  0  0  0  0  0  0  0  0
   24.5632   -8.5350  107.6943 O   0  5  0  0  0  0  0  0  0  0  0  0
   25.1527   -7.7955  109.7970 O   0  0  0  0  0  0  0  0  0  0  0  0
  1 17  1  0  0  0  0
  1 20  1  0  0  0  0
  2 15  1  1  0  0  0
  2  3  1  0  0  0  0
  2 11  1  0  0  0  0
  3  5  1  0  0  0  0
  4 16  1  6  0  0  0
  4 21  1  0  0  0  0
  4 22  2  0  0  0  0
  4 14  1  0  0  0  0
  5  1  1  1  0  0  0
  5  8  1  0  0  0  0
  6 17  2  0  0  0  0
  6 12  1  0  0  0  0
  8  7  1  6  0  0  0
  8 11  1  0  0  0  0
  9 19  1  0  0  0  0
 11 10  1  1  0  0  0
 12 20  2  0  0  0  0
 12 19  1  0  0  0  0
 13 20  1  0  0  0  0
 14 15  1  0  0  0  0
 18 19  2  0  0  0  0
M  CHG  1  21  -1
M  END
>  <CHROM.1>
41.11474499,62.98099968,55.81894803,179.04791956,-0.99788564,28.08043173
-4.84753067,107.05313129,0.50691009,-0.38019567,-0.74772029

>  <Name>
ligand

>  <RI>
0

>  <Rbt.Current_Directory>
/home/itssahil/PROJECTS/Mol_Feturizer/New_Systems/rnas/4XW7

>  <Rbt.Executable>
rbdock ($Id: //depot/dev/client3/rdock/2013.1/src/exe/rbdock.cxx#4 $)

>  <Rbt.Library>
libRbt.so (2013.1, Build901 2013/11/27)

>  <Rbt.Parameter_File>
/export/apps/rDock/src/rDock_2013.1_src/data/scripts/dock_solv.prm

>  <Rbt.Receptor>
prm/pocket_docking_2.prm

>  <SCORE>
-1.50494

>  <SCORE.INTER>
-0.421778

>  <SCORE.INTER.CONST>
1

>  <SCORE.INTER.POLAR>
0

>  <SCORE.INTER.ROT>
5

>  <SCORE.INTER.SOLV>
8.64352

>  <SCORE.INTER.VDW>
-10.0957

>  <SCORE.INTER.norm>
-0.0191717

>  <SCORE.INTRA>
-1.08316

>  <SCORE.INTRA.DIHEDRAL>
-1.07129

>  <SCORE.INTRA.DIHEDRAL.0>
2.61549

>  <SCORE.INTRA.POLAR>
0

>  <SCORE.INTRA.POLAR.0>
0

>  <SCORE.INTRA.REPUL>
0

>  <SCORE.INTRA.REPUL.0>
0

>  <SCORE.INTRA.SOLV>
-0.209405

>  <SCORE.INTRA.SOLV.lig_0>
-73.766

>  <SCORE.INTRA.VDW>
-0.442817

>  <SCORE.INTRA.VDW.0>
-1.95055

>  <SCORE.INTRA.norm>
-0.0492347

>  <SCORE.RESTR>
0

>  <SCORE.RESTR.CAVITY>
0

>  <SCORE.RESTR.norm>
0

>  <SCORE.SYSTEM>
0

>  <SCORE.SYSTEM.CONST>
0

>  <SCORE.SYSTEM.DIHEDRAL>
0

>  <SCORE.SYSTEM.SOLV>
0

>  <SCORE.SYSTEM.norm>
0

>  <SCORE.heavy>
22

>  <SCORE.norm>
-0.0684064

>  <RMSD>
1.062

$$$$
ligand
 OpenBabel11021811513D
libRbt.so/2013.1/901 2013/11/27
 22 23  0  0  0  0  0  0  0  0999 V2000
   29.2116   -3.6407  106.9111 N   0  0  0  0  0  0  0  0  0  0  0  0
   25.9552   -4.5421  106.3697 C   0  0  1  0  0  0  0  0  0  0  0  0
   26.8944   -3.8224  107.2422 O   0  0  0  0  0  0  0  0  0  0  0  0
   25.6071   -7.7953  108.3448 P   0  0  2  0  0  0  0  0  0  0  0  0
   27.9580   -3.2966  106.3946 C   0  0  2  0  0  0  0  0  0  0  0  0
   30.8323   -4.7951  107.8344 N   0  0  0  0  0  0  0  0  0  0  0  0
   28.1299   -2.9619  104.0334 O   0  0  0  0  0  0  0  0  0  0  0  0
   27.7707   -3.8986  105.0599 C   0  0  2  0  0  0  0  0  0  0  0  0
   33.6521   -3.9723  108.3575 N   0  0  0  0  0  0  0  0  0  0  0  0
   25.6097   -3.0692  104.5253 O   0  0  0  0  0  0  0  0  0  0  0  0
   26.3422   -4.2252  104.9879 C   0  0  2  0  0  0  0  0  0  0  0  0
   31.3177   -3.5747  107.5344 C   0  0  0  0  0  0  0  0  0  0  0  0
   30.3864   -1.4904  106.4836 N   0  0  0  0  0  0  0  0  0  0  0  0
   25.6090   -6.3015  107.8836 O   0  0  0  0  0  0  0  0  0  0  0  0
   26.0713   -6.0027  106.6019 C   0  0  0  0  0  0  0  0  0  0  0  0
   25.0501   -7.9026  109.8268 O   0  0  0  0  0  0  0  0  0  0  0  0
   29.5357   -4.8192  107.4444 C   0  0  0  0  0  0  0  0  0  0  0  0
   33.0293   -1.9483  107.5183 O   0  0  0  0  0  0  0  0  0  0  0  0
   32.7143   -3.1032  107.7941 C   0  0  0  0  0  0  0  0  0  0  0  0
   30.3023   -2.8313  106.9505 C   0  0  0  0  0  0  0  0  0  0  0  0
   26.9570   -8.3930  108.2363 O   0  5  0  0  0  0  0  0  0  0  0  0
   24.8177   -8.6481  107.4155 O   0  0  0  0  0  0  0  0  0  0  0  0
  1 17  1  0  0  0  0
  1 20  1  0  0  0  0
  2 15  1  6  0  0  0
  2  3  1  0  0  0  0
  2 11  1  0  0  0  0
  3  5  1  0  0  0  0
  4 16  1  1  0  0  0
  4 21  1  0  0  0  0
  4 22  2  0  0  0  0
  4 14  1  0  0  0  0
  5  1  1  1  0  0  0
  5  8  1  0  0  0  0
  6 17  2  0  0  0  0
  6 12  1  0  0  0  0
  8  7  1  6  0  0  0
  8 11  1  0  0  0  0
  9 19  1  0  0  0  0
 11 10  1  1  0  0  0
 12 20  2  0  0  0  0
 12 19  1  0  0  0  0
 13 20  1  0  0  0  0
 14 15  1  0  0  0  0
 18 19  2  0  0  0  0
M  CHG  1  21  -1
M  END
>  <CHROM.1>
40.57450645,67.48226299,179.79578104,178.75197877,2.07960989,28.09860865
-4.82758532,107.06791601,0.53358481,-0.36499552,-0.70167825

>  <Name>
ligand

>  <RI>
0

>  <Rbt.Current_Directory>
/home/itssahil/PROJECTS/Mol_Feturizer/New_Systems/rnas/4XW7

>  <Rbt.Executable>
rbdock ($Id: //depot/dev/client3/rdock/2013.1/src/exe/rbdock.cxx#4 $)

>  <Rbt.Library>
libRbt.so (2013.1, Build901 2013/11/27)

>  <Rbt.Parameter_File>
/export/apps/rDock/src/rDock_2013.1_src/data/scripts/dock_solv.prm

>  <Rbt.Receptor>
prm/pocket_docking_2.prm

>  <SCORE>
-1.09427

>  <SCORE.INTER>
-0.542705

>  <SCORE.INTER.CONST>
1

>  <SCORE.INTER.POLAR>
0

>  <SCORE.INTER.ROT>
5

>  <SCORE.INTER.SOLV>
8.92914

>  <SCORE.INTER.VDW>
-10.2715

>  <SCORE.INTER.norm>
-0.0246684

>  <SCORE.INTRA>
-0.554244

>  <SCORE.INTRA.DIHEDRAL>
-0.922157

>  <SCORE.INTRA.DIHEDRAL.0>
2.61549

>  <SCORE.INTRA.POLAR>
0

>  <SCORE.INTRA.POLAR.0>
0

>  <SCORE.INTRA.REPUL>
0

>  <SCORE.INTRA.REPUL.0>
0

>  <SCORE.INTRA.SOLV>
0.441634

>  <SCORE.INTRA.SOLV.lig_0>
-73.766

>  <SCORE.INTRA.VDW>
-0.313983

>  <SCORE.INTRA.VDW.0>
-1.95055

>  <SCORE.INTRA.norm>
-0.0251929

>  <SCORE.RESTR>
0.00268106

>  <SCORE.RESTR.CAVITY>
0.00268106

>  <SCORE.RESTR.norm>
0.000121866

>  <SCORE.SYSTEM>
0

>  <SCORE.SYSTEM.CONST>
0

>  <SCORE.SYSTEM.DIHEDRAL>
0

>  <SCORE.SYSTEM.SOLV>
0

>  <SCORE.SYSTEM.norm>
0

>  <SCORE.heavy>
22

>  <SCORE.norm>
-0.0497395

>  <RMSD>
1.064

$$$$
ligand
 OpenBabel11021811513D
libRbt.so/2013.1/901 2013/11/27
 22 23  0  0  0  0  0  0  0  0999 V2000
   29.1563   -3.7180  106.9083 N   0  0  0  0  0  0  0  0  0  0  0  0
   25.9047   -4.6185  106.3378 C   0  0  1  0  0  0  0  0  0  0  0  0
   26.8321   -3.8729  107.2011 O   0  0  0  0  0  0  0  0  0  0  0  0
   25.5995   -7.7792  108.4644 P   0  0  2  0  0  0  0  0  0  0  0  0
   27.9152   -3.3854  106.3554 C   0  0  2  0  0  0  0  0  0  0  0  0
   30.7550   -4.8522  107.8930 N   0  0  0  0  0  0  0  0  0  0  0  0
   28.1343   -3.1392  103.9872 O   0  0  0  0  0  0  0  0  0  0  0  0
   27.7491   -4.0351  105.0404 C   0  0  2  0  0  0  0  0  0  0  0  0
   33.5411   -3.9934  108.5262 N   0  0  0  0  0  0  0  0  0  0  0  0
   25.6045   -3.2125  104.4342 O   0  0  0  0  0  0  0  0  0  0  0  0
   26.3200   -4.3553  104.9530 C   0  0  2  0  0  0  0  0  0  0  0  0
   31.2471   -3.6378  107.5796 C   0  0  0  0  0  0  0  0  0  0  0  0
   30.3405   -1.5762  106.4646 N   0  0  0  0  0  0  0  0  0  0  0  0
   25.6019   -6.3065  107.9397 O   0  0  0  0  0  0  0  0  0  0  0  0
   26.0061   -6.0702  106.6258 C   0  0  0  0  0  0  0  0  0  0  0  0
   27.0430   -8.4158  108.2943 O   0  0  0  0  0  0  0  0  0  0  0  0
   29.4680   -4.8851  107.4732 C   0  0  0  0  0  0  0  0  0  0  0  0
   32.9763   -2.0312  107.5166 O   0  0  0  0  0  0  0  0  0  0  0  0
   32.6371   -3.1601  107.8623 C   0  0  0  0  0  0  0  0  0  0  0  0
   30.2456   -2.9072  106.9567 C   0  0  0  0  0  0  0  0  0  0  0  0
   24.5718   -8.5930  107.7770 O   0  5  0  0  0  0  0  0  0  0  0  0
   25.1498   -7.8487  109.8811 O   0  0  0  0  0  0  0  0  0  0  0  0
  1 17  1  0  0  0  0
  1 20  1  0  0  0  0
  2 15  1  1  0  0  0
  2  3  1  0  0  0  0
  2 11  1  0  0  0  0
  3  5  1  0  0  0  0
  4 16  1  6  0  0  0
  4 21  1  0  0  0  0
  4 22  2  0  0  0  0
  4 14  1  0  0  0  0
  5  1  1  1  0  0  0
  5  8  1  0  0  0  0
  6 17  2  0  0  0  0
  6 12  1  0  0  0  0
  8  7  1  6  0  0  0
  8 11  1  0  0  0  0
  9 19  1  0  0  0  0
 11 10  1  1  0  0  0
 12 20  2  0  0  0  0
 12 19  1  0  0  0  0
 13 20  1  0  0  0  0
 14 15  1  0  0  0  0
 18 19  2  0  0  0  0
M  CHG  1  21  -1
M  END
>  <CHROM.1>
41.62518415,63.53090072,56.29532932,178.89640787,-1.15756579,28.05852283
-4.88397400,107.10639992,0.51952385,-0.37510571,-0.74393144

>  <Name>
ligand

>  <RI>
0

>  <Rbt.Current_Directory>
/home/itssahil/PROJECTS/Mol_Feturizer/New_Systems/rnas/4XW7

>  <Rbt.Executable>
rbdock ($Id: //depot/dev/client3/rdock/2013.1/src/exe/rbdock.cxx#4 $)

>  <Rbt.Library>
libRbt.so (2013.1, Build901 2013/11/27)

>  <Rbt.Parameter_File>
/export/apps/rDock/src/rDock_2013.1_src/data/scripts/dock_solv.prm

>  <Rbt.Receptor>
prm/pocket_docking_2.prm

>  <SCORE>
-1.52217

>  <SCORE.INTER>
-0.437527

>  <SCORE.INTER.CONST>
1

>  <SCORE.INTER.POLAR>
0

>  <SCORE.INTER.ROT>
5

>  <SCORE.INTER.SOLV>
8.40184

>  <SCORE.INTER.VDW>
-10.0256

>  <SCORE.INTER.norm>
-0.0198876

>  <SCORE.INTRA>
-1.08465

>  <SCORE.INTRA.DIHEDRAL>
-1.06214

>  <SCORE.INTRA.DIHEDRAL.0>
2.61549

>  <SCORE.INTRA.POLAR>
0

>  <SCORE.INTRA.POLAR.0>
0

>  <SCORE.INTRA.REPUL>
0

>  <SCORE.INTRA.REPUL.0>
0

>  <SCORE.INTRA.SOLV>
-0.223592

>  <SCORE.INTRA.SOLV.lig_0>
-73.766

>  <SCORE.INTRA.VDW>
-0.441781

>  <SCORE.INTRA.VDW.0>
-1.95055

>  <SCORE.INTRA.norm>
-0.0493021

>  <SCORE.RESTR>
0

>  <SCORE.RESTR.CAVITY>
0

>  <SCORE.RESTR.norm>
0

>  <SCORE.SYSTEM>
0

>  <SCORE.SYSTEM.CONST>
0

>  <SCORE.SYSTEM.DIHEDRAL>
0

>  <SCORE.SYSTEM.SOLV>
0

>  <SCORE.SYSTEM.norm>
0

>  <SCORE.heavy>
22

>  <SCORE.norm>
-0.0691897

>  <RMSD>
1.073

$$$$
ligand
 OpenBabel11021811513D
libRbt.so/2013.1/901 2013/11/27
 22 23  0  0  0  0  0  0  0  0999 V2000
   29.3133   -3.7202  106.9970 N   0  0  0  0  0  0  0  0  0  0  0  0
   26.0674   -4.5437  106.2927 C   0  0  1  0  0  0  0  0  0  0  0  0
   26.9815   -3.8697  107.2262 O   0  0  0  0  0  0  0  0  0  0  0  0
   25.5880   -7.8512  108.1466 P   0  0  2  0  0  0  0  0  0  0  0  0
   28.0884   -3.3367  106.4409 C   0  0  2  0  0  0  0  0  0  0  0  0
   30.8697   -4.9289  107.9606 N   0  0  0  0  0  0  0  0  0  0  0  0
   28.3644   -2.9297  104.1010 O   0  0  0  0  0  0  0  0  0  0  0  0
   27.9467   -3.8920  105.0806 C   0  0  2  0  0  0  0  0  0  0  0  0
   33.0277   -2.0227  108.5635 N   0  0  0  0  0  0  0  0  0  0  0  0
   25.8244   -3.0062  104.4850 O   0  0  0  0  0  0  0  0  0  0  0  0
   26.5171   -4.1898  104.9392 C   0  0  2  0  0  0  0  0  0  0  0  0
   31.3963   -3.7173  107.6967 C   0  0  0  0  0  0  0  0  0  0  0  0
   30.5567   -1.5951  106.6444 N   0  0  0  0  0  0  0  0  0  0  0  0
   25.6183   -6.3451  107.7280 O   0  0  0  0  0  0  0  0  0  0  0  0
   26.1487   -6.0128  106.4815 C   0  0  0  0  0  0  0  0  0  0  0  0
   24.7577   -8.6902  107.0862 O   0  0  0  0  0  0  0  0  0  0  0  0
   29.5879   -4.9141  107.5238 C   0  0  0  0  0  0  0  0  0  0  0  0
   33.7336   -4.0416  107.7801 O   0  0  0  0  0  0  0  0  0  0  0  0
   32.7940   -3.2856  108.0135 C   0  0  0  0  0  0  0  0  0  0  0  0
   30.4219   -2.9398  107.0877 C   0  0  0  0  0  0  0  0  0  0  0  0
   25.0377   -8.0189  109.5105 O   0  5  0  0  0  0  0  0  0  0  0  0
   26.9632   -8.3983  108.3005 O   0  0  0  0  0  0  0  0  0  0  0  0
  1 17  1  0  0  0  0
  1 20  1  0  0  0  0
  2 15  1  6  0  0  0
  2  3  1  0  0  0  0
  2 11  1  0  0  0  0
  3  5  1  0  0  0  0
  4 16  1  6  0  0  0
  4 21  1  0  0  0  0
  4 22  2  0  0  0  0
  4 14  1  0  0  0  0
  5  1  1  1  0  0  0
  5  8  1  0  0  0  0
  6 17  2  0  0  0  0
  6 12  1  0  0  0  0
  8  7  1  6  0  0  0
  8 11  1  0  0  0  0
  9 19  1  0  0  0  0
 11 10  1  1  0  0  0
 12 20  2  0  0  0  0
 12 19  1  0  0  0  0
 13 20  1  0  0  0  0
 14 15  1  0  0  0  0
 18 19  2  0  0  0  0
M  CHG  1  21  -1
M  END
>  <CHROM.1>
39.41840636,67.96114759,-58.30148685,179.58299578,-136.41423109,28.17975376
-4.89261325,107.06572791,0.48792448,-0.38281132,-0.68385426

>  <Name>
ligand

>  <RI>
0

>  <Rbt.Current_Directory>
/home/itssahil/PROJECTS/Mol_Feturizer/New_Systems/rnas/4XW7

>  <Rbt.Executable>
rbdock ($Id: //depot/dev/client3/rdock/2013.1/src/exe/rbdock.cxx#4 $)

>  <Rbt.Library>
libRbt.so (2013.1, Build901 2013/11/27)

>  <Rbt.Parameter_File>
/export/apps/rDock/src/rDock_2013.1_src/data/scripts/dock_solv.prm

>  <Rbt.Receptor>
prm/pocket_docking_2.prm

>  <SCORE>
-1.44379

>  <SCORE.INTER>
-0.560089

>  <SCORE.INTER.CONST>
1

>  <SCORE.INTER.POLAR>
0

>  <SCORE.INTER.ROT>
5

>  <SCORE.INTER.SOLV>
8.43362

>  <SCORE.INTER.VDW>
-10.1179

>  <SCORE.INTER.norm>
-0.0254586

>  <SCORE.INTRA>
-0.883705

>  <SCORE.INTRA.DIHEDRAL>
-0.619244

>  <SCORE.INTRA.DIHEDRAL.0>
2.61549

>  <SCORE.INTRA.POLAR>
0

>  <SCORE.INTRA.POLAR.0>
0

>  <SCORE.INTRA.REPUL>
0

>  <SCORE.INTRA.REPUL.0>
0

>  <SCORE.INTRA.SOLV>
-0.0643241

>  <SCORE.INTRA.SOLV.lig_0>
-73.766

>  <SCORE.INTRA.VDW>
-0.541921

>  <SCORE.INTRA.VDW.0>
-1.95055

>  <SCORE.INTRA.norm>
-0.0401684

>  <SCORE.RESTR>
0

>  <SCORE.RESTR.CAVITY>
0

>  <SCORE.RESTR.norm>
0

>  <SCORE.SYSTEM>
0

>  <SCORE.SYSTEM.CONST>
0

>  <SCORE.SYSTEM.DIHEDRAL>
0

>  <SCORE.SYSTEM.SOLV>
0

>  <SCORE.SYSTEM.norm>
0

>  <SCORE.heavy>
22

>  <SCORE.norm>
-0.065627

>  <RMSD>
1.111

$$$$
ligand
 OpenBabel11021811513D
libRbt.so/2013.1/901 2013/11/27
 22 23  0  0  0  0  0  0  0  0999 V2000
   29.3807   -3.6602  106.9617 N   0  0  0  0  0  0  0  0  0  0  0  0
   26.0572   -4.4708  106.8778 C   0  0  1  0  0  0  0  0  0  0  0  0
   27.0877   -3.6003  107.4623 O   0  0  0  0  0  0  0  0  0  0  0  0
   24.9798   -8.0873  107.4834 P   0  0  2  0  0  0  0  0  0  0  0  0
   28.1095   -3.3928  106.4430 C   0  0  2  0  0  0  0  0  0  0  0  0
   31.0546   -4.7006  107.9246 N   0  0  0  0  0  0  0  0  0  0  0  0
   28.1250   -3.7261  104.0753 O   0  0  0  0  0  0  0  0  0  0  0  0
   27.7999   -4.3231  105.3395 C   0  0  2  0  0  0  0  0  0  0  0  0
   33.0509   -1.5904  108.0790 N   0  0  0  0  0  0  0  0  0  0  0  0
   25.6446   -3.5382  104.7213 O   0  0  0  0  0  0  0  0  0  0  0  0
   26.3570   -4.5675  105.4425 C   0  0  2  0  0  0  0  0  0  0  0  0
   31.4886   -3.4798  107.5554 C   0  0  0  0  0  0  0  0  0  0  0  0
   30.4656   -1.4916  106.4082 N   0  0  0  0  0  0  0  0  0  0  0  0
   25.1003   -6.6111  106.9829 O   0  0  0  0  0  0  0  0  0  0  0  0
   26.1252   -5.8170  107.4974 C   0  0  0  0  0  0  0  0  0  0  0  0
   24.8203   -8.1114  109.0619 O   0  0  0  0  0  0  0  0  0  0  0  0
   29.7562   -4.7955  107.5521 C   0  0  0  0  0  0  0  0  0  0  0  0
   33.8375   -3.6893  107.6736 O   0  0  0  0  0  0  0  0  0  0  0  0
   32.8681   -2.9414  107.7733 C   0  0  0  0  0  0  0  0  0  0  0  0
   30.4389   -2.8082  106.9456 C   0  0  0  0  0  0  0  0  0  0  0  0
   26.1403   -8.8980  107.0507 O   0  5  0  0  0  0  0  0  0  0  0  0
   23.8484   -8.7926  106.8224 O   0  0  0  0  0  0  0  0  0  0  0  0
  1 17  1  0  0  0  0
  1 20  1  0  0  0  0
  2 15  1  1  0  0  0
  2  3  1  0  0  0  0
  2 11  1  0  0  0  0
  3  5  1  0  0  0  0
  4 16  1  1  0  0  0
  4 21  1  0  0  0  0
  4 22  2  0  0  0  0
  4 14  1  0  0  0  0
  5  1  1  1  0  0  0
  5  8  1  0  0  0  0
  6 17  2  0  0  0  0
  6 12  1  0  0  0  0
  8  7  1  6  0  0  0
  8 11  1  0  0  0  0
  9 19  1  0  0  0  0
 11 10  1  6  0  0  0
 12 20  2  0  0  0  0
 12 19  1  0  0  0  0
 13 20  1  0  0  0  0
 14 15  1  0  0  0  0
 18 19  2  0  0  0  0
M  CHG  1  21  -1
M  END
>  <CHROM.1>
54.90908864,177.04154239,57.30542922,179.45962951,-143.67163303,28.00037177
-4.95343209,106.93313556,0.48262616,-0.38051169,-0.59660964

>  <Name>
ligand

>  <RI>
0

>  <Rbt.Current_Directory>
/home/itssahil/PROJECTS/Mol_Feturizer/New_Systems/rnas/4XW7

>  <Rbt.Executable>
rbdock ($Id: //depot/dev/client3/rdock/2013.1/src/exe/rbdock.cxx#4 $)

>  <Rbt.Library>
libRbt.so (2013.1, Build901 2013/11/27)

>  <Rbt.Parameter_File>
/export/apps/rDock/src/rDock_2013.1_src/data/scripts/dock_solv.prm

>  <Rbt.Receptor>
prm/pocket_docking_2.prm

>  <SCORE>
-1.46051

>  <SCORE.INTER>
-0.862495

>  <SCORE.INTER.CONST>
1

>  <SCORE.INTER.POLAR>
0

>  <SCORE.INTER.ROT>
5

>  <SCORE.INTER.SOLV>
9.614

>  <SCORE.INTER.VDW>
-10.713

>  <SCORE.INTER.norm>
-0.0392043

>  <SCORE.INTRA>
-0.598015

>  <SCORE.INTRA.DIHEDRAL>
-0.541513

>  <SCORE.INTRA.DIHEDRAL.0>
2.61549

>  <SCORE.INTRA.POLAR>
0

>  <SCORE.INTRA.POLAR.0>
0

>  <SCORE.INTRA.REPUL>
0

>  <SCORE.INTRA.REPUL.0>
0

>  <SCORE.INTRA.SOLV>
-0.300457

>  <SCORE.INTRA.SOLV.lig_0>
-73.766

>  <SCORE.INTRA.VDW>
-0.17703

>  <SCORE.INTRA.VDW.0>
-1.95055

>  <SCORE.INTRA.norm>
-0.0271825

>  <SCORE.RESTR>
0

>  <SCORE.RESTR.CAVITY>
0

>  <SCORE.RESTR.norm>
0

>  <SCORE.SYSTEM>
0

>  <SCORE.SYSTEM.CONST>
0

>  <SCORE.SYSTEM.DIHEDRAL>
0

>  <SCORE.SYSTEM.SOLV>
0

>  <SCORE.SYSTEM.norm>
0

>  <SCORE.heavy>
22

>  <SCORE.norm>
-0.0663868

>  <RMSD>
1.150

$$$$
ligand
 OpenBabel11021811513D
libRbt.so/2013.1/901 2013/11/27
 22 23  0  0  0  0  0  0  0  0999 V2000
   29.3606   -3.6605  106.9803 N   0  0  0  0  0  0  0  0  0  0  0  0
   26.0490   -4.5103  106.8360 C   0  0  1  0  0  0  0  0  0  0  0  0
   27.0664   -3.6656  107.4786 O   0  0  0  0  0  0  0  0  0  0  0  0
   24.9464   -8.1400  107.2996 P   0  0  2  0  0  0  0  0  0  0  0  0
   28.0865   -3.3774  106.4774 C   0  0  2  0  0  0  0  0  0  0  0  0
   31.0353   -4.7236  107.9169 N   0  0  0  0  0  0  0  0  0  0  0  0
   28.1098   -3.5545  104.0930 O   0  0  0  0  0  0  0  0  0  0  0  0
   27.7915   -4.2376  105.3146 C   0  0  2  0  0  0  0  0  0  0  0  0
   33.0604   -1.6359  108.0880 N   0  0  0  0  0  0  0  0  0  0  0  0
   25.6262   -3.4441  104.7444 O   0  0  0  0  0  0  0  0  0  0  0  0
   26.3520   -4.5084  105.3981 C   0  0  2  0  0  0  0  0  0  0  0  0
   31.4763   -3.5038  107.5527 C   0  0  0  0  0  0  0  0  0  0  0  0
   30.4593   -1.4973  106.4324 N   0  0  0  0  0  0  0  0  0  0  0  0
   25.0793   -6.6472  106.8545 O   0  0  0  0  0  0  0  0  0  0  0  0
   26.1353   -5.8931  107.3662 C   0  0  0  0  0  0  0  0  0  0  0  0
   26.2624   -8.9382  106.9136 O   0  0  0  0  0  0  0  0  0  0  0  0
   29.7321   -4.8038  107.5575 C   0  0  0  0  0  0  0  0  0  0  0  0
   33.8251   -3.7326  107.6321 O   0  0  0  0  0  0  0  0  0  0  0  0
   32.8629   -2.9797  107.7600 C   0  0  0  0  0  0  0  0  0  0  0  0
   30.4264   -2.8179  106.9595 C   0  0  0  0  0  0  0  0  0  0  0  0
   23.7451   -8.7720  106.7091 O   0  5  0  0  0  0  0  0  0  0  0  0
   24.6657   -8.2478  108.7569 O   0  0  0  0  0  0  0  0  0  0  0  0
  1 17  1  0  0  0  0
  1 20  1  0  0  0  0
  2 15  1  1  0  0  0
  2  3  1  0  0  0  0
  2 11  1  0  0  0  0
  3  5  1  0  0  0  0
  4 16  1  6  0  0  0
  4 21  1  0  0  0  0
  4 22  2  0  0  0  0
  4 14  1  0  0  0  0
  5  1  1  1  0  0  0
  5  8  1  0  0  0  0
  6 17  2  0  0  0  0
  6 12  1  0  0  0  0
  8  7  1  6  0  0  0
  8 11  1  0  0  0  0
  9 19  1  0  0  0  0
 11 10  1  6  0  0  0
 12 20  2  0  0  0  0
 12 19  1  0  0  0  0
 13 20  1  0  0  0  0
 14 15  1  0  0  0  0
 18 19  2  0  0  0  0
M  CHG  1  21  -1
M  END
>  <CHROM.1>
51.28151237,173.85888382,-58.75694582,-178.80315747,-143.01471072,27.98148153
-4.96467990,106.87673328,0.49058327,-0.37109889,-0.54782012

>  <Name>
ligand

>  <RI>
0

>  <Rbt.Current_Directory>
/home/itssahil/PROJECTS/Mol_Feturizer/New_Systems/rnas/4XW7

>  <Rbt.Executable>
rbdock ($Id: //depot/dev/client3/rdock/2013.1/src/exe/rbdock.cxx#4 $)

>  <Rbt.Library>
libRbt.so (2013.1, Build901 2013/11/27)

>  <Rbt.Parameter_File>
/export/apps/rDock/src/rDock_2013.1_src/data/scripts/dock_solv.prm

>  <Rbt.Receptor>
prm/pocket_docking_2.prm

>  <SCORE>
-1.49822

>  <SCORE.INTER>
-0.86746

>  <SCORE.INTER.CONST>
1

>  <SCORE.INTER.POLAR>
0

>  <SCORE.INTER.ROT>
5

>  <SCORE.INTER.SOLV>
9.45812

>  <SCORE.INTER.VDW>
-10.6643

>  <SCORE.INTER.norm>
-0.03943

>  <SCORE.INTRA>
-0.631052

>  <SCORE.INTRA.DIHEDRAL>
-0.474006

>  <SCORE.INTRA.DIHEDRAL.0>
2.61549

>  <SCORE.INTRA.POLAR>
0

>  <SCORE.INTRA.POLAR.0>
0

>  <SCORE.INTRA.REPUL>
0

>  <SCORE.INTRA.REPUL.0>
0

>  <SCORE.INTRA.SOLV>
-0.243144

>  <SCORE.INTRA.SOLV.lig_0>
-73.766

>  <SCORE.INTRA.VDW>
-0.272476

>  <SCORE.INTRA.VDW.0>
-1.95055

>  <SCORE.INTRA.norm>
-0.0286842

>  <SCORE.RESTR>
0.000296365

>  <SCORE.RESTR.CAVITY>
0.000296365

>  <SCORE.RESTR.norm>
1.34712e-05

>  <SCORE.SYSTEM>
0

>  <SCORE.SYSTEM.CONST>
0

>  <SCORE.SYSTEM.DIHEDRAL>
0

>  <SCORE.SYSTEM.SOLV>
0

>  <SCORE.SYSTEM.norm>
0

>  <SCORE.heavy>
22

>  <SCORE.norm>
-0.0681007

>  <RMSD>
1.165

$$$$
ligand
 OpenBabel11021811513D
libRbt.so/2013.1/901 2013/11/27
 22 23  0  0  0  0  0  0  0  0999 V2000
   29.3538   -3.6677  106.9988 N   0  0  0  0  0  0  0  0  0  0  0  0
   26.0440   -4.5303  106.8933 C   0  0  1  0  0  0  0  0  0  0  0  0
   27.0646   -3.6776  107.5200 O   0  0  0  0  0  0  0  0  0  0  0  0
   24.9733   -8.1675  107.3703 P   0  0  2  0  0  0  0  0  0  0  0  0
   28.0737   -3.3927  106.5067 C   0  0  2  0  0  0  0  0  0  0  0  0
   31.0456   -4.7237  107.9124 N   0  0  0  0  0  0  0  0  0  0  0  0
   28.0740   -3.5862  104.1235 O   0  0  0  0  0  0  0  0  0  0  0  0
   27.7703   -4.2620  105.3528 C   0  0  2  0  0  0  0  0  0  0  0  0
   33.0375   -1.6128  108.0995 N   0  0  0  0  0  0  0  0  0  0  0  0
   25.5966   -3.4801  104.7988 O   0  0  0  0  0  0  0  0  0  0  0  0
   26.3328   -4.5373  105.4526 C   0  0  2  0  0  0  0  0  0  0  0  0
   31.4708   -3.4945  107.5615 C   0  0  0  0  0  0  0  0  0  0  0  0
   30.4250   -1.4855  106.4727 N   0  0  0  0  0  0  0  0  0  0  0  0
   25.1098   -6.6831  106.8990 O   0  0  0  0  0  0  0  0  0  0  0  0
   26.1406   -5.9091  107.4321 C   0  0  0  0  0  0  0  0  0  0  0  0
   24.8262   -8.2219  108.9493 O   0  0  0  0  0  0  0  0  0  0  0  0
   29.7413   -4.8141  107.5593 C   0  0  0  0  0  0  0  0  0  0  0  0
   33.8218   -3.7005  107.6358 O   0  0  0  0  0  0  0  0  0  0  0  0
   32.8526   -2.9574  107.7678 C   0  0  0  0  0  0  0  0  0  0  0  0
   30.4099   -2.8130  106.9830 C   0  0  0  0  0  0  0  0  0  0  0  0
   26.1193   -8.9845  106.9115 O   0  5  0  0  0  0  0  0  0  0  0  0
   23.8274   -8.8440  106.7045 O   0  0  0  0  0  0  0  0  0  0  0  0
  1 17  1  0  0  0  0
  1 20  1  0  0  0  0
  2 15  1  1  0  0  0
  2  3  1  0  0  0  0
  2 11  1  0  0  0  0
  3  5  1  0  0  0  0
  4 16  1  1  0  0  0
  4 21  1  0  0  0  0
  4 22  2  0  0  0  0
  4 14  1  0  0  0  0
  5  1  1  1  0  0  0
  5  8  1  0  0  0  0
  6 17  2  0  0  0  0
  6 12  1  0  0  0  0
  8  7  1  6  0  0  0
  8 11  1  0  0  0  0
  9 19  1  0  0  0  0
 11 10  1  6  0  0  0
 12 20  2  0  0  0  0
 12 19  1  0  0  0  0
 13 20  1  0  0  0  0
 14 15  1  0  0  0  0
 18 19  2  0  0  0  0
M  CHG  1  21  -1
M  END
>  <CHROM.1>
52.51627234,175.94156807,56.61632009,-177.56541942,-143.61621293,27.98174171
-4.97787554,106.91512645,0.49810566,-0.37494451,-0.55197426

>  <Name>
ligand

>  <RI>
0

>  <Rbt.Current_Directory>
/home/itssahil/PROJECTS/Mol_Feturizer/New_Systems/rnas/4XW7

>  <Rbt.Executable>
rbdock ($Id: //depot/dev/client3/rdock/2013.1/src/exe/rbdock.cxx#4 $)

>  <Rbt.Library>
libRbt.so (2013.1, Build901 2013/11/27)

>  <Rbt.Parameter_File>
/export/apps/rDock/src/rDock_2013.1_src/data/scripts/dock_solv.prm

>  <Rbt.Receptor>
prm/pocket_docking_2.prm

>  <SCORE>
-1.52677

>  <SCORE.INTER>
-0.930888

>  <SCORE.INTER.CONST>
1

>  <SCORE.INTER.POLAR>
0

>  <SCORE.INTER.ROT>
5

>  <SCORE.INTER.SOLV>
9.17919

>  <SCORE.INTER.VDW>
-10.6137

>  <SCORE.INTER.norm>
-0.0423131

>  <SCORE.INTRA>
-0.596248

>  <SCORE.INTRA.DIHEDRAL>
-0.483258

>  <SCORE.INTRA.DIHEDRAL.0>
2.61549

>  <SCORE.INTRA.POLAR>
0

>  <SCORE.INTRA.POLAR.0>
0

>  <SCORE.INTRA.REPUL>
0

>  <SCORE.INTRA.REPUL.0>
0

>  <SCORE.INTRA.SOLV>
-0.292984

>  <SCORE.INTRA.SOLV.lig_0>
-73.766

>  <SCORE.INTRA.VDW>
-0.208127

>  <SCORE.INTRA.VDW.0>
-1.95055

>  <SCORE.INTRA.norm>
-0.0271022

>  <SCORE.RESTR>
0.000365812

>  <SCORE.RESTR.CAVITY>
0.000365812

>  <SCORE.RESTR.norm>
1.66278e-05

>  <SCORE.SYSTEM>
0

>  <SCORE.SYSTEM.CONST>
0

>  <SCORE.SYSTEM.DIHEDRAL>
0

>  <SCORE.SYSTEM.SOLV>
0

>  <SCORE.SYSTEM.norm>
0

>  <SCORE.heavy>
22

>  <SCORE.norm>
-0.0693987

>  <RMSD>
1.174

$$$$
ligand
 OpenBabel11021811513D
libRbt.so/2013.1/901 2013/11/27
 22 23  0  0  0  0  0  0  0  0999 V2000
   29.3813   -3.6577  107.0356 N   0  0  0  0  0  0  0  0  0  0  0  0
   26.0630   -4.4878  106.9342 C   0  0  1  0  0  0  0  0  0  0  0  0
   27.0968   -3.6634  107.5769 O   0  0  0  0  0  0  0  0  0  0  0  0
   24.9917   -8.1406  107.2748 P   0  0  2  0  0  0  0  0  0  0  0  0
   28.0994   -3.3568  106.5636 C   0  0  2  0  0  0  0  0  0  0  0  0
   31.0683   -4.7517  107.9124 N   0  0  0  0  0  0  0  0  0  0  0  0
   28.0770   -3.4781  104.1757 O   0  0  0  0  0  0  0  0  0  0  0  0
   27.7781   -4.1881  105.3868 C   0  0  2  0  0  0  0  0  0  0  0  0
   33.3197   -1.8568  107.1034 N   0  0  0  0  0  0  0  0  0  0  0  0
   25.6067   -3.3709  104.8763 O   0  0  0  0  0  0  0  0  0  0  0  0
   26.3390   -4.4537  105.4913 C   0  0  2  0  0  0  0  0  0  0  0  0
   31.5074   -3.5238  107.5741 C   0  0  0  0  0  0  0  0  0  0  0  0
   30.4781   -1.4839  106.5277 N   0  0  0  0  0  0  0  0  0  0  0  0
   25.1071   -6.6305  106.8867 O   0  0  0  0  0  0  0  0  0  0  0  0
   26.1519   -5.8830  107.4303 C   0  0  0  0  0  0  0  0  0  0  0  0
   26.3151   -8.9090  106.8553 O   0  0  0  0  0  0  0  0  0  0  0  0
   29.7586   -4.8178  107.5745 C   0  0  0  0  0  0  0  0  0  0  0  0
   33.6720   -3.6107  108.5133 O   0  0  0  0  0  0  0  0  0  0  0  0
   32.8994   -3.0101  107.7708 C   0  0  0  0  0  0  0  0  0  0  0  0
   30.4496   -2.8184  107.0189 C   0  0  0  0  0  0  0  0  0  0  0  0
   23.7956   -8.7626  106.6636 O   0  5  0  0  0  0  0  0  0  0  0  0
   24.7164   -8.3069  108.7276 O   0  0  0  0  0  0  0  0  0  0  0  0
  1 17  1  0  0  0  0
  1 20  1  0  0  0  0
  2 15  1  1  0  0  0
  2  3  1  0  0  0  0
  2 11  1  0  0  0  0
  3  5  1  0  0  0  0
  4 16  1  6  0  0  0
  4 21  1  0  0  0  0
  4 22  2  0  0  0  0
  4 14  1  0  0  0  0
  5  1  1  1  0  0  0
  5  8  1  0  0  0  0
  6 17  2  0  0  0  0
  6 12  1  0  0  0  0
  8  7  1  6  0  0  0
  8 11  1  0  0  0  0
  9 19  1  0  0  0  0
 11 10  1  6  0  0  0
 12 20  2  0  0  0  0
 12 19  1  0  0  0  0
 13 20  1  0  0  0  0
 14 15  1  0  0  0  0
 18 19  2  0  0  0  0
M  CHG  1  21  -1
M  END
>  <CHROM.1>
51.54195645,175.75980239,-59.12222509,-179.74280420,164.72871420,28.00521121
-4.95762814,106.91239670,0.48957007,-0.36847202,-0.54063828

>  <Name>
ligand

>  <RI>
0

>  <Rbt.Current_Directory>
/home/itssahil/PROJECTS/Mol_Feturizer/New_Systems/rnas/4XW7

>  <Rbt.Executable>
rbdock ($Id: //depot/dev/client3/rdock/2013.1/src/exe/rbdock.cxx#4 $)

>  <Rbt.Library>
libRbt.so (2013.1, Build901 2013/11/27)

>  <Rbt.Parameter_File>
/export/apps/rDock/src/rDock_2013.1_src/data/scripts/dock_solv.prm

>  <Rbt.Receptor>
prm/pocket_docking_2.prm

>  <SCORE>
-0.877469

>  <SCORE.INTER>
-0.785213

>  <SCORE.INTER.CONST>
1

>  <SCORE.INTER.POLAR>
0

>  <SCORE.INTER.ROT>
5

>  <SCORE.INTER.SOLV>
9.48759

>  <SCORE.INTER.VDW>
-10.6193

>  <SCORE.INTER.norm>
-0.0356915

>  <SCORE.INTRA>
-0.0923748

>  <SCORE.INTRA.DIHEDRAL>
0.325966

>  <SCORE.INTRA.DIHEDRAL.0>
2.61549

>  <SCORE.INTRA.POLAR>
0

>  <SCORE.INTRA.POLAR.0>
0

>  <SCORE.INTRA.REPUL>
0

>  <SCORE.INTRA.REPUL.0>
0

>  <SCORE.INTRA.SOLV>
-0.129238

>  <SCORE.INTRA.SOLV.lig_0>
-73.766

>  <SCORE.INTRA.VDW>
-0.190739

>  <SCORE.INTRA.VDW.0>
-1.95055

>  <SCORE.INTRA.norm>
-0.00419885

>  <SCORE.RESTR>
0.000118756

>  <SCORE.RESTR.CAVITY>
0.000118756

>  <SCORE.RESTR.norm>
5.39799e-06

>  <SCORE.SYSTEM>
0

>  <SCORE.SYSTEM.CONST>
0

>  <SCORE.SYSTEM.DIHEDRAL>
0

>  <SCORE.SYSTEM.SOLV>
0

>  <SCORE.SYSTEM.norm>
0

>  <SCORE.heavy>
22

>  <SCORE.norm>
-0.0398849

>  <RMSD>
1.181

$$$$
ligand
 OpenBabel11021811513D
libRbt.so/2013.1/901 2013/11/27
 22 23  0  0  0  0  0  0  0  0999 V2000
   29.3568   -3.4518  106.8073 N   0  0  0  0  0  0  0  0  0  0  0  0
   26.1133   -4.5354  106.6833 C   0  0  1  0  0  0  0  0  0  0  0  0
   27.0726   -3.6229  107.3223 O   0  0  0  0  0  0  0  0  0  0  0  0
   25.3451   -8.2614  107.0487 P   0  0  2  0  0  0  0  0  0  0  0  0
   28.0619   -3.2585  106.3150 C   0  0  2  0  0  0  0  0  0  0  0  0
   31.1069   -4.3926  107.7367 N   0  0  0  0  0  0  0  0  0  0  0  0
   28.0796   -3.4237  103.9297 O   0  0  0  0  0  0  0  0  0  0  0  0
   27.8202   -4.1328  105.1504 C   0  0  2  0  0  0  0  0  0  0  0  0
   33.1725   -1.3994  106.8110 N   0  0  0  0  0  0  0  0  0  0  0  0
   25.5995   -3.4937  104.5998 O   0  0  0  0  0  0  0  0  0  0  0  0
   26.4045   -4.5060  105.2433 C   0  0  2  0  0  0  0  0  0  0  0  0
   31.4632   -3.1504  107.3558 C   0  0  0  0  0  0  0  0  0  0  0  0
   30.3053   -1.2271  106.2263 N   0  0  0  0  0  0  0  0  0  0  0  0
   25.3399   -6.7508  106.6460 O   0  0  0  0  0  0  0  0  0  0  0  0
   26.3021   -5.9107  107.2065 C   0  0  0  0  0  0  0  0  0  0  0  0
   26.7101   -8.9354  106.6011 O   0  0  0  0  0  0  0  0  0  0  0  0
   29.8084   -4.5621  107.3919 C   0  0  0  0  0  0  0  0  0  0  0  0
   33.6083   -3.0346  108.3357 O   0  0  0  0  0  0  0  0  0  0  0  0
   32.8142   -2.5341  107.5433 C   0  0  0  0  0  0  0  0  0  0  0  0
   30.3646   -2.5413  106.7669 C   0  0  0  0  0  0  0  0  0  0  0  0
   24.1826   -8.9749  106.4736 O   0  5  0  0  0  0  0  0  0  0  0  0
   25.1195   -8.4333  108.5094 O   0  0  0  0  0  0  0  0  0  0  0  0
  1 17  1  0  0  0  0
  1 20  1  0  0  0  0
  2 15  1  1  0  0  0
  2  3  1  0  0  0  0
  2 11  1  0  0  0  0
  3  5  1  0  0  0  0
  4 16  1  6  0  0  0
  4 21  1  0  0  0  0
  4 22  2  0  0  0  0
  4 14  1  0  0  0  0
  5  1  1  1  0  0  0
  5  8  1  0  0  0  0
  6 17  2  0  0  0  0
  6 12  1  0  0  0  0
  8  7  1  6  0  0  0
  8 11  1  0  0  0  0
  9 19  1  0  0  0  0
 11 10  1  6  0  0  0
 12 20  2  0  0  0  0
 12 19  1  0  0  0  0
 13 20  1  0  0  0  0
 14 15  1  0  0  0  0
 18 19  2  0  0  0  0
M  CHG  1  21  -1
M  END
>  <CHROM.1>
50.36782016,176.84632317,-62.13550017,179.78651122,163.10660953,28.09504809
-4.86013406,106.67777066,0.55591472,-0.41677654,-0.52981180

>  <Name>
ligand

>  <RI>
0

>  <Rbt.Current_Directory>
/home/itssahil/PROJECTS/Mol_Feturizer/New_Systems/rnas/4XW7

>  <Rbt.Executable>
rbdock ($Id: //depot/dev/client3/rdock/2013.1/src/exe/rbdock.cxx#4 $)

>  <Rbt.Library>
libRbt.so (2013.1, Build901 2013/11/27)

>  <Rbt.Parameter_File>
/export/apps/rDock/src/rDock_2013.1_src/data/scripts/dock_solv.prm

>  <Rbt.Receptor>
prm/pocket_docking_2.prm

>  <SCORE>
-0.773883

>  <SCORE.INTER>
-0.673729

>  <SCORE.INTER.CONST>
1

>  <SCORE.INTER.POLAR>
0

>  <SCORE.INTER.ROT>
5

>  <SCORE.INTER.SOLV>
10.2842

>  <SCORE.INTER.VDW>
-10.8106

>  <SCORE.INTER.norm>
-0.030624

>  <SCORE.INTRA>
-0.102629

>  <SCORE.INTRA.DIHEDRAL>
0.252737

>  <SCORE.INTRA.DIHEDRAL.0>
2.61549

>  <SCORE.INTRA.POLAR>
0

>  <SCORE.INTRA.POLAR.0>
0

>  <SCORE.INTRA.REPUL>
0

>  <SCORE.INTRA.REPUL.0>
0

>  <SCORE.INTRA.SOLV>
-0.0787198

>  <SCORE.INTRA.SOLV.lig_0>
-73.766

>  <SCORE.INTRA.VDW>
-0.189638

>  <SCORE.INTRA.VDW.0>
-1.95055

>  <SCORE.INTRA.norm>
-0.00466497

>  <SCORE.RESTR>
0.00247451

>  <SCORE.RESTR.CAVITY>
0.00247451

>  <SCORE.RESTR.norm>
0.000112478

>  <SCORE.SYSTEM>
0

>  <SCORE.SYSTEM.CONST>
0

>  <SCORE.SYSTEM.DIHEDRAL>
0

>  <SCORE.SYSTEM.SOLV>
0

>  <SCORE.SYSTEM.norm>
0

>  <SCORE.heavy>
22

>  <SCORE.norm>
-0.0351765

>  <RMSD>
1.182

$$$$
ligand
 OpenBabel11021811513D
libRbt.so/2013.1/901 2013/11/27
 22 23  0  0  0  0  0  0  0  0999 V2000
   29.3639   -3.6280  106.9123 N   0  0  0  0  0  0  0  0  0  0  0  0
   26.0817   -4.5653  106.6703 C   0  0  1  0  0  0  0  0  0  0  0  0
   27.0576   -3.6981  107.3461 O   0  0  0  0  0  0  0  0  0  0  0  0
   25.0632   -8.2257  107.0840 P   0  0  2  0  0  0  0  0  0  0  0  0
   28.0970   -3.3758  106.3756 C   0  0  2  0  0  0  0  0  0  0  0  0
   31.0332   -4.6443  107.9084 N   0  0  0  0  0  0  0  0  0  0  0  0
   28.1914   -3.5360  103.9918 O   0  0  0  0  0  0  0  0  0  0  0  0
   27.8578   -4.2357  105.1999 C   0  0  2  0  0  0  0  0  0  0  0  0
   33.0040   -1.5334  108.1021 N   0  0  0  0  0  0  0  0  0  0  0  0
   25.6886   -3.4967  104.5741 O   0  0  0  0  0  0  0  0  0  0  0  0
   26.4245   -4.5456  105.2415 C   0  0  2  0  0  0  0  0  0  0  0  0
   31.4638   -3.4260  107.5271 C   0  0  0  0  0  0  0  0  0  0  0  0
   30.4416   -1.4604  106.3408 N   0  0  0  0  0  0  0  0  0  0  0  0
   25.1549   -6.7213  106.6684 O   0  0  0  0  0  0  0  0  0  0  0  0
   26.1905   -5.9489  107.1943 C   0  0  0  0  0  0  0  0  0  0  0  0
   26.3992   -8.9804  106.6798 O   0  0  0  0  0  0  0  0  0  0  0  0
   29.7397   -4.7526  107.5226 C   0  0  0  0  0  0  0  0  0  0  0  0
   33.8162   -3.6064  107.6214 O   0  0  0  0  0  0  0  0  0  0  0  0
   32.8374   -2.8759  107.7529 C   0  0  0  0  0  0  0  0  0  0  0  0
   30.4170   -2.7695  106.8961 C   0  0  0  0  0  0  0  0  0  0  0  0
   23.8779   -8.8779  106.4834 O   0  5  0  0  0  0  0  0  0  0  0  0
   24.7890   -8.3698  108.5394 O   0  0  0  0  0  0  0  0  0  0  0  0
  1 17  1  0  0  0  0
  1 20  1  0  0  0  0
  2 15  1  1  0  0  0
  2  3  1  0  0  0  0
  2 11  1  0  0  0  0
  3  5  1  0  0  0  0
  4 16  1  6  0  0  0
  4 21  1  0  0  0  0
  4 22  2  0  0  0  0
  4 14  1  0  0  0  0
  5  1  1  1  0  0  0
  5  8  1  0  0  0  0
  6 17  2  0  0  0  0
  6 12  1  0  0  0  0
  8  7  1  6  0  0  0
  8 11  1  0  0  0  0
  9 19  1  0  0  0  0
 11 10  1  6  0  0  0
 12 20  2  0  0  0  0
 12 19  1  0  0  0  0
 13 20  1  0  0  0  0
 14 15  1  0  0  0  0
 18 19  2  0  0  0  0
M  CHG  1  21  -1
M  END
>  <CHROM.1>
49.49431559,172.74724759,-58.83663632,-179.91695505,-140.73400934,28.02640735
-4.97150208,106.75435715,0.50031035,-0.40421897,-0.53982010

>  <Name>
ligand

>  <RI>
0

>  <Rbt.Current_Directory>
/home/itssahil/PROJECTS/Mol_Feturizer/New_Systems/rnas/4XW7

>  <Rbt.Executable>
rbdock ($Id: //depot/dev/client3/rdock/2013.1/src/exe/rbdock.cxx#4 $)

>  <Rbt.Library>
libRbt.so (2013.1, Build901 2013/11/27)

>  <Rbt.Parameter_File>
/export/apps/rDock/src/rDock_2013.1_src/data/scripts/dock_solv.prm

>  <Rbt.Receptor>
prm/pocket_docking_2.prm

>  <SCORE>
-1.47446

>  <SCORE.INTER>
-0.804704

>  <SCORE.INTER.CONST>
1

>  <SCORE.INTER.POLAR>
0

>  <SCORE.INTER.ROT>
5

>  <SCORE.INTER.SOLV>
9.68849

>  <SCORE.INTER.VDW>
-10.6993

>  <SCORE.INTER.norm>
-0.0365774

>  <SCORE.INTRA>
-0.669753

>  <SCORE.INTRA.DIHEDRAL>
-0.520184

>  <SCORE.INTRA.DIHEDRAL.0>
2.61549

>  <SCORE.INTRA.POLAR>
0

>  <SCORE.INTRA.POLAR.0>
0

>  <SCORE.INTRA.REPUL>
0

>  <SCORE.INTRA.REPUL.0>
0

>  <SCORE.INTRA.SOLV>
-0.209998

>  <SCORE.INTRA.SOLV.lig_0>
-73.766

>  <SCORE.INTRA.VDW>
-0.304662

>  <SCORE.INTRA.VDW.0>
-1.95055

>  <SCORE.INTRA.norm>
-0.0304433

>  <SCORE.RESTR>
0

>  <SCORE.RESTR.CAVITY>
0

>  <SCORE.RESTR.norm>
0

>  <SCORE.SYSTEM>
0

>  <SCORE.SYSTEM.CONST>
0

>  <SCORE.SYSTEM.DIHEDRAL>
0

>  <SCORE.SYSTEM.SOLV>
0

>  <SCORE.SYSTEM.norm>
0

>  <SCORE.heavy>
22

>  <SCORE.norm>
-0.0670208

>  <RMSD>
1.193

$$$$
ligand
 OpenBabel11021811513D
libRbt.so/2013.1/901 2013/11/27
 22 23  0  0  0  0  0  0  0  0999 V2000
   29.3778   -3.7950  107.0858 N   0  0  0  0  0  0  0  0  0  0  0  0
   26.0518   -4.5822  106.9189 C   0  0  1  0  0  0  0  0  0  0  0  0
   27.0809   -3.7587  107.5703 O   0  0  0  0  0  0  0  0  0  0  0  0
   24.9031   -8.2039  107.3310 P   0  0  2  0  0  0  0  0  0  0  0  0
   28.1123   -3.4867  106.5761 C   0  0  2  0  0  0  0  0  0  0  0  0
   31.0323   -4.8993  108.0106 N   0  0  0  0  0  0  0  0  0  0  0  0
   28.1468   -3.6570  104.1914 O   0  0  0  0  0  0  0  0  0  0  0  0
   27.8083   -4.3377  105.4089 C   0  0  2  0  0  0  0  0  0  0  0  0
   33.0712   -1.8941  108.4709 N   0  0  0  0  0  0  0  0  0  0  0  0
   25.6618   -3.5020  104.8281 O   0  0  0  0  0  0  0  0  0  0  0  0
   26.3636   -4.5817  105.4829 C   0  0  2  0  0  0  0  0  0  0  0  0
   31.4874   -3.6729  107.6885 C   0  0  0  0  0  0  0  0  0  0  0  0
   30.5002   -1.6256  106.6163 N   0  0  0  0  0  0  0  0  0  0  0  0
   25.0595   -6.7087  106.9017 O   0  0  0  0  0  0  0  0  0  0  0  0
   26.1090   -5.9679  107.4453 C   0  0  0  0  0  0  0  0  0  0  0  0
   26.2274   -9.0067  106.9854 O   0  0  0  0  0  0  0  0  0  0  0  0
   29.7331   -4.9581  107.6332 C   0  0  0  0  0  0  0  0  0  0  0  0
   33.8398   -3.8699  107.6381 O   0  0  0  0  0  0  0  0  0  0  0  0
   32.8754   -3.1666  107.9283 C   0  0  0  0  0  0  0  0  0  0  0  0
   30.4504   -2.9610  107.1033 C   0  0  0  0  0  0  0  0  0  0  0  0
   23.7198   -8.8249  106.6943 O   0  5  0  0  0  0  0  0  0  0  0  0
   24.5710   -8.3204  108.7768 O   0  0  0  0  0  0  0  0  0  0  0  0
  1 17  1  0  0  0  0
  1 20  1  0  0  0  0
  2 15  1  1  0  0  0
  2  3  1  0  0  0  0
  2 11  1  0  0  0  0
  3  5  1  0  0  0  0
  4 16  1  6  0  0  0
  4 21  1  0  0  0  0
  4 22  2  0  0  0  0
  4 14  1  0  0  0  0
  5  1  1  1  0  0  0
  5  8  1  0  0  0  0
  6 17  2  0  0  0  0
  6 12  1  0  0  0  0
  8  7  1  6  0  0  0
  8 11  1  0  0  0  0
  9 19  1  0  0  0  0
 11 10  1  6  0  0  0
 12 20  2  0  0  0  0
 12 19  1  0  0  0  0
 13 20  1  0  0  0  0
 14 15  1  0  0  0  0
 18 19  2  0  0  0  0
M  CHG  1  21  -1
M  END
>  <CHROM.1>
52.97320207,175.16982995,-58.13340321,-179.10878849,-134.36803040,27.97957792
-5.07280710,106.96867445,0.47027374,-0.37310161,-0.54521064

>  <Name>
ligand

>  <RI>
0

>  <Rbt.Current_Directory>
/home/itssahil/PROJECTS/Mol_Feturizer/New_Systems/rnas/4XW7

>  <Rbt.Executable>
rbdock ($Id: //depot/dev/client3/rdock/2013.1/src/exe/rbdock.cxx#4 $)

>  <Rbt.Library>
libRbt.so (2013.1, Build901 2013/11/27)

>  <Rbt.Parameter_File>
/export/apps/rDock/src/rDock_2013.1_src/data/scripts/dock_solv.prm

>  <Rbt.Receptor>
prm/pocket_docking_2.prm

>  <SCORE>
-1.55696

>  <SCORE.INTER>
-0.734356

>  <SCORE.INTER.CONST>
1

>  <SCORE.INTER.POLAR>
0

>  <SCORE.INTER.ROT>
5

>  <SCORE.INTER.SOLV>
8.89791

>  <SCORE.INTER.VDW>
-10.3889

>  <SCORE.INTER.norm>
-0.0333798

>  <SCORE.INTRA>
-0.823267

>  <SCORE.INTRA.DIHEDRAL>
-0.830224

>  <SCORE.INTRA.DIHEDRAL.0>
2.61549

>  <SCORE.INTRA.POLAR>
0

>  <SCORE.INTRA.POLAR.0>
0

>  <SCORE.INTRA.REPUL>
0

>  <SCORE.INTRA.REPUL.0>
0

>  <SCORE.INTRA.SOLV>
-0.339994

>  <SCORE.INTRA.SOLV.lig_0>
-73.766

>  <SCORE.INTRA.VDW>
-0.238158

>  <SCORE.INTRA.VDW.0>
-1.95055

>  <SCORE.INTRA.norm>
-0.0374212

>  <SCORE.RESTR>
0.000661351

>  <SCORE.RESTR.CAVITY>
0.000661351

>  <SCORE.RESTR.norm>
3.00614e-05

>  <SCORE.SYSTEM>
0

>  <SCORE.SYSTEM.CONST>
0

>  <SCORE.SYSTEM.DIHEDRAL>
0

>  <SCORE.SYSTEM.SOLV>
0

>  <SCORE.SYSTEM.norm>
0

>  <SCORE.heavy>
22

>  <SCORE.norm>
-0.070771

>  <RMSD>
1.225

$$$$
ligand
 OpenBabel11021811513D
libRbt.so/2013.1/901 2013/11/27
 22 23  0  0  0  0  0  0  0  0999 V2000
   29.4011   -3.7841  107.1129 N   0  0  0  0  0  0  0  0  0  0  0  0
   26.0636   -4.5262  106.9705 C   0  0  1  0  0  0  0  0  0  0  0  0
   27.1076   -3.7116  107.6092 O   0  0  0  0  0  0  0  0  0  0  0  0
   24.8744   -8.1316  107.4099 P   0  0  2  0  0  0  0  0  0  0  0  0
   28.1372   -3.4625  106.6073 C   0  0  2  0  0  0  0  0  0  0  0  0
   31.0493   -4.9085  108.0245 N   0  0  0  0  0  0  0  0  0  0  0  0
   28.1564   -3.6537  104.2240 O   0  0  0  0  0  0  0  0  0  0  0  0
   27.8151   -4.3191  105.4491 C   0  0  2  0  0  0  0  0  0  0  0  0
   33.1063   -1.9228  108.5218 N   0  0  0  0  0  0  0  0  0  0  0  0
   25.6773   -3.4586  104.8726 O   0  0  0  0  0  0  0  0  0  0  0  0
   26.3676   -4.5423  105.5329 C   0  0  2  0  0  0  0  0  0  0  0  0
   31.5116   -3.6813  107.7159 C   0  0  0  0  0  0  0  0  0  0  0  0
   30.5362   -1.6163  106.6671 N   0  0  0  0  0  0  0  0  0  0  0  0
   25.0475   -6.6416  106.9693 O   0  0  0  0  0  0  0  0  0  0  0  0
   26.1044   -5.9081  107.5086 C   0  0  0  0  0  0  0  0  0  0  0  0
   24.6071   -8.2057  108.9722 O   0  0  0  0  0  0  0  0  0  0  0  0
   29.7496   -4.9553  107.6470 C   0  0  0  0  0  0  0  0  0  0  0  0
   33.8629   -3.8901  107.6582 O   0  0  0  0  0  0  0  0  0  0  0  0
   32.9027   -3.1860  107.9606 C   0  0  0  0  0  0  0  0  0  0  0  0
   30.4786   -2.9567  107.1392 C   0  0  0  0  0  0  0  0  0  0  0  0
   26.0514   -8.9447  107.0295 O   0  5  0  0  0  0  0  0  0  0  0  0
   23.7821   -8.7977  106.6500 O   0  0  0  0  0  0  0  0  0  0  0  0
  1 17  1  0  0  0  0
  1 20  1  0  0  0  0
  2 15  1  1  0  0  0
  2  3  1  0  0  0  0
  2 11  1  0  0  0  0
  3  5  1  0  0  0  0
  4 16  1  1  0  0  0
  4 21  1  0  0  0  0
  4 22  2  0  0  0  0
  4 14  1  0  0  0  0
  5  1  1  1  0  0  0
  5  8  1  0  0  0  0
  6 17  2  0  0  0  0
  6 12  1  0  0  0  0
  8  7  1  6  0  0  0
  8 11  1  0  0  0  0
  9 19  1  0  0  0  0
 11 10  1  6  0  0  0
 12 20  2  0  0  0  0
 12 19  1  0  0  0  0
 13 20  1  0  0  0  0
 14 15  1  0  0  0  0
 18 19  2  0  0  0  0
M  CHG  1  21  -1
M  END
>  <CHROM.1>
54.22549690,175.59932037,61.80699934,-179.16269429,-134.13905946,27.98611378
-5.04275149,107.01508554,0.45841942,-0.37129624,-0.56125300

>  <Name>
ligand

>  <RI>
0

>  <Rbt.Current_Directory>
/home/itssahil/PROJECTS/Mol_Feturizer/New_Systems/rnas/4XW7

>  <Rbt.Executable>
rbdock ($Id: //depot/dev/client3/rdock/2013.1/src/exe/rbdock.cxx#4 $)

>  <Rbt.Library>
libRbt.so (2013.1, Build901 2013/11/27)

>  <Rbt.Parameter_File>
/export/apps/rDock/src/rDock_2013.1_src/data/scripts/dock_solv.prm

>  <Rbt.Receptor>
prm/pocket_docking_2.prm

>  <SCORE>
-1.51266

>  <SCORE.INTER>
-0.700082

>  <SCORE.INTER.CONST>
1

>  <SCORE.INTER.POLAR>
0

>  <SCORE.INTER.ROT>
5

>  <SCORE.INTER.SOLV>
8.80728

>  <SCORE.INTER.VDW>
-10.3358

>  <SCORE.INTER.norm>
-0.0318219

>  <SCORE.INTRA>
-0.812573

>  <SCORE.INTRA.DIHEDRAL>
-0.851072

>  <SCORE.INTRA.DIHEDRAL.0>
2.61549

>  <SCORE.INTRA.POLAR>
0

>  <SCORE.INTRA.POLAR.0>
0

>  <SCORE.INTRA.REPUL>
0

>  <SCORE.INTRA.REPUL.0>
0

>  <SCORE.INTRA.SOLV>
-0.334573

>  <SCORE.INTRA.SOLV.lig_0>
-73.766

>  <SCORE.INTRA.VDW>
-0.219751

>  <SCORE.INTRA.VDW.0>
-1.95055

>  <SCORE.INTRA.norm>
-0.0369351

>  <SCORE.RESTR>
0

>  <SCORE.RESTR.CAVITY>
0

>  <SCORE.RESTR.norm>
0

>  <SCORE.SYSTEM>
0

>  <SCORE.SYSTEM.CONST>
0

>  <SCORE.SYSTEM.DIHEDRAL>
0

>  <SCORE.SYSTEM.SOLV>
0

>  <SCORE.SYSTEM.norm>
0

>  <SCORE.heavy>
22

>  <SCORE.norm>
-0.0687571

>  <RMSD>
1.229

$$$$
ligand
 OpenBabel11021811513D
libRbt.so/2013.1/901 2013/11/27
 22 23  0  0  0  0  0  0  0  0999 V2000
   29.3868   -3.7624  107.1279 N   0  0  0  0  0  0  0  0  0  0  0  0
   26.0548   -4.5283  106.9830 C   0  0  1  0  0  0  0  0  0  0  0  0
   27.0966   -3.7282  107.6433 O   0  0  0  0  0  0  0  0  0  0  0  0
   24.9044   -8.1596  107.2932 P   0  0  2  0  0  0  0  0  0  0  0  0
   28.1163   -3.4337  106.6436 C   0  0  2  0  0  0  0  0  0  0  0  0
   31.0478   -4.9006  107.9981 N   0  0  0  0  0  0  0  0  0  0  0  0
   28.1189   -3.5378  104.2548 O   0  0  0  0  0  0  0  0  0  0  0  0
   27.7928   -4.2504  105.4573 C   0  0  2  0  0  0  0  0  0  0  0  0
   33.1061   -1.8979  108.4750 N   0  0  0  0  0  0  0  0  0  0  0  0
   25.6432   -3.3884  104.9283 O   0  0  0  0  0  0  0  0  0  0  0  0
   26.3478   -4.4893  105.5436 C   0  0  2  0  0  0  0  0  0  0  0  0
   31.5042   -3.6669  107.7073 C   0  0  0  0  0  0  0  0  0  0  0  0
   30.5126   -1.5843  106.7097 N   0  0  0  0  0  0  0  0  0  0  0  0
   25.0445   -6.6458  106.9288 O   0  0  0  0  0  0  0  0  0  0  0  0
   26.1115   -5.9284  107.4699 C   0  0  0  0  0  0  0  0  0  0  0  0
   26.2086   -8.9458  106.8472 O   0  0  0  0  0  0  0  0  0  0  0  0
   29.7437   -4.9428  107.6354 C   0  0  0  0  0  0  0  0  0  0  0  0
   33.8544   -3.8904  107.6635 O   0  0  0  0  0  0  0  0  0  0  0  0
   32.8973   -3.1735  107.9447 C   0  0  0  0  0  0  0  0  0  0  0  0
   30.4631   -2.9335  107.1569 C   0  0  0  0  0  0  0  0  0  0  0  0
   23.6905   -8.7488  106.6844 O   0  5  0  0  0  0  0  0  0  0  0  0
   24.6408   -8.3450  108.7458 O   0  0  0  0  0  0  0  0  0  0  0  0
  1 17  1  0  0  0  0
  1 20  1  0  0  0  0
  2 15  1  1  0  0  0
  2  3  1  0  0  0  0
  2 11  1  0  0  0  0
  3  5  1  0  0  0  0
  4 16  1  6  0  0  0
  4 21  1  0  0  0  0
  4 22  2  0  0  0  0
  4 14  1  0  0  0  0
  5  1  1  1  0  0  0
  5  8  1  0  0  0  0
  6 17  2  0  0  0  0
  6 12  1  0  0  0  0
  8  7  1  6  0  0  0
  8 11  1  0  0  0  0
  9 19  1  0  0  0  0
 11 10  1  6  0  0  0
 12 20  2  0  0  0  0
 12 19  1  0  0  0  0
 13 20  1  0  0  0  0
 14 15  1  0  0  0  0
 18 19  2  0  0  0  0
M  CHG  1  21  -1
M  END
>  <CHROM.1>
53.11911734,174.66657966,-58.90318126,179.44895770,-136.84429687,27.98371483
-5.03083762,106.98975687,0.47435986,-0.35958051,-0.51135092

>  <Name>
ligand

>  <RI>
0

>  <Rbt.Current_Directory>
/home/itssahil/PROJECTS/Mol_Feturizer/New_Systems/rnas/4XW7

>  <Rbt.Executable>
rbdock ($Id: //depot/dev/client3/rdock/2013.1/src/exe/rbdock.cxx#4 $)

>  <Rbt.Library>
libRbt.so (2013.1, Build901 2013/11/27)

>  <Rbt.Parameter_File>
/export/apps/rDock/src/rDock_2013.1_src/data/scripts/dock_solv.prm

>  <Rbt.Receptor>
prm/pocket_docking_2.prm

>  <SCORE>
-1.52798

>  <SCORE.INTER>
-0.751872

>  <SCORE.INTER.CONST>
1

>  <SCORE.INTER.POLAR>
0

>  <SCORE.INTER.ROT>
5

>  <SCORE.INTER.SOLV>
8.54558

>  <SCORE.INTER.VDW>
-10.2831

>  <SCORE.INTER.norm>
-0.034176

>  <SCORE.INTRA>
-0.776104

>  <SCORE.INTRA.DIHEDRAL>
-0.740758

>  <SCORE.INTRA.DIHEDRAL.0>
2.61549

>  <SCORE.INTRA.POLAR>
0

>  <SCORE.INTRA.POLAR.0>
0

>  <SCORE.INTRA.REPUL>
0

>  <SCORE.INTRA.REPUL.0>
0

>  <SCORE.INTRA.SOLV>
-0.324668

>  <SCORE.INTRA.SOLV.lig_0>
-73.766

>  <SCORE.INTRA.VDW>
-0.243391

>  <SCORE.INTRA.VDW.0>
-1.95055

>  <SCORE.INTRA.norm>
-0.0352774

>  <SCORE.RESTR>
0

>  <SCORE.RESTR.CAVITY>
0

>  <SCORE.RESTR.norm>
0

>  <SCORE.SYSTEM>
0

>  <SCORE.SYSTEM.CONST>
0

>  <SCORE.SYSTEM.DIHEDRAL>
0

>  <SCORE.SYSTEM.SOLV>
0

>  <SCORE.SYSTEM.norm>
0

>  <SCORE.heavy>
22

>  <SCORE.norm>
-0.0694534

>  <RMSD>
1.231

$$$$
ligand
 OpenBabel11021811513D
libRbt.so/2013.1/901 2013/11/27
 22 23  0  0  0  0  0  0  0  0999 V2000
   29.4163   -3.6372  107.0044 N   0  0  0  0  0  0  0  0  0  0  0  0
   26.1304   -4.5683  106.7907 C   0  0  1  0  0  0  0  0  0  0  0  0
   27.1258   -3.7561  107.5056 O   0  0  0  0  0  0  0  0  0  0  0  0
   25.0901   -8.2400  106.9957 P   0  0  2  0  0  0  0  0  0  0  0  0
   28.1318   -3.3473  106.5326 C   0  0  2  0  0  0  0  0  0  0  0  0
   31.1154   -4.7197  107.8723 N   0  0  0  0  0  0  0  0  0  0  0  0
   28.1482   -3.3045  104.1420 O   0  0  0  0  0  0  0  0  0  0  0  0
   27.8563   -4.1057  105.2966 C   0  0  2  0  0  0  0  0  0  0  0  0
   33.3082   -1.7490  107.1610 N   0  0  0  0  0  0  0  0  0  0  0  0
   25.6658   -3.3280  104.8067 O   0  0  0  0  0  0  0  0  0  0  0  0
   26.4259   -4.4257  105.3584 C   0  0  2  0  0  0  0  0  0  0  0  0
   31.5391   -3.4820  107.5505 C   0  0  0  0  0  0  0  0  0  0  0  0
   30.4857   -1.4429  106.5267 N   0  0  0  0  0  0  0  0  0  0  0  0
   25.1818   -6.7118  106.6787 O   0  0  0  0  0  0  0  0  0  0  0  0
   26.2600   -5.9906  107.1917 C   0  0  0  0  0  0  0  0  0  0  0  0
   26.4000   -8.9770  106.4870 O   0  0  0  0  0  0  0  0  0  0  0  0
   29.8076   -4.7988  107.5298 C   0  0  0  0  0  0  0  0  0  0  0  0
   33.7217   -3.5840  108.4455 O   0  0  0  0  0  0  0  0  0  0  0  0
   32.9237   -2.9525  107.7575 C   0  0  0  0  0  0  0  0  0  0  0  0
   30.4736   -2.7837  107.0011 C   0  0  0  0  0  0  0  0  0  0  0  0
   23.8741   -8.8400  106.4020 O   0  5  0  0  0  0  0  0  0  0  0  0
   24.8735   -8.4798  108.4482 O   0  0  0  0  0  0  0  0  0  0  0  0
  1 17  1  0  0  0  0
  1 20  1  0  0  0  0
  2 15  1  1  0  0  0
  2  3  1  0  0  0  0
  2 11  1  0  0  0  0
  3  5  1  0  0  0  0
  4 16  1  6  0  0  0
  4 21  1  0  0  0  0
  4 22  2  0  0  0  0
  4 14  1  0  0  0  0
  5  1  1  1  0  0  0
  5  8  1  0  0  0  0
  6 17  2  0  0  0  0
  6 12  1  0  0  0  0
  8  7  1  6  0  0  0
  8 11  1  0  0  0  0
  9 19  1  0  0  0  0
 11 10  1  1  0  0  0
 12 20  2  0  0  0  0
 12 19  1  0  0  0  0
 13 20  1  0  0  0  0
 14 15  1  0  0  0  0
 18 19  2  0  0  0  0
M  CHG  1  21  -1
M  END
>  <CHROM.1>
48.02979685,170.50160468,-57.67387341,-178.92843231,168.04545289,28.06695442
-4.96796778,106.78988389,0.50639407,-0.38599752,-0.49583425

>  <Name>
ligand

>  <RI>
0

>  <Rbt.Current_Directory>
/home/itssahil/PROJECTS/Mol_Feturizer/New_Systems/rnas/4XW7

>  <Rbt.Executable>
rbdock ($Id: //depot/dev/client3/rdock/2013.1/src/exe/rbdock.cxx#4 $)

>  <Rbt.Library>
libRbt.so (2013.1, Build901 2013/11/27)

>  <Rbt.Parameter_File>
/export/apps/rDock/src/rDock_2013.1_src/data/scripts/dock_solv.prm

>  <Rbt.Receptor>
prm/pocket_docking_2.prm

>  <SCORE>
-0.825525

>  <SCORE.INTER>
-0.878686

>  <SCORE.INTER.CONST>
1

>  <SCORE.INTER.POLAR>
0

>  <SCORE.INTER.ROT>
5

>  <SCORE.INTER.SOLV>
9.60865

>  <SCORE.INTER.VDW>
-10.722

>  <SCORE.INTER.norm>
-0.0399403

>  <SCORE.INTRA>
0.0531609

>  <SCORE.INTRA.DIHEDRAL>
0.678581

>  <SCORE.INTRA.DIHEDRAL.0>
2.61549

>  <SCORE.INTRA.POLAR>
0

>  <SCORE.INTRA.POLAR.0>
0

>  <SCORE.INTRA.REPUL>
0

>  <SCORE.INTRA.REPUL.0>
0

>  <SCORE.INTRA.SOLV>
-0.0461932

>  <SCORE.INTRA.SOLV.lig_0>
-73.766

>  <SCORE.INTRA.VDW>
-0.263033

>  <SCORE.INTRA.VDW.0>
-1.95055

>  <SCORE.INTRA.norm>
0.0024164

>  <SCORE.RESTR>
0

>  <SCORE.RESTR.CAVITY>
0

>  <SCORE.RESTR.norm>
0

>  <SCORE.SYSTEM>
0

>  <SCORE.SYSTEM.CONST>
0

>  <SCORE.SYSTEM.DIHEDRAL>
0

>  <SCORE.SYSTEM.SOLV>
0

>  <SCORE.SYSTEM.norm>
0

>  <SCORE.heavy>
22

>  <SCORE.norm>
-0.0375239

>  <RMSD>
1.240

$$$$
ligand
 OpenBabel11021811513D
libRbt.so/2013.1/901 2013/11/27
 22 23  0  0  0  0  0  0  0  0999 V2000
   29.3979   -3.7638  107.1210 N   0  0  0  0  0  0  0  0  0  0  0  0
   26.0727   -4.5508  106.9368 C   0  0  1  0  0  0  0  0  0  0  0  0
   27.1033   -3.7536  107.6178 O   0  0  0  0  0  0  0  0  0  0  0  0
   24.9077   -8.1784  107.2351 P   0  0  2  0  0  0  0  0  0  0  0  0
   28.1291   -3.4367  106.6313 C   0  0  2  0  0  0  0  0  0  0  0  0
   31.0551   -4.8984  108.0032 N   0  0  0  0  0  0  0  0  0  0  0  0
   28.1521   -3.5043  104.2413 O   0  0  0  0  0  0  0  0  0  0  0  0
   27.8211   -4.2375  105.4301 C   0  0  2  0  0  0  0  0  0  0  0  0
   33.1160   -1.8980  108.4722 N   0  0  0  0  0  0  0  0  0  0  0  0
   25.6700   -3.3826  104.8963 O   0  0  0  0  0  0  0  0  0  0  0  0
   26.3773   -4.4878  105.5006 C   0  0  2  0  0  0  0  0  0  0  0  0
   31.5139   -3.6672  107.7054 C   0  0  0  0  0  0  0  0  0  0  0  0
   30.5277   -1.5900  106.6913 N   0  0  0  0  0  0  0  0  0  0  0  0
   25.0651   -6.6688  106.8601 O   0  0  0  0  0  0  0  0  0  0  0  0
   26.1354   -5.9577  107.4028 C   0  0  0  0  0  0  0  0  0  0  0  0
   26.2025   -8.9827  106.7940 O   0  0  0  0  0  0  0  0  0  0  0  0
   29.7519   -4.9413  107.6374 C   0  0  0  0  0  0  0  0  0  0  0  0
   33.8640   -3.8916  107.6633 O   0  0  0  0  0  0  0  0  0  0  0  0
   32.9070   -3.1741  107.9431 C   0  0  0  0  0  0  0  0  0  0  0  0
   30.4752   -2.9362  107.1473 C   0  0  0  0  0  0  0  0  0  0  0  0
   23.6867   -8.7577  106.6312 O   0  5  0  0  0  0  0  0  0  0  0  0
   24.6429   -8.3505  108.6892 O   0  0  0  0  0  0  0  0  0  0  0  0
  1 17  1  0  0  0  0
  1 20  1  0  0  0  0
  2 15  1  1  0  0  0
  2  3  1  0  0  0  0
  2 11  1  0  0  0  0
  3  5  1  0  0  0  0
  4 16  1  6  0  0  0
  4 21  1  0  0  0  0
  4 22  2  0  0  0  0
  4 14  1  0  0  0  0
  5  1  1  1  0  0  0
  5  8  1  0  0  0  0
  6 17  2  0  0  0  0
  6 12  1  0  0  0  0
  8  7  1  6  0  0  0
  8 11  1  0  0  0  0
  9 19  1  0  0  0  0
 11 10  1  1  0  0  0
 12 20  2  0  0  0  0
 12 19  1  0  0  0  0
 13 20  1  0  0  0  0
 14 15  1  0  0  0  0
 18 19  2  0  0  0  0
M  CHG  1  21  -1
M  END
>  <CHROM.1>
51.73438538,173.66826875,-59.33230847,-178.88628006,-136.49741922,27.99615414
-5.03758286,106.96023234,0.47351510,-0.36526584,-0.50947936

>  <Name>
ligand

>  <RI>
0

>  <Rbt.Current_Directory>
/home/itssahil/PROJECTS/Mol_Feturizer/New_Systems/rnas/4XW7

>  <Rbt.Executable>
rbdock ($Id: //depot/dev/client3/rdock/2013.1/src/exe/rbdock.cxx#4 $)

>  <Rbt.Library>
libRbt.so (2013.1, Build901 2013/11/27)

>  <Rbt.Parameter_File>
/export/apps/rDock/src/rDock_2013.1_src/data/scripts/dock_solv.prm

>  <Rbt.Receptor>
prm/pocket_docking_2.prm

>  <SCORE>
-1.5466

>  <SCORE.INTER>
-0.763479

>  <SCORE.INTER.CONST>
1

>  <SCORE.INTER.POLAR>
0

>  <SCORE.INTER.ROT>
5

>  <SCORE.INTER.SOLV>
8.69346

>  <SCORE.INTER.VDW>
-10.3401

>  <SCORE.INTER.norm>
-0.0347036

>  <SCORE.INTRA>
-0.783122

>  <SCORE.INTRA.DIHEDRAL>
-0.708955

>  <SCORE.INTRA.DIHEDRAL.0>
2.61549

>  <SCORE.INTRA.POLAR>
0

>  <SCORE.INTRA.POLAR.0>
0

>  <SCORE.INTRA.REPUL>
0

>  <SCORE.INTRA.REPUL.0>
0

>  <SCORE.INTRA.SOLV>
-0.289984

>  <SCORE.INTRA.SOLV.lig_0>
-73.766

>  <SCORE.INTRA.VDW>
-0.283652

>  <SCORE.INTRA.VDW.0>
-1.95055

>  <SCORE.INTRA.norm>
-0.0355964

>  <SCORE.RESTR>
0

>  <SCORE.RESTR.CAVITY>
0

>  <SCORE.RESTR.norm>
0

>  <SCORE.SYSTEM>
0

>  <SCORE.SYSTEM.CONST>
0

>  <SCORE.SYSTEM.DIHEDRAL>
0

>  <SCORE.SYSTEM.SOLV>
0

>  <SCORE.SYSTEM.norm>
0

>  <SCORE.heavy>
22

>  <SCORE.norm>
-0.0703

>  <RMSD>
1.241

$$$$
ligand
 OpenBabel11021811513D
libRbt.so/2013.1/901 2013/11/27
 22 23  0  0  0  0  0  0  0  0999 V2000
   29.4149   -3.7713  107.0939 N   0  0  0  0  0  0  0  0  0  0  0  0
   26.0892   -4.5519  106.8932 C   0  0  1  0  0  0  0  0  0  0  0  0
   27.1152   -3.7417  107.5656 O   0  0  0  0  0  0  0  0  0  0  0  0
   24.9204   -8.1729  107.2497 P   0  0  2  0  0  0  0  0  0  0  0  0
   28.1525   -3.4522  106.5827 C   0  0  2  0  0  0  0  0  0  0  0  0
   31.0586   -4.8893  108.0213 N   0  0  0  0  0  0  0  0  0  0  0  0
   28.2008   -3.5781  104.1955 O   0  0  0  0  0  0  0  0  0  0  0  0
   27.8546   -4.2810  105.3981 C   0  0  2  0  0  0  0  0  0  0  0  0
   33.1236   -1.9029  108.4832 N   0  0  0  0  0  0  0  0  0  0  0  0
   25.7122   -3.4325  104.8206 O   0  0  0  0  0  0  0  0  0  0  0  0
   26.4093   -4.5249  105.4592 C   0  0  2  0  0  0  0  0  0  0  0  0
   31.5249   -3.6673  107.6984 C   0  0  0  0  0  0  0  0  0  0  0  0
   30.5568   -1.6124  106.6232 N   0  0  0  0  0  0  0  0  0  0  0  0
   25.0925   -6.6757  106.8339 O   0  0  0  0  0  0  0  0  0  0  0  0
   26.1420   -5.9473  107.3939 C   0  0  0  0  0  0  0  0  0  0  0  0
   24.6957   -8.2761  108.8171 O   0  0  0  0  0  0  0  0  0  0  0  0
   29.7593   -4.9369  107.6427 C   0  0  0  0  0  0  0  0  0  0  0  0
   33.8755   -3.8841  107.6479 O   0  0  0  0  0  0  0  0  0  0  0  0
   32.9171   -3.1731  107.9389 C   0  0  0  0  0  0  0  0  0  0  0  0
   30.4947   -2.9468  107.1115 C   0  0  0  0  0  0  0  0  0  0  0  0
   26.0803   -8.9865  106.8210 O   0  5  0  0  0  0  0  0  0  0  0  0
   23.8025   -8.8161  106.5074 O   0  0  0  0  0  0  0  0  0  0  0  0
  1 17  1  0  0  0  0
  1 20  1  0  0  0  0
  2 15  1  1  0  0  0
  2  3  1  0  0  0  0
  2 11  1  0  0  0  0
  3  5  1  0  0  0  0
  4 16  1  1  0  0  0
  4 21  1  0  0  0  0
  4 22  2  0  0  0  0
  4 14  1  0  0  0  0
  5  1  1  1  0  0  0
  5  8  1  0  0  0  0
  6 17  2  0  0  0  0
  6 12  1  0  0  0  0
  8  7  1  6  0  0  0
  8 11  1  0  0  0  0
  9 19  1  0  0  0  0
 11 10  1  6  0  0  0
 12 20  2  0  0  0  0
 12 19  1  0  0  0  0
 13 20  1  0  0  0  0
 14 15  1  0  0  0  0
 18 19  2  0  0  0  0
M  CHG  1  21  -1
M  END
>  <CHROM.1>
51.72674141,174.97791060,59.60809476,-178.30244568,-134.22416144,28.01513753
-5.04656114,106.94138610,0.46324153,-0.38006806,-0.54015025

>  <Name>
ligand

>  <RI>
0

>  <Rbt.Current_Directory>
/home/itssahil/PROJECTS/Mol_Feturizer/New_Systems/rnas/4XW7

>  <Rbt.Executable>
rbdock ($Id: //depot/dev/client3/rdock/2013.1/src/exe/rbdock.cxx#4 $)

>  <Rbt.Library>
libRbt.so (2013.1, Build901 2013/11/27)

>  <Rbt.Parameter_File>
/export/apps/rDock/src/rDock_2013.1_src/data/scripts/dock_solv.prm

>  <Rbt.Receptor>
prm/pocket_docking_2.prm

>  <SCORE>
-1.57359

>  <SCORE.INTER>
-0.745605

>  <SCORE.INTER.CONST>
1

>  <SCORE.INTER.POLAR>
0

>  <SCORE.INTER.ROT>
5

>  <SCORE.INTER.SOLV>
9.08506

>  <SCORE.INTER.VDW>
-10.4588

>  <SCORE.INTER.norm>
-0.0338911

>  <SCORE.INTRA>
-0.828092

>  <SCORE.INTRA.DIHEDRAL>
-0.822862

>  <SCORE.INTRA.DIHEDRAL.0>
2.61549

>  <SCORE.INTRA.POLAR>
0

>  <SCORE.INTRA.POLAR.0>
0

>  <SCORE.INTRA.REPUL>
0

>  <SCORE.INTRA.REPUL.0>
0

>  <SCORE.INTRA.SOLV>
-0.29872

>  <SCORE.INTRA.SOLV.lig_0>
-73.766

>  <SCORE.INTRA.VDW>
-0.267301

>  <SCORE.INTRA.VDW.0>
-1.95055

>  <SCORE.INTRA.norm>
-0.0376405

>  <SCORE.RESTR>
0.000103711

>  <SCORE.RESTR.CAVITY>
0.000103711

>  <SCORE.RESTR.norm>
4.71414e-06

>  <SCORE.SYSTEM>
0

>  <SCORE.SYSTEM.CONST>
0

>  <SCORE.SYSTEM.DIHEDRAL>
0

>  <SCORE.SYSTEM.SOLV>
0

>  <SCORE.SYSTEM.norm>
0

>  <SCORE.heavy>
22

>  <SCORE.norm>
-0.0715269

>  <RMSD>
1.247

$$$$
ligand
 OpenBabel11021811513D
libRbt.so/2013.1/901 2013/11/27
 22 23  0  0  0  0  0  0  0  0999 V2000
   29.2730   -3.6568  106.9579 N   0  0  0  0  0  0  0  0  0  0  0  0
   26.0004   -4.4698  106.3757 C   0  0  1  0  0  0  0  0  0  0  0  0
   26.9449   -3.7536  107.2454 O   0  0  0  0  0  0  0  0  0  0  0  0
   25.5435   -7.6416  108.4580 P   0  0  2  0  0  0  0  0  0  0  0  0
   28.0420   -3.2891  106.4047 C   0  0  2  0  0  0  0  0  0  0  0  0
   30.8472   -4.8457  107.9172 N   0  0  0  0  0  0  0  0  0  0  0  0
   28.2722   -3.0343  104.0385 O   0  0  0  0  0  0  0  0  0  0  0  0
   27.8619   -3.9263  105.0855 C   0  0  2  0  0  0  0  0  0  0  0  0
   32.9709   -1.8991  108.4871 N   0  0  0  0  0  0  0  0  0  0  0  0
   25.7405   -3.0451  104.4801 O   0  0  0  0  0  0  0  0  0  0  0  0
   26.4253   -4.2090  104.9934 C   0  0  2  0  0  0  0  0  0  0  0  0
   31.3572   -3.6270  107.6533 C   0  0  0  0  0  0  0  0  0  0  0  0
   30.4875   -1.5151  106.6047 N   0  0  0  0  0  0  0  0  0  0  0  0
   25.6059   -6.1640  107.9509 O   0  0  0  0  0  0  0  0  0  0  0  0
   26.0638   -5.9253  106.6551 C   0  0  0  0  0  0  0  0  0  0  0  0
   25.0739   -7.6735  109.9733 O   0  0  0  0  0  0  0  0  0  0  0  0
   29.5644   -4.8474  107.4832 C   0  0  0  0  0  0  0  0  0  0  0  0
   33.6962   -3.9318  107.7590 O   0  0  0  0  0  0  0  0  0  0  0  0
   32.7497   -3.1771  107.9676 C   0  0  0  0  0  0  0  0  0  0  0  0
   30.3713   -2.8619  107.0471 C   0  0  0  0  0  0  0  0  0  0  0  0
   26.8461   -8.3238  108.2873 O   0  5  0  0  0  0  0  0  0  0  0  0
   24.6486   -8.4697  107.6050 O   0  0  0  0  0  0  0  0  0  0  0  0
  1 17  1  0  0  0  0
  1 20  1  0  0  0  0
  2 15  1  1  0  0  0
  2  3  1  0  0  0  0
  2 11  1  0  0  0  0
  3  5  1  0  0  0  0
  4 16  1  1  0  0  0
  4 21  1  0  0  0  0
  4 22  2  0  0  0  0
  4 14  1  0  0  0  0
  5  1  1  1  0  0  0
  5  8  1  0  0  0  0
  6 17  2  0  0  0  0
  6 12  1  0  0  0  0
  8  7  1  6  0  0  0
  8 11  1  0  0  0  0
  9 19  1  0  0  0  0
 11 10  1  1  0  0  0
 12 20  2  0  0  0  0
 12 19  1  0  0  0  0
 13 20  1  0  0  0  0
 14 15  1  0  0  0  0
 18 19  2  0  0  0  0
M  CHG  1  21  -1
M  END
>  <CHROM.1>
43.58850379,65.61966729,176.88249647,178.32833276,-138.01388958,28.12470268
-4.79509954,107.14648694,0.48782856,-0.36850970,-0.74639185

>  <Name>
ligand

>  <RI>
0

>  <Rbt.Current_Directory>
/home/itssahil/PROJECTS/Mol_Feturizer/New_Systems/rnas/4XW7

>  <Rbt.Executable>
rbdock ($Id: //depot/dev/client3/rdock/2013.1/src/exe/rbdock.cxx#4 $)

>  <Rbt.Library>
libRbt.so (2013.1, Build901 2013/11/27)

>  <Rbt.Parameter_File>
/export/apps/rDock/src/rDock_2013.1_src/data/scripts/dock_solv.prm

>  <Rbt.Receptor>
prm/pocket_docking_2.prm

>  <SCORE>
-1.06729

>  <SCORE.INTER>
-0.547213

>  <SCORE.INTER.CONST>
1

>  <SCORE.INTER.POLAR>
0

>  <SCORE.INTER.ROT>
5

>  <SCORE.INTER.SOLV>
8.16744

>  <SCORE.INTER.VDW>
-10.0206

>  <SCORE.INTER.norm>
-0.0248733

>  <SCORE.INTRA>
-0.520081

>  <SCORE.INTRA.DIHEDRAL>
-0.653386

>  <SCORE.INTRA.DIHEDRAL.0>
2.61549

>  <SCORE.INTRA.POLAR>
0

>  <SCORE.INTRA.POLAR.0>
0

>  <SCORE.INTRA.REPUL>
0

>  <SCORE.INTRA.REPUL.0>
0

>  <SCORE.INTRA.SOLV>
0.461721

>  <SCORE.INTRA.SOLV.lig_0>
-73.766

>  <SCORE.INTRA.VDW>
-0.424248

>  <SCORE.INTRA.VDW.0>
-1.95055

>  <SCORE.INTRA.norm>
-0.02364

>  <SCORE.RESTR>
0

>  <SCORE.RESTR.CAVITY>
0

>  <SCORE.RESTR.norm>
0

>  <SCORE.SYSTEM>
0

>  <SCORE.SYSTEM.CONST>
0

>  <SCORE.SYSTEM.DIHEDRAL>
0

>  <SCORE.SYSTEM.SOLV>
0

>  <SCORE.SYSTEM.norm>
0

>  <SCORE.heavy>
22

>  <SCORE.norm>
-0.0485134

>  <RMSD>
1.260

$$$$
ligand
 OpenBabel11021811513D
libRbt.so/2013.1/901 2013/11/27
 22 23  0  0  0  0  0  0  0  0999 V2000
   29.3271   -3.6554  106.9436 N   0  0  0  0  0  0  0  0  0  0  0  0
   26.0693   -4.4968  106.3201 C   0  0  1  0  0  0  0  0  0  0  0  0
   26.9983   -3.7862  107.2109 O   0  0  0  0  0  0  0  0  0  0  0  0
   25.5827   -7.7215  108.3129 P   0  0  2  0  0  0  0  0  0  0  0  0
   28.0959   -3.2920  106.3880 C   0  0  2  0  0  0  0  0  0  0  0  0
   30.9002   -4.8352  107.9159 N   0  0  0  0  0  0  0  0  0  0  0  0
   28.3409   -2.9883  104.0291 O   0  0  0  0  0  0  0  0  0  0  0  0
   27.9337   -3.9055  105.0553 C   0  0  2  0  0  0  0  0  0  0  0  0
   33.0279   -1.9111  108.5003 N   0  0  0  0  0  0  0  0  0  0  0  0
   25.8062   -3.0387  104.4506 O   0  0  0  0  0  0  0  0  0  0  0  0
   26.5014   -4.2039  104.9465 C   0  0  2  0  0  0  0  0  0  0  0  0
   31.4130   -3.6217  107.6339 C   0  0  0  0  0  0  0  0  0  0  0  0
   30.5467   -1.5223  106.5578 N   0  0  0  0  0  0  0  0  0  0  0  0
   25.6228   -6.2339  107.8335 O   0  0  0  0  0  0  0  0  0  0  0  0
   26.1487   -5.9566  106.5716 C   0  0  0  0  0  0  0  0  0  0  0  0
   25.0016   -7.7986  109.7874 O   0  0  0  0  0  0  0  0  0  0  0  0
   29.6165   -4.8394  107.4848 C   0  0  0  0  0  0  0  0  0  0  0  0
   33.7559   -3.9098  107.6856 O   0  0  0  0  0  0  0  0  0  0  0  0
   32.8074   -3.1714  107.9388 C   0  0  0  0  0  0  0  0  0  0  0  0
   30.4278   -2.8624  107.0192 C   0  0  0  0  0  0  0  0  0  0  0  0
   26.9213   -8.3484  108.2322 O   0  5  0  0  0  0  0  0  0  0  0  0
   24.7895   -8.5692  107.3821 O   0  0  0  0  0  0  0  0  0  0  0  0
  1 17  1  0  0  0  0
  1 20  1  0  0  0  0
  2 15  1  1  0  0  0
  2  3  1  0  0  0  0
  2 11  1  0  0  0  0
  3  5  1  0  0  0  0
  4 16  1  1  0  0  0
  4 21  1  0  0  0  0
  4 22  2  0  0  0  0
  4 14  1  0  0  0  0
  5  1  1  1  0  0  0
  5  8  1  0  0  0  0
  6 17  2  0  0  0  0
  6 12  1  0  0  0  0
  8  7  1  6  0  0  0
  8 11  1  0  0  0  0
  9 19  1  0  0  0  0
 11 10  1  1  0  0  0
 12 20  2  0  0  0  0
 12 19  1  0  0  0  0
 13 20  1  0  0  0  0
 14 15  1  0  0  0  0
 18 19  2  0  0  0  0
M  CHG  1  21  -1
M  END
>  <CHROM.1>
41.41061594,68.51605010,177.84332505,179.18433064,-134.92111418,28.18017467
-4.81722564,107.08315048,0.49172443,-0.37544524,-0.72498840

>  <Name>
ligand

>  <RI>
0

>  <Rbt.Current_Directory>
/home/itssahil/PROJECTS/Mol_Feturizer/New_Systems/rnas/4XW7

>  <Rbt.Executable>
rbdock ($Id: //depot/dev/client3/rdock/2013.1/src/exe/rbdock.cxx#4 $)

>  <Rbt.Library>
libRbt.so (2013.1, Build901 2013/11/27)

>  <Rbt.Parameter_File>
/export/apps/rDock/src/rDock_2013.1_src/data/scripts/dock_solv.prm

>  <Rbt.Receptor>
prm/pocket_docking_2.prm

>  <SCORE>
-1.08905

>  <SCORE.INTER>
-0.590679

>  <SCORE.INTER.CONST>
1

>  <SCORE.INTER.POLAR>
0

>  <SCORE.INTER.ROT>
5

>  <SCORE.INTER.SOLV>
8.74388

>  <SCORE.INTER.VDW>
-10.2417

>  <SCORE.INTER.norm>
-0.026849

>  <SCORE.INTRA>
-0.499444

>  <SCORE.INTRA.DIHEDRAL>
-0.627666

>  <SCORE.INTRA.DIHEDRAL.0>
2.61549

>  <SCORE.INTRA.POLAR>
0

>  <SCORE.INTRA.POLAR.0>
0

>  <SCORE.INTRA.REPUL>
0

>  <SCORE.INTRA.REPUL.0>
0

>  <SCORE.INTRA.SOLV>
0.500674

>  <SCORE.INTRA.SOLV.lig_0>
-73.766

>  <SCORE.INTRA.VDW>
-0.435948

>  <SCORE.INTRA.VDW.0>
-1.95055

>  <SCORE.INTRA.norm>
-0.022702

>  <SCORE.RESTR>
0.00106828

>  <SCORE.RESTR.CAVITY>
0.00106828

>  <SCORE.RESTR.norm>
4.8558e-05

>  <SCORE.SYSTEM>
0

>  <SCORE.SYSTEM.CONST>
0

>  <SCORE.SYSTEM.DIHEDRAL>
0

>  <SCORE.SYSTEM.SOLV>
0

>  <SCORE.SYSTEM.norm>
0

>  <SCORE.heavy>
22

>  <SCORE.norm>
-0.0495025

>  <RMSD>
1.264

$$$$
ligand
 OpenBabel11021811513D
libRbt.so/2013.1/901 2013/11/27
 22 23  0  0  0  0  0  0  0  0999 V2000
   29.6092   -3.8722  107.2553 N   0  0  0  0  0  0  0  0  0  0  0  0
   26.3847   -4.9261  106.8064 C   0  0  1  0  0  0  0  0  0  0  0  0
   27.3349   -4.2481  107.7002 O   0  0  0  0  0  0  0  0  0  0  0  0
   26.2421   -8.4076  108.3651 P   0  0  2  0  0  0  0  0  0  0  0  0
   28.3052   -3.5579  106.8587 C   0  0  2  0  0  0  0  0  0  0  0  0
   31.3317   -4.9814  108.0392 N   0  0  0  0  0  0  0  0  0  0  0  0
   28.2974   -2.9453  104.5475 O   0  0  0  0  0  0  0  0  0  0  0  0
   28.0655   -4.0152  105.4758 C   0  0  2  0  0  0  0  0  0  0  0  0
   34.1583   -4.0758  108.3426 N   0  0  0  0  0  0  0  0  0  0  0  0
   25.8271   -3.2796  105.1728 O   0  0  0  0  0  0  0  0  0  0  0  0
   26.6580   -4.4282  105.4511 C   0  0  2  0  0  0  0  0  0  0  0  0
   31.7657   -3.7628  107.6629 C   0  0  0  0  0  0  0  0  0  0  0  0
   30.7019   -1.7184  106.6606 N   0  0  0  0  0  0  0  0  0  0  0  0
   26.2695   -6.8627  108.1269 O   0  0  0  0  0  0  0  0  0  0  0  0
   26.6047   -6.3923  106.8572 C   0  0  0  0  0  0  0  0  0  0  0  0
   25.1913   -9.0863  107.3889 O   0  0  0  0  0  0  0  0  0  0  0  0
   30.0032   -5.0324  107.7817 C   0  0  0  0  0  0  0  0  0  0  0  0
   33.4575   -2.1436  107.3609 O   0  0  0  0  0  0  0  0  0  0  0  0
   33.1737   -3.2666  107.7699 C   0  0  0  0  0  0  0  0  0  0  0  0
   30.6857   -3.0479  107.1657 C   0  0  0  0  0  0  0  0  0  0  0  0
   25.9431   -8.7281  109.7790 O   0  5  0  0  0  0  0  0  0  0  0  0
   27.5935   -9.0062  108.1933 O   0  0  0  0  0  0  0  0  0  0  0  0
  1 17  1  0  0  0  0
  1 20  1  0  0  0  0
  2 15  1  6  0  0  0
  2  3  1  0  0  0  0
  2 11  1  0  0  0  0
  3  5  1  0  0  0  0
  4 16  1  6  0  0  0
  4 21  1  0  0  0  0
  4 22  2  0  0  0  0
  4 14  1  0  0  0  0
  5  1  1  1  0  0  0
  5  8  1  0  0  0  0
  6 17  2  0  0  0  0
  6 12  1  0  0  0  0
  8  7  1  6  0  0  0
  8 11  1  0  0  0  0
  9 19  1  0  0  0  0
 11 10  1  1  0  0  0
 12 20  2  0  0  0  0
 12 19  1  0  0  0  0
 13 20  1  0  0  0  0
 14 15  1  0  0  0  0
 18 19  2  0  0  0  0
M  CHG  1  21  -1
M  END
>  <CHROM.1>
31.73193582,66.51313714,-59.56868226,172.15800811,-2.33081561,28.55881726
-5.15847799,107.28254061,0.62516356,-0.32790221,-0.56405900

>  <Name>
ligand

>  <RI>
0

>  <Rbt.Current_Directory>
/home/itssahil/PROJECTS/Mol_Feturizer/New_Systems/rnas/4XW7

>  <Rbt.Executable>
rbdock ($Id: //depot/dev/client3/rdock/2013.1/src/exe/rbdock.cxx#4 $)

>  <Rbt.Library>
libRbt.so (2013.1, Build901 2013/11/27)

>  <Rbt.Parameter_File>
/export/apps/rDock/src/rDock_2013.1_src/data/scripts/dock_solv.prm

>  <Rbt.Receptor>
prm/pocket_docking_3.prm

>  <SCORE>
-2.45408

>  <SCORE.INTER>
-1.73245

>  <SCORE.INTER.CONST>
1

>  <SCORE.INTER.POLAR>
0

>  <SCORE.INTER.ROT>
5

>  <SCORE.INTER.SOLV>
11.3292

>  <SCORE.INTER.VDW>
-11.8647

>  <SCORE.INTER.norm>
-0.0787477

>  <SCORE.INTRA>
-0.721631

>  <SCORE.INTRA.DIHEDRAL>
-0.679052

>  <SCORE.INTRA.DIHEDRAL.0>
2.61549

>  <SCORE.INTRA.POLAR>
0

>  <SCORE.INTRA.POLAR.0>
0

>  <SCORE.INTRA.REPUL>
0

>  <SCORE.INTRA.REPUL.0>
0

>  <SCORE.INTRA.SOLV>
0.0691821

>  <SCORE.INTRA.SOLV.lig_0>
-73.766

>  <SCORE.INTRA.VDW>
-0.416696

>  <SCORE.INTRA.VDW.0>
-1.95055

>  <SCORE.INTRA.norm>
-0.0328014

>  <SCORE.RESTR>
0

>  <SCORE.RESTR.CAVITY>
0

>  <SCORE.RESTR.norm>
0

>  <SCORE.SYSTEM>
0

>  <SCORE.SYSTEM.CONST>
0

>  <SCORE.SYSTEM.DIHEDRAL>
0

>  <SCORE.SYSTEM.SOLV>
0

>  <SCORE.SYSTEM.norm>
0

>  <SCORE.heavy>
22

>  <SCORE.norm>
-0.111549

>  <RMSD>
1.268

$$$$
ligand
 OpenBabel11021811513D
libRbt.so/2013.1/901 2013/11/27
 22 23  0  0  0  0  0  0  0  0999 V2000
   29.4109   -3.7502  107.1130 N   0  0  0  0  0  0  0  0  0  0  0  0
   26.0857   -4.5363  106.9258 C   0  0  1  0  0  0  0  0  0  0  0  0
   27.1172   -3.7464  107.6139 O   0  0  0  0  0  0  0  0  0  0  0  0
   24.9701   -8.1865  107.1197 P   0  0  2  0  0  0  0  0  0  0  0  0
   28.1412   -3.4182  106.6291 C   0  0  2  0  0  0  0  0  0  0  0  0
   31.0690   -4.8928  107.9830 N   0  0  0  0  0  0  0  0  0  0  0  0
   28.1601   -3.4593  104.2385 O   0  0  0  0  0  0  0  0  0  0  0  0
   27.8314   -4.2057  105.4196 C   0  0  2  0  0  0  0  0  0  0  0  0
   33.1357   -1.8989  108.4662 N   0  0  0  0  0  0  0  0  0  0  0  0
   25.6790   -3.3457  104.8991 O   0  0  0  0  0  0  0  0  0  0  0  0
   26.3878   -4.4573  105.4899 C   0  0  2  0  0  0  0  0  0  0  0  0
   31.5288   -3.6604  107.6917 C   0  0  0  0  0  0  0  0  0  0  0  0
   30.5426   -1.5754  106.6938 N   0  0  0  0  0  0  0  0  0  0  0  0
   25.1158   -6.6681  106.7771 O   0  0  0  0  0  0  0  0  0  0  0  0
   26.1497   -5.9483  107.3761 C   0  0  0  0  0  0  0  0  0  0  0  0
   24.9200   -8.3831  108.6934 O   0  0  0  0  0  0  0  0  0  0  0  0
   29.7647   -4.9315  107.6208 C   0  0  0  0  0  0  0  0  0  0  0  0
   33.8785   -3.8875  107.6403 O   0  0  0  0  0  0  0  0  0  0  0  0
   32.9233   -3.1709  107.9285 C   0  0  0  0  0  0  0  0  0  0  0  0
   30.4895   -2.9243  107.1414 C   0  0  0  0  0  0  0  0  0  0  0  0
   26.0635   -8.9810  106.5160 O   0  5  0  0  0  0  0  0  0  0  0  0
   23.7676   -8.7752  106.4704 O   0  0  0  0  0  0  0  0  0  0  0  0
  1 17  1  0  0  0  0
  1 20  1  0  0  0  0
  2 15  1  1  0  0  0
  2  3  1  0  0  0  0
  2 11  1  0  0  0  0
  3  5  1  0  0  0  0
  4 16  1  1  0  0  0
  4 21  1  0  0  0  0
  4 22  2  0  0  0  0
  4 14  1  0  0  0  0
  5  1  1  1  0  0  0
  5  8  1  0  0  0  0
  6 17  2  0  0  0  0
  6 12  1  0  0  0  0
  8  7  1  6  0  0  0
  8 11  1  0  0  0  0
  9 19  1  0  0  0  0
 11 10  1  1  0  0  0
 12 20  2  0  0  0  0
 12 19  1  0  0  0  0
 13 20  1  0  0  0  0
 14 15  1  0  0  0  0
 18 19  2  0  0  0  0
M  CHG  1  21  -1
M  END
>  <CHROM.1>
51.43807421,176.45687212,52.72442486,-179.19801906,-136.44113751,28.02451993
-5.02939198,106.91719853,0.47728128,-0.37149682,-0.48818756

>  <Name>
ligand

>  <RI>
0

>  <Rbt.Current_Directory>
/home/itssahil/PROJECTS/Mol_Feturizer/New_Systems/rnas/4XW7

>  <Rbt.Executable>
rbdock ($Id: //depot/dev/client3/rdock/2013.1/src/exe/rbdock.cxx#4 $)

>  <Rbt.Library>
libRbt.so (2013.1, Build901 2013/11/27)

>  <Rbt.Parameter_File>
/export/apps/rDock/src/rDock_2013.1_src/data/scripts/dock_solv.prm

>  <Rbt.Receptor>
prm/pocket_docking_2.prm

>  <SCORE>
-1.49588

>  <SCORE.INTER>
-0.750557

>  <SCORE.INTER.CONST>
1

>  <SCORE.INTER.POLAR>
0

>  <SCORE.INTER.ROT>
5

>  <SCORE.INTER.SOLV>
8.795

>  <SCORE.INTER.VDW>
-10.3654

>  <SCORE.INTER.norm>
-0.0341162

>  <SCORE.INTRA>
-0.746282

>  <SCORE.INTRA.DIHEDRAL>
-0.722552

>  <SCORE.INTRA.DIHEDRAL.0>
2.61549

>  <SCORE.INTRA.POLAR>
0

>  <SCORE.INTRA.POLAR.0>
0

>  <SCORE.INTRA.REPUL>
0

>  <SCORE.INTRA.REPUL.0>
0

>  <SCORE.INTRA.SOLV>
-0.306358

>  <SCORE.INTRA.SOLV.lig_0>
-73.766

>  <SCORE.INTRA.VDW>
-0.231827

>  <SCORE.INTRA.VDW.0>
-1.95055

>  <SCORE.INTRA.norm>
-0.0339219

>  <SCORE.RESTR>
0.000955587

>  <SCORE.RESTR.CAVITY>
0.000955587

>  <SCORE.RESTR.norm>
4.34358e-05

>  <SCORE.SYSTEM>
0

>  <SCORE.SYSTEM.CONST>
0

>  <SCORE.SYSTEM.DIHEDRAL>
0

>  <SCORE.SYSTEM.SOLV>
0

>  <SCORE.SYSTEM.norm>
0

>  <SCORE.heavy>
22

>  <SCORE.norm>
-0.0679947

>  <RMSD>
1.271

$$$$
ligand
 OpenBabel11021811513D
libRbt.so/2013.1/901 2013/11/27
 22 23  0  0  0  0  0  0  0  0999 V2000
   29.3220   -3.8519  107.0320 N   0  0  0  0  0  0  0  0  0  0  0  0
   26.0884   -4.8970  106.6300 C   0  0  1  0  0  0  0  0  0  0  0  0
   27.0159   -4.0693  107.4149 O   0  0  0  0  0  0  0  0  0  0  0  0
   24.0489   -6.6930  108.2140 P   0  0  2  0  0  0  0  0  0  0  0  0
   28.0520   -3.5963  106.5044 C   0  0  2  0  0  0  0  0  0  0  0  0
   30.9967   -4.8740  108.0131 N   0  0  0  0  0  0  0  0  0  0  0  0
   28.1836   -3.4855  104.1196 O   0  0  0  0  0  0  0  0  0  0  0  0
   27.8664   -4.3292  105.2366 C   0  0  2  0  0  0  0  0  0  0  0  0
   32.9720   -1.7626  108.1960 N   0  0  0  0  0  0  0  0  0  0  0  0
   25.6743   -3.6192  104.6587 O   0  0  0  0  0  0  0  0  0  0  0  0
   26.4480   -4.7033  105.2185 C   0  0  2  0  0  0  0  0  0  0  0  0
   31.4259   -3.6544  107.6345 C   0  0  0  0  0  0  0  0  0  0  0  0
   30.3980   -1.6827  106.4633 N   0  0  0  0  0  0  0  0  0  0  0  0
   25.6068   -6.5613  108.2129 O   0  0  0  0  0  0  0  0  0  0  0  0
   26.2524   -6.3244  106.9993 C   0  0  0  0  0  0  0  0  0  0  0  0
   23.4049   -5.4968  107.3942 O   0  0  0  0  0  0  0  0  0  0  0  0
   29.7006   -4.9795  107.6350 C   0  0  0  0  0  0  0  0  0  0  0  0
   33.7781   -3.8400  107.7238 O   0  0  0  0  0  0  0  0  0  0  0  0
   32.8013   -3.1065  107.8540 C   0  0  0  0  0  0  0  0  0  0  0  0
   30.3757   -2.9943  107.0130 C   0  0  0  0  0  0  0  0  0  0  0  0
   23.5149   -6.7443  109.5937 O   0  5  0  0  0  0  0  0  0  0  0  0
   23.6161   -8.0076  107.6677 O   0  0  0  0  0  0  0  0  0  0  0  0
  1 17  1  0  0  0  0
  1 20  1  0  0  0  0
  2 15  1  1  0  0  0
  2  3  1  0  0  0  0
  2 11  1  0  0  0  0
  3  5  1  0  0  0  0
  4 16  1  6  0  0  0
  4 21  1  0  0  0  0
  4 22  2  0  0  0  0
  4 14  1  0  0  0  0
  5  1  1  1  0  0  0
  5  8  1  0  0  0  0
  6 17  2  0  0  0  0
  6 12  1  0  0  0  0
  8  7  1  6  0  0  0
  8 11  1  0  0  0  0
  9 19  1  0  0  0  0
 11 10  1  1  0  0  0
 12 20  2  0  0  0  0
 12 19  1  0  0  0  0
 13 20  1  0  0  0  0
 14 15  1  0  0  0  0
 18 19  2  0  0  0  0
M  CHG  1  21  -1
M  END
>  <CHROM.1>
42.73265665,77.76008759,-48.12857765,77.09233520,-141.32604444,27.71794914
-4.68127804,107.12843512,0.26685884,-0.32103352,-0.98180544

>  <Name>
ligand

>  <RI>
0

>  <Rbt.Current_Directory>
/home/itssahil/PROJECTS/Mol_Feturizer/New_Systems/rnas/4XW7

>  <Rbt.Executable>
rbdock ($Id: //depot/dev/client3/rdock/2013.1/src/exe/rbdock.cxx#4 $)

>  <Rbt.Library>
libRbt.so (2013.1, Build901 2013/11/27)

>  <Rbt.Parameter_File>
/export/apps/rDock/src/rDock_2013.1_src/data/scripts/dock_solv.prm

>  <Rbt.Receptor>
prm/pocket_docking_2.prm

>  <SCORE>
0.136773

>  <SCORE.INTER>
-0.912305

>  <SCORE.INTER.CONST>
1

>  <SCORE.INTER.POLAR>
0

>  <SCORE.INTER.ROT>
5

>  <SCORE.INTER.SOLV>
9.14593

>  <SCORE.INTER.VDW>
-10.5902

>  <SCORE.INTER.norm>
-0.0414684

>  <SCORE.INTRA>
0.978322

>  <SCORE.INTRA.DIHEDRAL>
1.95554

>  <SCORE.INTRA.DIHEDRAL.0>
2.61549

>  <SCORE.INTRA.POLAR>
0

>  <SCORE.INTRA.POLAR.0>
0

>  <SCORE.INTRA.REPUL>
0

>  <SCORE.INTRA.REPUL.0>
0

>  <SCORE.INTRA.SOLV>
0.66903

>  <SCORE.INTRA.SOLV.lig_0>
-73.766

>  <SCORE.INTRA.VDW>
-0.333964

>  <SCORE.INTRA.VDW.0>
-1.95055

>  <SCORE.INTRA.norm>
0.0444692

>  <SCORE.RESTR>
0.0707566

>  <SCORE.RESTR.CAVITY>
0.0707566

>  <SCORE.RESTR.norm>
0.00321621

>  <SCORE.SYSTEM>
0

>  <SCORE.SYSTEM.CONST>
0

>  <SCORE.SYSTEM.DIHEDRAL>
0

>  <SCORE.SYSTEM.SOLV>
0

>  <SCORE.SYSTEM.norm>
0

>  <SCORE.heavy>
22

>  <SCORE.norm>
0.00621696

>  <RMSD>
1.290

$$$$
ligand
 OpenBabel11021811513D
libRbt.so/2013.1/901 2013/11/27
 22 23  0  0  0  0  0  0  0  0999 V2000
   29.6293   -3.8570  107.3432 N   0  0  0  0  0  0  0  0  0  0  0  0
   26.3894   -4.8877  107.7319 C   0  0  1  0  0  0  0  0  0  0  0  0
   27.4440   -3.9734  108.1936 O   0  0  0  0  0  0  0  0  0  0  0  0
   25.6280   -8.5836  108.3374 P   0  0  2  0  0  0  0  0  0  0  0  0
   28.2784   -3.6559  107.0408 C   0  0  2  0  0  0  0  0  0  0  0  0
   31.4930   -4.8174  107.9880 N   0  0  0  0  0  0  0  0  0  0  0  0
   27.9421   -3.8917  104.6853 O   0  0  0  0  0  0  0  0  0  0  0  0
   27.8566   -4.5599  105.9527 C   0  0  2  0  0  0  0  0  0  0  0  0
   34.2498   -3.6806  108.0777 N   0  0  0  0  0  0  0  0  0  0  0  0
   25.5872   -3.8991  105.7146 O   0  0  0  0  0  0  0  0  0  0  0  0
   26.4654   -4.9058  106.2645 C   0  0  2  0  0  0  0  0  0  0  0  0
   31.7901   -3.5593  107.6085 C   0  0  0  0  0  0  0  0  0  0  0  0
   30.4827   -1.6051  106.7211 N   0  0  0  0  0  0  0  0  0  0  0  0
   25.5765   -7.0824  107.9037 O   0  0  0  0  0  0  0  0  0  0  0  0
   26.6359   -6.2500  108.2649 C   0  0  0  0  0  0  0  0  0  0  0  0
   26.9346   -9.2700  107.7547 O   0  0  0  0  0  0  0  0  0  0  0  0
   30.1599   -4.9843  107.8185 C   0  0  0  0  0  0  0  0  0  0  0  0
   33.2996   -1.7762  107.2661 O   0  0  0  0  0  0  0  0  0  0  0  0
   33.1524   -2.9397  107.6317 C   0  0  0  0  0  0  0  0  0  0  0  0
   30.6194   -2.9377  107.1990 C   0  0  0  0  0  0  0  0  0  0  0  0
   24.4088   -9.3078  107.9130 O   0  5  0  0  0  0  0  0  0  0  0  0
   25.5681   -8.7219  109.8178 O   0  0  0  0  0  0  0  0  0  0  0  0
  1 17  1  0  0  0  0
  1 20  1  0  0  0  0
  2 15  1  1  0  0  0
  2  3  1  0  0  0  0
  2 11  1  0  0  0  0
  3  5  1  0  0  0  0
  4 16  1  6  0  0  0
  4 21  1  0  0  0  0
  4 22  2  0  0  0  0
  4 14  1  0  0  0  0
  5  1  1  1  0  0  0
  5  8  1  0  0  0  0
  6 17  2  0  0  0  0
  6 12  1  0  0  0  0
  8  7  1  6  0  0  0
  8 11  1  0  0  0  0
  9 19  1  0  0  0  0
 11 10  1  6  0  0  0
 12 20  2  0  0  0  0
 12 19  1  0  0  0  0
 13 20  1  0  0  0  0
 14 15  1  0  0  0  0
 18 19  2  0  0  0  0
M  CHG  1  21  -1
M  END
>  <CHROM.1>
54.46285543,175.56245312,-58.31658149,178.99290508,-0.11142258,28.33800491
-5.23625363,107.47074641,0.62435818,-0.28217465,-0.51970716

>  <Name>
ligand

>  <RI>
0

>  <Rbt.Current_Directory>
/home/itssahil/PROJECTS/Mol_Feturizer/New_Systems/rnas/4XW7

>  <Rbt.Executable>
rbdock ($Id: //depot/dev/client3/rdock/2013.1/src/exe/rbdock.cxx#4 $)

>  <Rbt.Library>
libRbt.so (2013.1, Build901 2013/11/27)

>  <Rbt.Parameter_File>
/export/apps/rDock/src/rDock_2013.1_src/data/scripts/dock_solv.prm

>  <Rbt.Receptor>
prm/pocket_docking_3.prm

>  <SCORE>
-2.52691

>  <SCORE.INTER>
-1.67075

>  <SCORE.INTER.CONST>
1

>  <SCORE.INTER.POLAR>
0

>  <SCORE.INTER.ROT>
5

>  <SCORE.INTER.SOLV>
10.6108

>  <SCORE.INTER.VDW>
-11.5841

>  <SCORE.INTER.norm>
-0.0759432

>  <SCORE.INTRA>
-0.856163

>  <SCORE.INTRA.DIHEDRAL>
-1.06333

>  <SCORE.INTRA.DIHEDRAL.0>
2.61549

>  <SCORE.INTRA.POLAR>
0

>  <SCORE.INTRA.POLAR.0>
0

>  <SCORE.INTRA.REPUL>
0

>  <SCORE.INTRA.REPUL.0>
0

>  <SCORE.INTRA.SOLV>
-0.4587

>  <SCORE.INTRA.SOLV.lig_0>
-73.766

>  <SCORE.INTRA.VDW>
-0.0951484

>  <SCORE.INTRA.VDW.0>
-1.95055

>  <SCORE.INTRA.norm>
-0.0389165

>  <SCORE.RESTR>
0

>  <SCORE.RESTR.CAVITY>
0

>  <SCORE.RESTR.norm>
0

>  <SCORE.SYSTEM>
0

>  <SCORE.SYSTEM.CONST>
0

>  <SCORE.SYSTEM.DIHEDRAL>
0

>  <SCORE.SYSTEM.SOLV>
0

>  <SCORE.SYSTEM.norm>
0

>  <SCORE.heavy>
22

>  <SCORE.norm>
-0.11486

>  <RMSD>
1.363

$$$$
ligand
 OpenBabel11021811513D
libRbt.so/2013.1/901 2013/11/27
 22 23  0  0  0  0  0  0  0  0999 V2000
   29.6540   -3.8922  107.3889 N   0  0  0  0  0  0  0  0  0  0  0  0
   26.4214   -4.9683  107.7083 C   0  0  1  0  0  0  0  0  0  0  0  0
   27.4675   -4.0735  108.2245 O   0  0  0  0  0  0  0  0  0  0  0  0
   25.6746   -8.6934  108.1239 P   0  0  2  0  0  0  0  0  0  0  0  0
   28.3024   -3.6848  107.0941 C   0  0  2  0  0  0  0  0  0  0  0  0
   31.5162   -4.8602  108.0267 N   0  0  0  0  0  0  0  0  0  0  0  0
   27.9743   -3.7891  104.7280 O   0  0  0  0  0  0  0  0  0  0  0  0
   27.8907   -4.5288  105.9552 C   0  0  2  0  0  0  0  0  0  0  0  0
   34.2787   -3.7363  108.1014 N   0  0  0  0  0  0  0  0  0  0  0  0
   25.6168   -3.8731  105.7478 O   0  0  0  0  0  0  0  0  0  0  0  0
   26.5014   -4.9025  106.2425 C   0  0  2  0  0  0  0  0  0  0  0  0
   31.8182   -3.6059  107.6387 C   0  0  0  0  0  0  0  0  0  0  0  0
   30.5166   -1.6486  106.7496 N   0  0  0  0  0  0  0  0  0  0  0  0
   25.6203   -7.1735  107.7616 O   0  0  0  0  0  0  0  0  0  0  0  0
   26.6771   -6.3567  108.1640 C   0  0  0  0  0  0  0  0  0  0  0  0
   26.9911   -9.3452  107.5242 O   0  0  0  0  0  0  0  0  0  0  0  0
   30.1811   -5.0202  107.8666 C   0  0  0  0  0  0  0  0  0  0  0  0
   33.3372   -1.8362  107.2696 O   0  0  0  0  0  0  0  0  0  0  0  0
   33.1842   -2.9942  107.6500 C   0  0  0  0  0  0  0  0  0  0  0  0
   30.6485   -2.9795  107.2335 C   0  0  0  0  0  0  0  0  0  0  0  0
   24.4639   -9.4020  107.6514 O   0  5  0  0  0  0  0  0  0  0  0  0
   25.5987   -8.9025  109.5952 O   0  0  0  0  0  0  0  0  0  0  0  0
  1 17  1  0  0  0  0
  1 20  1  0  0  0  0
  2 15  1  1  0  0  0
  2  3  1  0  0  0  0
  2 11  1  0  0  0  0
  3  5  1  0  0  0  0
  4 16  1  6  0  0  0
  4 21  1  0  0  0  0
  4 22  2  0  0  0  0
  4 14  1  0  0  0  0
  5  1  1  1  0  0  0
  5  8  1  0  0  0  0
  6 17  2  0  0  0  0
  6 12  1  0  0  0  0
  8  7  1  6  0  0  0
  8 11  1  0  0  0  0
  9 19  1  0  0  0  0
 11 10  1  1  0  0  0
 12 20  2  0  0  0  0
 12 19  1  0  0  0  0
 13 20  1  0  0  0  0
 14 15  1  0  0  0  0
 18 19  2  0  0  0  0
M  CHG  1  21  -1
M  END
>  <CHROM.1>
50.78864519,175.11481281,-57.75497021,179.59809194,-0.55331427,28.37288409
-5.29115007,107.42107557,0.62980259,-0.28066449,-0.47227381

>  <Name>
ligand

>  <RI>
0

>  <Rbt.Current_Directory>
/home/itssahil/PROJECTS/Mol_Feturizer/New_Systems/rnas/4XW7

>  <Rbt.Executable>
rbdock ($Id: //depot/dev/client3/rdock/2013.1/src/exe/rbdock.cxx#4 $)

>  <Rbt.Library>
libRbt.so (2013.1, Build901 2013/11/27)

>  <Rbt.Parameter_File>
/export/apps/rDock/src/rDock_2013.1_src/data/scripts/dock_solv.prm

>  <Rbt.Receptor>
prm/pocket_docking_3.prm

>  <SCORE>
-2.56102

>  <SCORE.INTER>
-1.70398

>  <SCORE.INTER.CONST>
1

>  <SCORE.INTER.POLAR>
0

>  <SCORE.INTER.ROT>
5

>  <SCORE.INTER.SOLV>
10.7437

>  <SCORE.INTER.VDW>
-11.6506

>  <SCORE.INTER.norm>
-0.0774538

>  <SCORE.INTRA>
-0.857038

>  <SCORE.INTRA.DIHEDRAL>
-1.05028

>  <SCORE.INTRA.DIHEDRAL.0>
2.61549

>  <SCORE.INTRA.POLAR>
0

>  <SCORE.INTRA.POLAR.0>
0

>  <SCORE.INTRA.REPUL>
0

>  <SCORE.INTRA.REPUL.0>
0

>  <SCORE.INTRA.SOLV>
-0.365731

>  <SCORE.INTRA.SOLV.lig_0>
-73.766

>  <SCORE.INTRA.VDW>
-0.149032

>  <SCORE.INTRA.VDW.0>
-1.95055

>  <SCORE.INTRA.norm>
-0.0389563

>  <SCORE.RESTR>
0

>  <SCORE.RESTR.CAVITY>
0

>  <SCORE.RESTR.norm>
0

>  <SCORE.SYSTEM>
0

>  <SCORE.SYSTEM.CONST>
0

>  <SCORE.SYSTEM.DIHEDRAL>
0

>  <SCORE.SYSTEM.SOLV>
0

>  <SCORE.SYSTEM.norm>
0

>  <SCORE.heavy>
22

>  <SCORE.norm>
-0.11641

>  <RMSD>
1.404

$$$$
ligand
 OpenBabel11021811513D
libRbt.so/2013.1/901 2013/11/27
 22 23  0  0  0  0  0  0  0  0999 V2000
   28.4066   -3.6768  106.4196 N   0  0  0  0  0  0  0  0  0  0  0  0
   25.0434   -3.5954  105.7931 C   0  0  1  0  0  0  0  0  0  0  0  0
   26.1653   -2.9850  106.5211 O   0  0  0  0  0  0  0  0  0  0  0  0
   25.5664   -7.1376  107.1294 P   0  0  2  0  0  0  0  0  0  0  0  0
   27.3520   -3.1242  105.6853 C   0  0  2  0  0  0  0  0  0  0  0  0
   29.6143   -5.1012  107.5704 N   0  0  0  0  0  0  0  0  0  0  0  0
   27.6484   -3.6168  103.3645 O   0  0  0  0  0  0  0  0  0  0  0  0
   26.9805   -4.0172  104.5702 C   0  0  2  0  0  0  0  0  0  0  0  0
   32.5984   -2.9168  107.3367 N   0  0  0  0  0  0  0  0  0  0  0  0
   25.2408   -2.7426  103.5740 O   0  0  0  0  0  0  0  0  0  0  0  0
   25.5275   -3.8684  104.4327 C   0  0  2  0  0  0  0  0  0  0  0  0
   30.3222   -3.9605  107.4580 C   0  0  0  0  0  0  0  0  0  0  0  0
   29.9418   -1.7202  106.3847 N   0  0  0  0  0  0  0  0  0  0  0  0
   25.7396   -5.7343  106.4623 O   0  0  0  0  0  0  0  0  0  0  0  0
   24.6485   -4.8653  106.4504 C   0  0  0  0  0  0  0  0  0  0  0  0
   24.3956   -7.9350  106.4144 O   0  0  0  0  0  0  0  0  0  0  0  0
   28.4386   -4.9100  106.9261 C   0  0  0  0  0  0  0  0  0  0  0  0
   32.0029   -4.2398  109.0927 O   0  0  0  0  0  0  0  0  0  0  0  0
   31.6863   -3.7207  108.0254 C   0  0  0  0  0  0  0  0  0  0  0  0
   29.5696   -3.0480  106.7329 C   0  0  0  0  0  0  0  0  0  0  0  0
   25.3191   -7.0145  108.5837 O   0  5  0  0  0  0  0  0  0  0  0  0
   26.8361   -7.9128  107.0979 O   0  0  0  0  0  0  0  0  0  0  0  0
  1 17  1  0  0  0  0
  1 20  1  0  0  0  0
  2 15  1  1  0  0  0
  2  3  1  0  0  0  0
  2 11  1  0  0  0  0
  3  5  1  0  0  0  0
  4 16  1  6  0  0  0
  4 21  1  0  0  0  0
  4 22  2  0  0  0  0
  4 14  1  0  0  0  0
  5  1  1  1  0  0  0
  5  8  1  0  0  0  0
  6 17  2  0  0  0  0
  6 12  1  0  0  0  0
  8  7  1  6  0  0  0
  8 11  1  0  0  0  0
  9 19  1  0  0  0  0
 11 10  1  6  0  0  0
 12 20  2  0  0  0  0
 12 19  1  0  0  0  0
 13 20  1  0  0  0  0
 14 15  1  0  0  0  0
 18 19  2  0  0  0  0
M  CHG  1  21  -1
M  END
>  <CHROM.1>
65.62192692,-59.27143699,58.65824017,179.06760236,145.47399276,27.48651979
-4.64868498,106.48310455,0.21897322,-0.41043485,-0.65731003

>  <Name>
ligand

>  <RI>
0

>  <Rbt.Current_Directory>
/home/itssahil/PROJECTS/Mol_Feturizer/New_Systems/rnas/4XW7

>  <Rbt.Executable>
rbdock ($Id: //depot/dev/client3/rdock/2013.1/src/exe/rbdock.cxx#4 $)

>  <Rbt.Library>
libRbt.so (2013.1, Build901 2013/11/27)

>  <Rbt.Parameter_File>
/export/apps/rDock/src/rDock_2013.1_src/data/scripts/dock_solv.prm

>  <Rbt.Receptor>
prm/pocket_docking_2.prm

>  <SCORE>
2.35302

>  <SCORE.INTER>
2.93341

>  <SCORE.INTER.CONST>
1

>  <SCORE.INTER.POLAR>
0

>  <SCORE.INTER.ROT>
5

>  <SCORE.INTER.SOLV>
7.42385

>  <SCORE.INTER.VDW>
-7.45234

>  <SCORE.INTER.norm>
0.133337

>  <SCORE.INTRA>
-0.580393

>  <SCORE.INTRA.DIHEDRAL>
-0.490587

>  <SCORE.INTRA.DIHEDRAL.0>
2.61549

>  <SCORE.INTRA.POLAR>
0

>  <SCORE.INTRA.POLAR.0>
0

>  <SCORE.INTRA.REPUL>
0

>  <SCORE.INTRA.REPUL.0>
0

>  <SCORE.INTRA.SOLV>
0.361559

>  <SCORE.INTRA.SOLV.lig_0>
-73.766

>  <SCORE.INTRA.VDW>
-0.515879

>  <SCORE.INTRA.VDW.0>
-1.95055

>  <SCORE.INTRA.norm>
-0.0263815

>  <SCORE.RESTR>
0

>  <SCORE.RESTR.CAVITY>
0

>  <SCORE.RESTR.norm>
0

>  <SCORE.SYSTEM>
0

>  <SCORE.SYSTEM.CONST>
0

>  <SCORE.SYSTEM.DIHEDRAL>
0

>  <SCORE.SYSTEM.SOLV>
0

>  <SCORE.SYSTEM.norm>
0

>  <SCORE.heavy>
22

>  <SCORE.norm>
0.106955

>  <RMSD>
1.428

$$$$
ligand
 OpenBabel11021811513D
libRbt.so/2013.1/901 2013/11/27
 22 23  0  0  0  0  0  0  0  0999 V2000
   29.6710   -3.8832  107.3761 N   0  0  0  0  0  0  0  0  0  0  0  0
   26.4686   -5.0442  107.7026 C   0  0  1  0  0  0  0  0  0  0  0  0
   27.5001   -4.1405  108.2324 O   0  0  0  0  0  0  0  0  0  0  0  0
   25.7732   -8.7816  108.0943 P   0  0  2  0  0  0  0  0  0  0  0  0
   28.3113   -3.6992  107.1040 C   0  0  2  0  0  0  0  0  0  0  0  0
   31.5597   -4.8180  107.9851 N   0  0  0  0  0  0  0  0  0  0  0  0
   27.9555   -3.7418  104.7400 O   0  0  0  0  0  0  0  0  0  0  0  0
   27.9047   -4.5189  105.9457 C   0  0  2  0  0  0  0  0  0  0  0  0
   34.3099   -3.6619  107.9690 N   0  0  0  0  0  0  0  0  0  0  0  0
   25.6138   -3.9112  105.7853 O   0  0  0  0  0  0  0  0  0  0  0  0
   26.5283   -4.9336  106.2386 C   0  0  2  0  0  0  0  0  0  0  0  0
   31.8342   -3.5604  107.5877 C   0  0  0  0  0  0  0  0  0  0  0  0
   30.4853   -1.6281  106.7144 N   0  0  0  0  0  0  0  0  0  0  0  0
   25.7042   -7.2628  107.7299 O   0  0  0  0  0  0  0  0  0  0  0  0
   26.7623   -6.4389  108.1139 C   0  0  0  0  0  0  0  0  0  0  0  0
   25.9123   -8.9545  109.6655 O   0  0  0  0  0  0  0  0  0  0  0  0
   30.2248   -5.0006  107.8486 C   0  0  0  0  0  0  0  0  0  0  0  0
   33.3120   -1.7557  107.2212 O   0  0  0  0  0  0  0  0  0  0  0  0
   33.1899   -2.9262  107.5733 C   0  0  0  0  0  0  0  0  0  0  0  0
   30.6475   -2.9549  107.2006 C   0  0  0  0  0  0  0  0  0  0  0  0
   26.8821   -9.4553  107.3819 O   0  5  0  0  0  0  0  0  0  0  0  0
   24.5859   -9.5164  107.5801 O   0  0  0  0  0  0  0  0  0  0  0  0
  1 17  1  0  0  0  0
  1 20  1  0  0  0  0
  2 15  1  6  0  0  0
  2  3  1  0  0  0  0
  2 11  1  0  0  0  0
  3  5  1  0  0  0  0
  4 16  1  1  0  0  0
  4 21  1  0  0  0  0
  4 22  2  0  0  0  0
  4 14  1  0  0  0  0
  5  1  1  1  0  0  0
  5  8  1  0  0  0  0
  6 17  2  0  0  0  0
  6 12  1  0  0  0  0
  8  7  1  6  0  0  0
  8 11  1  0  0  0  0
  9 19  1  0  0  0  0
 11 10  1  1  0  0  0
 12 20  2  0  0  0  0
 12 19  1  0  0  0  0
 13 20  1  0  0  0  0
 14 15  1  0  0  0  0
 18 19  2  0  0  0  0
M  CHG  1  21  -1
M  END
>  <CHROM.1>
48.83625604,173.64272140,58.10597371,-178.38029273,1.43410181,28.41381799
-5.31206253,107.39175974,0.65375409,-0.28271477,-0.45826779

>  <Name>
ligand

>  <RI>
0

>  <Rbt.Current_Directory>
/home/itssahil/PROJECTS/Mol_Feturizer/New_Systems/rnas/4XW7

>  <Rbt.Executable>
rbdock ($Id: //depot/dev/client3/rdock/2013.1/src/exe/rbdock.cxx#4 $)

>  <Rbt.Library>
libRbt.so (2013.1, Build901 2013/11/27)

>  <Rbt.Parameter_File>
/export/apps/rDock/src/rDock_2013.1_src/data/scripts/dock_solv.prm

>  <Rbt.Receptor>
prm/pocket_docking_3.prm

>  <SCORE>
-2.62512

>  <SCORE.INTER>
-1.80097

>  <SCORE.INTER.CONST>
1

>  <SCORE.INTER.POLAR>
0

>  <SCORE.INTER.ROT>
5

>  <SCORE.INTER.SOLV>
10.9587

>  <SCORE.INTER.VDW>
-11.7869

>  <SCORE.INTER.norm>
-0.0818621

>  <SCORE.INTRA>
-0.824151

>  <SCORE.INTRA.DIHEDRAL>
-0.980784

>  <SCORE.INTRA.DIHEDRAL.0>
2.61549

>  <SCORE.INTRA.POLAR>
0

>  <SCORE.INTRA.POLAR.0>
0

>  <SCORE.INTRA.REPUL>
0

>  <SCORE.INTRA.REPUL.0>
0

>  <SCORE.INTRA.SOLV>
-0.317051

>  <SCORE.INTRA.SOLV.lig_0>
-73.766

>  <SCORE.INTRA.VDW>
-0.175234

>  <SCORE.INTRA.VDW.0>
-1.95055

>  <SCORE.INTRA.norm>
-0.0374614

>  <SCORE.RESTR>
0

>  <SCORE.RESTR.CAVITY>
0

>  <SCORE.RESTR.norm>
0

>  <SCORE.SYSTEM>
0

>  <SCORE.SYSTEM.CONST>
0

>  <SCORE.SYSTEM.DIHEDRAL>
0

>  <SCORE.SYSTEM.SOLV>
0

>  <SCORE.SYSTEM.norm>
0

>  <SCORE.heavy>
22

>  <SCORE.norm>
-0.119324

>  <RMSD>
1.448

$$$$
ligand
 OpenBabel11021811513D
libRbt.so/2013.1/901 2013/11/27
 22 23  0  0  0  0  0  0  0  0999 V2000
   29.7006   -3.9096  107.4054 N   0  0  0  0  0  0  0  0  0  0  0  0
   26.4877   -4.9847  107.8865 C   0  0  1  0  0  0  0  0  0  0  0  0
   27.5432   -4.0576  108.3197 O   0  0  0  0  0  0  0  0  0  0  0  0
   25.7926   -8.6915  108.5052 P   0  0  2  0  0  0  0  0  0  0  0  0
   28.3388   -3.7258  107.1437 C   0  0  2  0  0  0  0  0  0  0  0  0
   31.5943   -4.8446  107.9982 N   0  0  0  0  0  0  0  0  0  0  0  0
   27.9360   -3.9595  104.7985 O   0  0  0  0  0  0  0  0  0  0  0  0
   27.8970   -4.6323  106.0657 C   0  0  2  0  0  0  0  0  0  0  0  0
   34.3445   -3.6889  107.9573 N   0  0  0  0  0  0  0  0  0  0  0  0
   25.6130   -4.0013  105.8969 O   0  0  0  0  0  0  0  0  0  0  0  0
   26.5204   -4.9977  106.4174 C   0  0  2  0  0  0  0  0  0  0  0  0
   31.8650   -3.5858  107.6017 C   0  0  0  0  0  0  0  0  0  0  0  0
   30.5085   -1.6524  106.7430 N   0  0  0  0  0  0  0  0  0  0  0  0
   25.7202   -7.1959  108.0555 O   0  0  0  0  0  0  0  0  0  0  0  0
   26.7679   -6.3450  108.4076 C   0  0  0  0  0  0  0  0  0  0  0  0
   25.8767   -8.7766  110.0874 O   0  0  0  0  0  0  0  0  0  0  0  0
   30.2585   -5.0277  107.8711 C   0  0  0  0  0  0  0  0  0  0  0  0
   33.3381   -1.7773  107.2350 O   0  0  0  0  0  0  0  0  0  0  0  0
   33.2202   -2.9507  107.5788 C   0  0  0  0  0  0  0  0  0  0  0  0
   30.6751   -2.9802  107.2248 C   0  0  0  0  0  0  0  0  0  0  0  0
   26.9339   -9.3888  107.8708 O   0  5  0  0  0  0  0  0  0  0  0  0
   24.6328   -9.4687  107.9903 O   0  0  0  0  0  0  0  0  0  0  0  0
  1 17  1  0  0  0  0
  1 20  1  0  0  0  0
  2 15  1  1  0  0  0
  2  3  1  0  0  0  0
  2 11  1  0  0  0  0
  3  5  1  0  0  0  0
  4 16  1  1  0  0  0
  4 21  1  0  0  0  0
  4 22  2  0  0  0  0
  4 14  1  0  0  0  0
  5  1  1  1  0  0  0
  5  8  1  0  0  0  0
  6 17  2  0  0  0  0
  6 12  1  0  0  0  0
  8  7  1  6  0  0  0
  8 11  1  0  0  0  0
  9 19  1  0  0  0  0
 11 10  1  6  0  0  0
 12 20  2  0  0  0  0
 12 19  1  0  0  0  0
 13 20  1  0  0  0  0
 14 15  1  0  0  0  0
 18 19  2  0  0  0  0
M  CHG  1  21  -1
M  END
>  <CHROM.1>
53.90287223,176.57005725,59.39093069,-179.73866464,1.79776405,28.43298190
-5.30802614,107.56176803,0.65100043,-0.26784516,-0.51404462

>  <Name>
ligand

>  <RI>
0

>  <Rbt.Current_Directory>
/home/itssahil/PROJECTS/Mol_Feturizer/New_Systems/rnas/4XW7

>  <Rbt.Executable>
rbdock ($Id: //depot/dev/client3/rdock/2013.1/src/exe/rbdock.cxx#4 $)

>  <Rbt.Library>
libRbt.so (2013.1, Build901 2013/11/27)

>  <Rbt.Parameter_File>
/export/apps/rDock/src/rDock_2013.1_src/data/scripts/dock_solv.prm

>  <Rbt.Receptor>
prm/pocket_docking_3.prm

>  <SCORE>
-2.49967

>  <SCORE.INTER>
-1.66348

>  <SCORE.INTER.CONST>
1

>  <SCORE.INTER.POLAR>
0

>  <SCORE.INTER.ROT>
5

>  <SCORE.INTER.SOLV>
11.1056

>  <SCORE.INTER.VDW>
-11.7442

>  <SCORE.INTER.norm>
-0.0756129

>  <SCORE.INTRA>
-0.836186

>  <SCORE.INTRA.DIHEDRAL>
-1.0949

>  <SCORE.INTRA.DIHEDRAL.0>
2.61549

>  <SCORE.INTRA.POLAR>
0

>  <SCORE.INTRA.POLAR.0>
0

>  <SCORE.INTRA.REPUL>
0

>  <SCORE.INTRA.REPUL.0>
0

>  <SCORE.INTRA.SOLV>
-0.411408

>  <SCORE.INTRA.SOLV.lig_0>
-73.766

>  <SCORE.INTRA.VDW>
-0.0830291

>  <SCORE.INTRA.VDW.0>
-1.95055

>  <SCORE.INTRA.norm>
-0.0380084

>  <SCORE.RESTR>
0

>  <SCORE.RESTR.CAVITY>
0

>  <SCORE.RESTR.norm>
0

>  <SCORE.SYSTEM>
0

>  <SCORE.SYSTEM.CONST>
0

>  <SCORE.SYSTEM.DIHEDRAL>
0

>  <SCORE.SYSTEM.SOLV>
0

>  <SCORE.SYSTEM.norm>
0

>  <SCORE.heavy>
22

>  <SCORE.norm>
-0.113621

>  <RMSD>
1.505

$$$$
ligand
 OpenBabel11021811513D
libRbt.so/2013.1/901 2013/11/27
 22 23  0  0  0  0  0  0  0  0999 V2000
   29.8080   -3.8044  107.4474 N   0  0  0  0  0  0  0  0  0  0  0  0
   26.5276   -4.6174  106.9108 C   0  0  1  0  0  0  0  0  0  0  0  0
   27.5045   -4.0314  107.8401 O   0  0  0  0  0  0  0  0  0  0  0  0
   26.2570   -8.1141  108.4236 P   0  0  2  0  0  0  0  0  0  0  0  0
   28.5373   -3.3890  107.0359 C   0  0  2  0  0  0  0  0  0  0  0  0
   31.4634   -5.0851  108.1042 N   0  0  0  0  0  0  0  0  0  0  0  0
   28.6187   -2.7171  104.7427 O   0  0  0  0  0  0  0  0  0  0  0  0
   28.2942   -3.7920  105.6368 C   0  0  2  0  0  0  0  0  0  0  0  0
   33.5797   -2.5149  109.3736 N   0  0  0  0  0  0  0  0  0  0  0  0
   26.1191   -2.8935  105.3133 O   0  0  0  0  0  0  0  0  0  0  0  0
   26.8622   -4.1045  105.5750 C   0  0  2  0  0  0  0  0  0  0  0  0
   31.9312   -3.8250  108.0131 C   0  0  0  0  0  0  0  0  0  0  0  0
   30.9547   -1.5984  107.3772 N   0  0  0  0  0  0  0  0  0  0  0  0
   26.3311   -6.5685  108.1998 O   0  0  0  0  0  0  0  0  0  0  0  0
   26.6439   -6.0962  106.9252 C   0  0  0  0  0  0  0  0  0  0  0  0
   25.1693   -8.7484  107.4579 O   0  0  0  0  0  0  0  0  0  0  0  0
   30.1559   -5.0550  107.7528 C   0  0  0  0  0  0  0  0  0  0  0  0
   34.2591   -3.7991  107.6192 O   0  0  0  0  0  0  0  0  0  0  0  0
   33.3316   -3.3904  108.3133 C   0  0  0  0  0  0  0  0  0  0  0  0
   30.8937   -3.0018  107.5997 C   0  0  0  0  0  0  0  0  0  0  0  0
   25.9701   -8.4391  109.8389 O   0  5  0  0  0  0  0  0  0  0  0  0
   27.5852   -8.7545  108.2242 O   0  0  0  0  0  0  0  0  0  0  0  0
  1 17  1  0  0  0  0
  1 20  1  0  0  0  0
  2 15  1  6  0  0  0
  2  3  1  0  0  0  0
  2 11  1  0  0  0  0
  3  5  1  0  0  0  0
  4 16  1  6  0  0  0
  4 21  1  0  0  0  0
  4 22  2  0  0  0  0
  4 14  1  0  0  0  0
  5  1  1  1  0  0  0
  5  8  1  0  0  0  0
  6 17  2  0  0  0  0
  6 12  1  0  0  0  0
  8  7  1  6  0  0  0
  8 11  1  0  0  0  0
  9 19  1  0  0  0  0
 11 10  1  1  0  0  0
 12 20  2  0  0  0  0
 12 19  1  0  0  0  0
 13 20  1  0  0  0  0
 14 15  1  0  0  0  0
 18 19  2  0  0  0  0
M  CHG  1  21  -1
M  END
>  <CHROM.1>
42.74937411,62.86694675,-58.72982202,174.45911394,-115.67316509,28.69886199
-4.99670801,107.49302979,0.54308536,-0.34342239,-0.56151783

>  <Name>
ligand

>  <RI>
0

>  <Rbt.Current_Directory>
/home/itssahil/PROJECTS/Mol_Feturizer/New_Systems/rnas/4XW7

>  <Rbt.Executable>
rbdock ($Id: //depot/dev/client3/rdock/2013.1/src/exe/rbdock.cxx#4 $)

>  <Rbt.Library>
libRbt.so (2013.1, Build901 2013/11/27)

>  <Rbt.Parameter_File>
/export/apps/rDock/src/rDock_2013.1_src/data/scripts/dock_solv.prm

>  <Rbt.Receptor>
prm/pocket_docking_3.prm

>  <SCORE>
-2.54036

>  <SCORE.INTER>
-1.3798

>  <SCORE.INTER.CONST>
1

>  <SCORE.INTER.POLAR>
0

>  <SCORE.INTER.ROT>
5

>  <SCORE.INTER.SOLV>
8.58059

>  <SCORE.INTER.VDW>
-10.7134

>  <SCORE.INTER.norm>
-0.0627183

>  <SCORE.INTRA>
-1.16056

>  <SCORE.INTRA.DIHEDRAL>
-0.933654

>  <SCORE.INTRA.DIHEDRAL.0>
2.61549

>  <SCORE.INTRA.POLAR>
0

>  <SCORE.INTRA.POLAR.0>
0

>  <SCORE.INTRA.REPUL>
0

>  <SCORE.INTRA.REPUL.0>
0

>  <SCORE.INTRA.SOLV>
-0.302608

>  <SCORE.INTRA.SOLV.lig_0>
-73.766

>  <SCORE.INTRA.VDW>
-0.542428

>  <SCORE.INTRA.VDW.0>
-1.95055

>  <SCORE.INTRA.norm>
-0.0527527

>  <SCORE.RESTR>
0

>  <SCORE.RESTR.CAVITY>
0

>  <SCORE.RESTR.norm>
0

>  <SCORE.SYSTEM>
0

>  <SCORE.SYSTEM.CONST>
0

>  <SCORE.SYSTEM.DIHEDRAL>
0

>  <SCORE.SYSTEM.SOLV>
0

>  <SCORE.SYSTEM.norm>
0

>  <SCORE.heavy>
22

>  <SCORE.norm>
-0.115471

>  <RMSD>
1.511

$$$$
ligand
 OpenBabel11021811513D
libRbt.so/2013.1/901 2013/11/27
 22 23  0  0  0  0  0  0  0  0999 V2000
   29.7352   -3.4911  107.2630 N   0  0  0  0  0  0  0  0  0  0  0  0
   26.4743   -4.0627  106.3974 C   0  0  1  0  0  0  0  0  0  0  0  0
   27.3992   -3.6267  107.4537 O   0  0  0  0  0  0  0  0  0  0  0  0
   26.1505   -7.6768  107.5974 P   0  0  2  0  0  0  0  0  0  0  0  0
   28.5236   -2.9669  106.8007 C   0  0  2  0  0  0  0  0  0  0  0  0
   31.2461   -4.9119  107.9774 N   0  0  0  0  0  0  0  0  0  0  0  0
   28.8235   -2.0777  104.6016 O   0  0  0  0  0  0  0  0  0  0  0  0
   28.3763   -3.2157  105.3532 C   0  0  2  0  0  0  0  0  0  0  0  0
   33.5138   -2.5979  109.4105 N   0  0  0  0  0  0  0  0  0  0  0  0
   26.2802   -2.1697  104.9590 O   0  0  0  0  0  0  0  0  0  0  0  0
   26.9407   -3.4401  105.1507 C   0  0  2  0  0  0  0  0  0  0  0  0
   31.8217   -3.6951  107.9212 C   0  0  0  0  0  0  0  0  0  0  0  0
   31.0652   -1.3893  107.2682 N   0  0  0  0  0  0  0  0  0  0  0  0
   26.1539   -6.1174  107.4850 O   0  0  0  0  0  0  0  0  0  0  0  0
   26.5181   -5.5399  106.2686 C   0  0  0  0  0  0  0  0  0  0  0  0
   27.5910   -8.2464  107.2533 O   0  0  0  0  0  0  0  0  0  0  0  0
   29.9628   -4.7690  107.5692 C   0  0  0  0  0  0  0  0  0  0  0  0
   34.1571   -3.8108  107.5930 O   0  0  0  0  0  0  0  0  0  0  0  0
   33.2389   -3.3826  108.2876 C   0  0  0  0  0  0  0  0  0  0  0  0
   30.8767   -2.7842  107.4720 C   0  0  0  0  0  0  0  0  0  0  0  0
   25.1159   -8.2763  106.7248 O   0  5  0  0  0  0  0  0  0  0  0  0
   25.7098   -8.1216  108.9472 O   0  0  0  0  0  0  0  0  0  0  0  0
  1 17  1  0  0  0  0
  1 20  1  0  0  0  0
  2 15  1  6  0  0  0
  2  3  1  0  0  0  0
  2 11  1  0  0  0  0
  3  5  1  0  0  0  0
  4 16  1  6  0  0  0
  4 21  1  0  0  0  0
  4 22  2  0  0  0  0
  4 14  1  0  0  0  0
  5  1  1  1  0  0  0
  5  8  1  0  0  0  0
  6 17  2  0  0  0  0
  6 12  1  0  0  0  0
  8  7  1  6  0  0  0
  8 11  1  0  0  0  0
  9 19  1  0  0  0  0
 11 10  1  1  0  0  0
 12 20  2  0  0  0  0
 12 19  1  0  0  0  0
 13 20  1  0  0  0  0
 14 15  1  0  0  0  0
 18 19  2  0  0  0  0
M  CHG  1  21  -1
M  END
>  <CHROM.1>
36.84667433,59.49008419,57.87610269,-178.99622408,-112.22928939,28.64582520
-4.62431216,107.09265119,0.47738174,-0.36299451,-0.48401900

>  <Name>
ligand

>  <RI>
0

>  <Rbt.Current_Directory>
/home/itssahil/PROJECTS/Mol_Feturizer/New_Systems/rnas/4XW7

>  <Rbt.Executable>
rbdock ($Id: //depot/dev/client3/rdock/2013.1/src/exe/rbdock.cxx#4 $)

>  <Rbt.Library>
libRbt.so (2013.1, Build901 2013/11/27)

>  <Rbt.Parameter_File>
/export/apps/rDock/src/rDock_2013.1_src/data/scripts/dock_solv.prm

>  <Rbt.Receptor>
prm/pocket_docking_3.prm

>  <SCORE>
-2.52452

>  <SCORE.INTER>
-1.34457

>  <SCORE.INTER.CONST>
1

>  <SCORE.INTER.POLAR>
0

>  <SCORE.INTER.ROT>
5

>  <SCORE.INTER.SOLV>
8.73419

>  <SCORE.INTER.VDW>
-10.7411

>  <SCORE.INTER.norm>
-0.0611167

>  <SCORE.INTRA>
-1.17995

>  <SCORE.INTRA.DIHEDRAL>
-1.0596

>  <SCORE.INTRA.DIHEDRAL.0>
2.61549

>  <SCORE.INTRA.POLAR>
0

>  <SCORE.INTRA.POLAR.0>
0

>  <SCORE.INTRA.REPUL>
0

>  <SCORE.INTRA.REPUL.0>
0

>  <SCORE.INTRA.SOLV>
-0.096231

>  <SCORE.INTRA.SOLV.lig_0>
-73.766

>  <SCORE.INTRA.VDW>
-0.602031

>  <SCORE.INTRA.VDW.0>
-1.95055

>  <SCORE.INTRA.norm>
-0.053634

>  <SCORE.RESTR>
0

>  <SCORE.RESTR.CAVITY>
0

>  <SCORE.RESTR.norm>
0

>  <SCORE.SYSTEM>
0

>  <SCORE.SYSTEM.CONST>
0

>  <SCORE.SYSTEM.DIHEDRAL>
0

>  <SCORE.SYSTEM.SOLV>
0

>  <SCORE.SYSTEM.norm>
0

>  <SCORE.heavy>
22

>  <SCORE.norm>
-0.114751

>  <RMSD>
1.594

$$$$
ligand
 OpenBabel11021811513D
libRbt.so/2013.1/901 2013/11/27
 22 23  0  0  0  0  0  0  0  0999 V2000
   29.4729   -3.7196  107.1733 N   0  0  0  0  0  0  0  0  0  0  0  0
   26.0526   -3.6679  107.2658 C   0  0  1  0  0  0  0  0  0  0  0  0
   27.2969   -3.0513  107.7483 O   0  0  0  0  0  0  0  0  0  0  0  0
   26.8815   -7.2073  108.4456 P   0  0  2  0  0  0  0  0  0  0  0  0
   28.2833   -3.1725  106.6813 C   0  0  2  0  0  0  0  0  0  0  0  0
   30.9094   -5.1433  108.0226 N   0  0  0  0  0  0  0  0  0  0  0  0
   28.0910   -3.6454  104.3454 O   0  0  0  0  0  0  0  0  0  0  0  0
   27.6939   -4.0611  105.6606 C   0  0  2  0  0  0  0  0  0  0  0  0
   33.7825   -4.7143  108.7070 N   0  0  0  0  0  0  0  0  0  0  0  0
   25.7734   -2.7972  105.0625 O   0  0  0  0  0  0  0  0  0  0  0  0
   26.2431   -3.9262  105.8318 C   0  0  2  0  0  0  0  0  0  0  0  0
   31.5636   -3.9880  107.7939 C   0  0  0  0  0  0  0  0  0  0  0  0
   30.9414   -1.7351  106.8703 N   0  0  0  0  0  0  0  0  0  0  0  0
   26.9071   -5.7914  107.7833 O   0  0  0  0  0  0  0  0  0  0  0  0
   25.8149   -4.9463  107.9797 C   0  0  0  0  0  0  0  0  0  0  0  0
   26.8334   -7.0642  110.0252 O   0  0  0  0  0  0  0  0  0  0  0  0
   29.6246   -4.9614  107.6353 C   0  0  0  0  0  0  0  0  0  0  0  0
   33.5151   -2.6591  107.7620 O   0  0  0  0  0  0  0  0  0  0  0  0
   33.0113   -3.7342  108.0772 C   0  0  0  0  0  0  0  0  0  0  0  0
   30.6665   -3.0758  107.2574 C   0  0  0  0  0  0  0  0  0  0  0  0
   28.0409   -8.0219  108.0176 O   0  5  0  0  0  0  0  0  0  0  0  0
   25.7364   -8.0171  107.9486 O   0  0  0  0  0  0  0  0  0  0  0  0
  1 17  1  0  0  0  0
  1 20  1  0  0  0  0
  2 15  1  1  0  0  0
  2  3  1  0  0  0  0
  2 11  1  0  0  0  0
  3  5  1  0  0  0  0
  4 16  1  1  0  0  0
  4 21  1  0  0  0  0
  4 22  2  0  0  0  0
  4 14  1  0  0  0  0
  5  1  1  1  0  0  0
  5  8  1  0  0  0  0
  6 17  2  0  0  0  0
  6 12  1  0  0  0  0
  8  7  1  6  0  0  0
  8 11  1  0  0  0  0
  9 19  1  0  0  0  0
 11 10  1  6  0  0  0
 12 20  2  0  0  0  0
 12 19  1  0  0  0  0
 13 20  1  0  0  0  0
 14 15  1  0  0  0  0
 18 19  2  0  0  0  0
M  CHG  1  21  -1
M  END
>  <CHROM.1>
66.50442414,-57.75273403,-62.58286430,-179.95824125,-4.20986689,28.59364864
-4.69753207,107.42628097,0.36448910,-0.24484251,-0.58646252

>  <Name>
ligand

>  <RI>
0

>  <Rbt.Current_Directory>
/home/itssahil/PROJECTS/Mol_Feturizer/New_Systems/rnas/4XW7

>  <Rbt.Executable>
rbdock ($Id: //depot/dev/client3/rdock/2013.1/src/exe/rbdock.cxx#4 $)

>  <Rbt.Library>
libRbt.so (2013.1, Build901 2013/11/27)

>  <Rbt.Parameter_File>
/export/apps/rDock/src/rDock_2013.1_src/data/scripts/dock_solv.prm

>  <Rbt.Receptor>
prm/pocket_docking_3.prm

>  <SCORE>
-1.40884

>  <SCORE.INTER>
-0.539896

>  <SCORE.INTER.CONST>
1

>  <SCORE.INTER.POLAR>
0

>  <SCORE.INTER.ROT>
5

>  <SCORE.INTER.SOLV>
10.4318

>  <SCORE.INTER.VDW>
-10.7705

>  <SCORE.INTER.norm>
-0.0245407

>  <SCORE.INTRA>
-0.868947

>  <SCORE.INTRA.DIHEDRAL>
-1.08417

>  <SCORE.INTRA.DIHEDRAL.0>
2.61549

>  <SCORE.INTRA.POLAR>
0

>  <SCORE.INTRA.POLAR.0>
0

>  <SCORE.INTRA.REPUL>
0

>  <SCORE.INTRA.REPUL.0>
0

>  <SCORE.INTRA.SOLV>
0.218765

>  <SCORE.INTRA.SOLV.lig_0>
-73.766

>  <SCORE.INTRA.VDW>
-0.436245

>  <SCORE.INTRA.VDW.0>
-1.95055

>  <SCORE.INTRA.norm>
-0.0394976

>  <SCORE.RESTR>
0

>  <SCORE.RESTR.CAVITY>
0

>  <SCORE.RESTR.norm>
0

>  <SCORE.SYSTEM>
0

>  <SCORE.SYSTEM.CONST>
0

>  <SCORE.SYSTEM.DIHEDRAL>
0

>  <SCORE.SYSTEM.SOLV>
0

>  <SCORE.SYSTEM.norm>
0

>  <SCORE.heavy>
22

>  <SCORE.norm>
-0.0640383

>  <RMSD>
1.610

$$$$
ligand
 OpenBabel11021811513D
libRbt.so/2013.1/901 2013/11/27
 22 23  0  0  0  0  0  0  0  0999 V2000
   29.2308   -2.7268  106.2729 N   0  0  0  0  0  0  0  0  0  0  0  0
   26.1943   -4.2833  106.5320 C   0  0  1  0  0  0  0  0  0  0  0  0
   27.0069   -3.1195  106.9149 O   0  0  0  0  0  0  0  0  0  0  0  0
   24.3147   -6.5786  107.3739 P   0  0  2  0  0  0  0  0  0  0  0  0
   27.9162   -2.8425  105.8092 C   0  0  2  0  0  0  0  0  0  0  0  0
   31.2378   -1.9256  106.6495 N   0  0  0  0  0  0  0  0  0  0  0  0
   27.9332   -3.5251  103.5177 O   0  0  0  0  0  0  0  0  0  0  0  0
   27.8008   -3.9782  104.8732 C   0  0  2  0  0  0  0  0  0  0  0  0
   33.4671   -3.1287  108.2253 N   0  0  0  0  0  0  0  0  0  0  0  0
   25.5017   -3.8154  104.2978 O   0  0  0  0  0  0  0  0  0  0  0  0
   26.4615   -4.5290  105.1081 C   0  0  2  0  0  0  0  0  0  0  0  0
   31.1520   -3.1217  107.2635 C   0  0  0  0  0  0  0  0  0  0  0  0
   29.3774   -4.8854  107.5000 N   0  0  0  0  0  0  0  0  0  0  0  0
   25.8217   -6.5607  106.9582 O   0  0  0  0  0  0  0  0  0  0  0  0
   26.6006   -5.4653  107.3310 C   0  0  0  0  0  0  0  0  0  0  0  0
   23.5418   -5.3936  106.6553 O   0  0  0  0  0  0  0  0  0  0  0  0
   30.0476   -1.6977  106.0450 C   0  0  0  0  0  0  0  0  0  0  0  0
   32.0553   -4.8874  108.5448 O   0  0  0  0  0  0  0  0  0  0  0  0
   32.2410   -3.7764  108.0546 C   0  0  0  0  0  0  0  0  0  0  0  0
   29.8870   -3.6425  107.0327 C   0  0  0  0  0  0  0  0  0  0  0  0
   24.1619   -6.5027  108.8443 O   0  5  0  0  0  0  0  0  0  0  0  0
   23.6836   -7.8906  107.0665 O   0  0  0  0  0  0  0  0  0  0  0  0
  1 17  1  0  0  0  0
  1 20  1  0  0  0  0
  2 15  1  1  0  0  0
  2  3  1  0  0  0  0
  2 11  1  0  0  0  0
  3  5  1  0  0  0  0
  4 16  1  6  0  0  0
  4 21  1  0  0  0  0
  4 22  2  0  0  0  0
  4 14  1  0  0  0  0
  5  1  1  1  0  0  0
  5  8  1  0  0  0  0
  6 17  2  0  0  0  0
  6 12  1  0  0  0  0
  8  7  1  6  0  0  0
  8 11  1  0  0  0  0
  9 19  1  0  0  0  0
 11 10  1  6  0  0  0
 12 20  2  0  0  0  0
 12 19  1  0  0  0  0
 13 20  1  0  0  0  0
 14 15  1  0  0  0  0
 18 19  2  0  0  0  0
M  CHG  1  21  -1
M  END
>  <CHROM.1>
-126.61691762,179.96617877,64.52647299,-71.15331326,1.20220468,27.65005664
-4.48272525,106.71114950,0.23311173,-0.34871169,-0.87999343

>  <Name>
ligand

>  <RI>
0

>  <Rbt.Current_Directory>
/home/itssahil/PROJECTS/Mol_Feturizer/New_Systems/rnas/4XW7

>  <Rbt.Executable>
rbdock ($Id: //depot/dev/client3/rdock/2013.1/src/exe/rbdock.cxx#4 $)

>  <Rbt.Library>
libRbt.so (2013.1, Build901 2013/11/27)

>  <Rbt.Parameter_File>
/export/apps/rDock/src/rDock_2013.1_src/data/scripts/dock_solv.prm

>  <Rbt.Receptor>
prm/pocket_docking_2.prm

>  <SCORE>
2.87976

>  <SCORE.INTER>
0.37853

>  <SCORE.INTER.CONST>
1

>  <SCORE.INTER.POLAR>
0

>  <SCORE.INTER.ROT>
5

>  <SCORE.INTER.SOLV>
8.96063

>  <SCORE.INTER.VDW>
-9.66786

>  <SCORE.INTER.norm>
0.0172059

>  <SCORE.INTRA>
2.501

>  <SCORE.INTRA.DIHEDRAL>
-0.504656

>  <SCORE.INTRA.DIHEDRAL.0>
2.61549

>  <SCORE.INTRA.POLAR>
0

>  <SCORE.INTRA.POLAR.0>
0

>  <SCORE.INTRA.REPUL>
0

>  <SCORE.INTRA.REPUL.0>
0

>  <SCORE.INTRA.SOLV>
5.43512

>  <SCORE.INTRA.SOLV.lig_0>
-73.766

>  <SCORE.INTRA.VDW>
0.0357693

>  <SCORE.INTRA.VDW.0>
-1.95055

>  <SCORE.INTRA.norm>
0.113682

>  <SCORE.RESTR>
0.000230511

>  <SCORE.RESTR.CAVITY>
0.000230511

>  <SCORE.RESTR.norm>
1.04778e-05

>  <SCORE.SYSTEM>
0

>  <SCORE.SYSTEM.CONST>
0

>  <SCORE.SYSTEM.DIHEDRAL>
0

>  <SCORE.SYSTEM.SOLV>
0

>  <SCORE.SYSTEM.norm>
0

>  <SCORE.heavy>
22

>  <SCORE.norm>
0.130898

>  <RMSD>
1.820

$$$$
ligand
 OpenBabel11021811513D
libRbt.so/2013.1/901 2013/11/27
 22 23  0  0  0  0  0  0  0  0999 V2000
   30.8303   -1.6499  106.7132 N   0  0  0  0  0  0  0  0  0  0  0  0
   27.4361   -2.0851  106.7237 C   0  0  1  0  0  0  0  0  0  0  0  0
   28.5931   -1.4881  107.4066 O   0  0  0  0  0  0  0  0  0  0  0  0
   25.9362   -5.5992  106.6342 P   0  0  2  0  0  0  0  0  0  0  0  0
   29.5703   -1.1410  106.3815 C   0  0  2  0  0  0  0  0  0  0  0  0
   33.0066   -1.8461  106.9052 N   0  0  0  0  0  0  0  0  0  0  0  0
   29.4079   -0.8899  104.0093 O   0  0  0  0  0  0  0  0  0  0  0  0
   29.0907   -1.7407  105.1209 C   0  0  2  0  0  0  0  0  0  0  0  0
   34.5720   -3.9644  108.3115 N   0  0  0  0  0  0  0  0  0  0  0  0
   27.0083   -0.6213  104.8894 O   0  0  0  0  0  0  0  0  0  0  0  0
   27.6378   -1.8597  105.2857 C   0  0  2  0  0  0  0  0  0  0  0  0
   32.4447   -2.9190  107.4953 C   0  0  0  0  0  0  0  0  0  0  0  0
   30.0942   -3.7273  107.8661 N   0  0  0  0  0  0  0  0  0  0  0  0
   26.2126   -4.0703  106.4604 O   0  0  0  0  0  0  0  0  0  0  0  0
   27.3842   -3.5414  107.0019 C   0  0  0  0  0  0  0  0  0  0  0  0
   25.9295   -5.9754  108.1758 O   0  0  0  0  0  0  0  0  0  0  0  0
   31.9999   -1.0755  106.4294 C   0  0  0  0  0  0  0  0  0  0  0  0
   32.5712   -5.0259  108.5535 O   0  0  0  0  0  0  0  0  0  0  0  0
   33.1854   -4.0390  108.1565 C   0  0  0  0  0  0  0  0  0  0  0  0
   31.0664   -2.8098  107.3804 C   0  0  0  0  0  0  0  0  0  0  0  0
   26.9243   -6.4120  105.8897 O   0  5  0  0  0  0  0  0  0  0  0  0
   24.6585   -5.9962  105.9831 O   0  0  0  0  0  0  0  0  0  0  0  0
  1 17  1  0  0  0  0
  1 20  1  0  0  0  0
  2 15  1  6  0  0  0
  2  3  1  0  0  0  0
  2 11  1  0  0  0  0
  3  5  1  0  0  0  0
  4 16  1  1  0  0  0
  4 21  1  0  0  0  0
  4 22  2  0  0  0  0
  4 14  1  0  0  0  0
  5  1  1  1  0  0  0
  5  8  1  0  0  0  0
  6 17  2  0  0  0  0
  6 12  1  0  0  0  0
  8  7  1  6  0  0  0
  8 11  1  0  0  0  0
  9 19  1  0  0  0  0
 11 10  1  1  0  0  0
 12 20  2  0  0  0  0
 12 19  1  0  0  0  0
 13 20  1  0  0  0  0
 14 15  1  0  0  0  0
 18 19  2  0  0  0  0
M  CHG  1  21  -1
M  END
>  <CHROM.1>
-146.64286436,174.15456782,57.36854868,-179.81046403,6.19654719,29.02875454
-3.30121014,106.69273082,0.22792146,-0.27210938,-0.45219669

>  <Name>
ligand

>  <RI>
0

>  <Rbt.Current_Directory>
/home/itssahil/PROJECTS/Mol_Feturizer/New_Systems/rnas/4XW7

>  <Rbt.Executable>
rbdock ($Id: //depot/dev/client3/rdock/2013.1/src/exe/rbdock.cxx#4 $)

>  <Rbt.Library>
libRbt.so (2013.1, Build901 2013/11/27)

>  <Rbt.Parameter_File>
/export/apps/rDock/src/rDock_2013.1_src/data/scripts/dock_solv.prm

>  <Rbt.Receptor>
prm/pocket_docking_3.prm

>  <SCORE>
-2.96973

>  <SCORE.INTER>
-4.49649

>  <SCORE.INTER.CONST>
1

>  <SCORE.INTER.POLAR>
0

>  <SCORE.INTER.ROT>
5

>  <SCORE.INTER.SOLV>
11.9403

>  <SCORE.INTER.VDW>
-13.9111

>  <SCORE.INTER.norm>
-0.204386

>  <SCORE.INTRA>
1.52676

>  <SCORE.INTRA.DIHEDRAL>
-0.960803

>  <SCORE.INTRA.DIHEDRAL.0>
2.61549

>  <SCORE.INTRA.POLAR>
0

>  <SCORE.INTRA.POLAR.0>
0

>  <SCORE.INTRA.REPUL>
0

>  <SCORE.INTRA.REPUL.0>
0

>  <SCORE.INTRA.SOLV>
4.0904

>  <SCORE.INTRA.SOLV.lig_0>
-73.766

>  <SCORE.INTRA.VDW>
-0.0380361

>  <SCORE.INTRA.VDW.0>
-1.95055

>  <SCORE.INTRA.norm>
0.0693982

>  <SCORE.RESTR>
0

>  <SCORE.RESTR.CAVITY>
0

>  <SCORE.RESTR.norm>
0

>  <SCORE.SYSTEM>
0

>  <SCORE.SYSTEM.CONST>
0

>  <SCORE.SYSTEM.DIHEDRAL>
0

>  <SCORE.SYSTEM.SOLV>
0

>  <SCORE.SYSTEM.norm>
0

>  <SCORE.heavy>
22

>  <SCORE.norm>
-0.134988

>  <RMSD>
2.844

$$$$
ligand
 OpenBabel11021811513D
libRbt.so/2013.1/901 2013/11/27
 22 23  0  0  0  0  0  0  0  0999 V2000
   30.9091   -1.2950  106.4860 N   0  0  0  0  0  0  0  0  0  0  0  0
   27.5641   -1.9521  106.7843 C   0  0  1  0  0  0  0  0  0  0  0  0
   28.7047   -1.1707  107.2842 O   0  0  0  0  0  0  0  0  0  0  0  0
   26.3434   -5.5271  107.3601 P   0  0  2  0  0  0  0  0  0  0  0  0
   29.5980   -0.9365  106.1558 C   0  0  2  0  0  0  0  0  0  0  0  0
   33.1015   -1.3645  106.5051 N   0  0  0  0  0  0  0  0  0  0  0  0
   29.2948   -1.1023  103.7899 O   0  0  0  0  0  0  0  0  0  0  0  0
   29.1024   -1.7723  105.0446 C   0  0  2  0  0  0  0  0  0  0  0  0
   33.3952   -3.0541  109.6750 N   0  0  0  0  0  0  0  0  0  0  0  0
   26.9300   -0.8525  104.7646 O   0  0  0  0  0  0  0  0  0  0  0  0
   27.6735   -1.9602  105.3190 C   0  0  2  0  0  0  0  0  0  0  0  0
   32.6554   -2.2475  107.4196 C   0  0  0  0  0  0  0  0  0  0  0  0
   30.3964   -2.9915  108.2312 N   0  0  0  0  0  0  0  0  0  0  0  0
   26.5145   -4.0488  106.8810 O   0  0  0  0  0  0  0  0  0  0  0  0
   27.6400   -3.3403  107.3018 C   0  0  0  0  0  0  0  0  0  0  0  0
   27.6286   -6.3731  106.9722 O   0  0  0  0  0  0  0  0  0  0  0  0
   32.0147   -0.7871  105.9400 C   0  0  0  0  0  0  0  0  0  0  0  0
   34.3278   -3.8778  107.7670 O   0  0  0  0  0  0  0  0  0  0  0  0
   33.5139   -3.1168  108.2842 C   0  0  0  0  0  0  0  0  0  0  0  0
   31.2684   -2.2162  107.4180 C   0  0  0  0  0  0  0  0  0  0  0  0
   25.1146   -6.1345  106.8011 O   0  5  0  0  0  0  0  0  0  0  0  0
   26.0818   -5.5955  108.8234 O   0  0  0  0  0  0  0  0  0  0  0  0
  1 17  1  0  0  0  0
  1 20  1  0  0  0  0
  2 15  1  1  0  0  0
  2  3  1  0  0  0  0
  2 11  1  0  0  0  0
  3  5  1  0  0  0  0
  4 16  1  6  0  0  0
  4 21  1  0  0  0  0
  4 22  2  0  0  0  0
  4 14  1  0  0  0  0
  5  1  1  1  0  0  0
  5  8  1  0  0  0  0
  6 17  2  0  0  0  0
  6 12  1  0  0  0  0
  8  7  1  6  0  0  0
  8 11  1  0  0  0  0
  9 19  1  0  0  0  0
 11 10  1  6  0  0  0
 12 20  2  0  0  0  0
 12 19  1  0  0  0  0
 13 20  1  0  0  0  0
 14 15  1  0  0  0  0
 18 19  2  0  0  0  0
M  CHG  1  21  -1
M  END
>  <CHROM.1>
-153.59717140,176.74427152,-55.26388963,-177.37345415,122.95403113,29.24375796
-3.01738978,106.88126046,0.30580295,-0.27709752,-0.62146101

>  <Name>
ligand

>  <RI>
0

>  <Rbt.Current_Directory>
/home/itssahil/PROJECTS/Mol_Feturizer/New_Systems/rnas/4XW7

>  <Rbt.Executable>
rbdock ($Id: //depot/dev/client3/rdock/2013.1/src/exe/rbdock.cxx#4 $)

>  <Rbt.Library>
libRbt.so (2013.1, Build901 2013/11/27)

>  <Rbt.Parameter_File>
/export/apps/rDock/src/rDock_2013.1_src/data/scripts/dock_solv.prm

>  <Rbt.Receptor>
prm/pocket_docking_3.prm

>  <SCORE>
-4.3149

>  <SCORE.INTER>
-5.5878

>  <SCORE.INTER.CONST>
1

>  <SCORE.INTER.POLAR>
0

>  <SCORE.INTER.ROT>
5

>  <SCORE.INTER.SOLV>
7.88786

>  <SCORE.INTER.VDW>
-13.2878

>  <SCORE.INTER.norm>
-0.253991

>  <SCORE.INTRA>
1.27138

>  <SCORE.INTRA.DIHEDRAL>
-1.01818

>  <SCORE.INTRA.DIHEDRAL.0>
2.61549

>  <SCORE.INTRA.POLAR>
0

>  <SCORE.INTRA.POLAR.0>
0

>  <SCORE.INTRA.REPUL>
0

>  <SCORE.INTRA.REPUL.0>
0

>  <SCORE.INTRA.SOLV>
3.85892

>  <SCORE.INTRA.SOLV.lig_0>
-73.766

>  <SCORE.INTRA.VDW>
-0.14899

>  <SCORE.INTRA.VDW.0>
-1.95055

>  <SCORE.INTRA.norm>
0.0577899

>  <SCORE.RESTR>
0.00152796

>  <SCORE.RESTR.CAVITY>
0.00152796

>  <SCORE.RESTR.norm>
6.94527e-05

>  <SCORE.SYSTEM>
0

>  <SCORE.SYSTEM.CONST>
0

>  <SCORE.SYSTEM.DIHEDRAL>
0

>  <SCORE.SYSTEM.SOLV>
0

>  <SCORE.SYSTEM.norm>
0

>  <SCORE.heavy>
22

>  <SCORE.norm>
-0.196132

>  <RMSD>
2.864

$$$$
ligand
 OpenBabel11021811513D
libRbt.so/2013.1/901 2013/11/27
 22 23  0  0  0  0  0  0  0  0999 V2000
   30.8812   -1.2364  106.2225 N   0  0  0  0  0  0  0  0  0  0  0  0
   27.4839   -1.6303  106.3375 C   0  0  1  0  0  0  0  0  0  0  0  0
   28.6372   -0.8358  106.7848 O   0  0  0  0  0  0  0  0  0  0  0  0
   25.9103   -4.9026  107.5236 P   0  0  2  0  0  0  0  0  0  0  0  0
   29.6291   -0.8715  105.7167 C   0  0  2  0  0  0  0  0  0  0  0  0
   33.0528   -1.3485  106.5107 N   0  0  0  0  0  0  0  0  0  0  0  0
   29.4968   -1.4641  103.4040 O   0  0  0  0  0  0  0  0  0  0  0  0
   29.1600   -1.8723  104.7383 C   0  0  2  0  0  0  0  0  0  0  0  0
   33.3981   -4.3660  108.1887 N   0  0  0  0  0  0  0  0  0  0  0  0
   27.0890   -0.8979  104.1019 O   0  0  0  0  0  0  0  0  0  0  0  0
   27.7043   -1.9218  104.9142 C   0  0  2  0  0  0  0  0  0  0  0  0
   32.4769   -2.1677  107.4118 C   0  0  0  0  0  0  0  0  0  0  0  0
   30.1177   -2.8178  107.9839 N   0  0  0  0  0  0  0  0  0  0  0  0
   26.2590   -3.5887  106.7514 O   0  0  0  0  0  0  0  0  0  0  0  0
   27.4175   -2.8975  107.1059 C   0  0  0  0  0  0  0  0  0  0  0  0
   25.7721   -4.5973  109.0746 O   0  0  0  0  0  0  0  0  0  0  0  0
   32.0574   -0.7833  105.7871 C   0  0  0  0  0  0  0  0  0  0  0  0
   33.6152   -2.4858  109.4559 O   0  0  0  0  0  0  0  0  0  0  0  0
   33.2019   -3.0023  108.4209 C   0  0  0  0  0  0  0  0  0  0  0  0
   31.1014   -2.1088  107.2406 C   0  0  0  0  0  0  0  0  0  0  0  0
   26.9193   -5.9566  107.2739 O   0  5  0  0  0  0  0  0  0  0  0  0
   24.6710   -5.5310  106.9914 O   0  0  0  0  0  0  0  0  0  0  0  0
  1 17  1  0  0  0  0
  1 20  1  0  0  0  0
  2 15  1  1  0  0  0
  2  3  1  0  0  0  0
  2 11  1  0  0  0  0
  3  5  1  0  0  0  0
  4 16  1  1  0  0  0
  4 21  1  0  0  0  0
  4 22  2  0  0  0  0
  4 14  1  0  0  0  0
  5  1  1  1  0  0  0
  5  8  1  0  0  0  0
  6 17  2  0  0  0  0
  6 12  1  0  0  0  0
  8  7  1  6  0  0  0
  8 11  1  0  0  0  0
  9 19  1  0  0  0  0
 11 10  1  6  0  0  0
 12 20  2  0  0  0  0
 12 19  1  0  0  0  0
 13 20  1  0  0  0  0
 14 15  1  0  0  0  0
 18 19  2  0  0  0  0
M  CHG  1  21  -1
M  END
>  <CHROM.1>
-145.42405619,175.08835987,58.37360386,-174.88240488,-100.71492878,29.05375318
-2.77637782,106.76970670,0.21445969,-0.27324245,-0.81519307

>  <Name>
ligand

>  <RI>
0

>  <Rbt.Current_Directory>
/home/itssahil/PROJECTS/Mol_Feturizer/New_Systems/rnas/4XW7

>  <Rbt.Executable>
rbdock ($Id: //depot/dev/client3/rdock/2013.1/src/exe/rbdock.cxx#4 $)

>  <Rbt.Library>
libRbt.so (2013.1, Build901 2013/11/27)

>  <Rbt.Parameter_File>
/export/apps/rDock/src/rDock_2013.1_src/data/scripts/dock_solv.prm

>  <Rbt.Receptor>
prm/pocket_docking_3.prm

>  <SCORE>
-3.10678

>  <SCORE.INTER>
-4.70892

>  <SCORE.INTER.CONST>
1

>  <SCORE.INTER.POLAR>
0

>  <SCORE.INTER.ROT>
5

>  <SCORE.INTER.SOLV>
8.65994

>  <SCORE.INTER.VDW>
-12.9593

>  <SCORE.INTER.norm>
-0.214042

>  <SCORE.INTRA>
1.59468

>  <SCORE.INTRA.DIHEDRAL>
-0.529415

>  <SCORE.INTRA.DIHEDRAL.0>
2.61549

>  <SCORE.INTRA.POLAR>
0

>  <SCORE.INTRA.POLAR.0>
0

>  <SCORE.INTRA.REPUL>
0

>  <SCORE.INTRA.REPUL.0>
0

>  <SCORE.INTRA.SOLV>
4.01769

>  <SCORE.INTRA.SOLV.lig_0>
-73.766

>  <SCORE.INTRA.VDW>
-0.149455

>  <SCORE.INTRA.VDW.0>
-1.95055

>  <SCORE.INTRA.norm>
0.0724855

>  <SCORE.RESTR>
0.00746481

>  <SCORE.RESTR.CAVITY>
0.00746481

>  <SCORE.RESTR.norm>
0.00033931

>  <SCORE.SYSTEM>
0

>  <SCORE.SYSTEM.CONST>
0

>  <SCORE.SYSTEM.DIHEDRAL>
0

>  <SCORE.SYSTEM.SOLV>
0

>  <SCORE.SYSTEM.norm>
0

>  <SCORE.heavy>
22

>  <SCORE.norm>
-0.141217

>  <RMSD>
2.906

$$$$
ligand
 OpenBabel11021811513D
libRbt.so/2013.1/901 2013/11/27
 22 23  0  0  0  0  0  0  0  0999 V2000
   31.1373   -1.7240  107.0017 N   0  0  0  0  0  0  0  0  0  0  0  0
   27.7338   -2.0602  107.1170 C   0  0  1  0  0  0  0  0  0  0  0  0
   28.9298   -1.5109  107.7722 O   0  0  0  0  0  0  0  0  0  0  0  0
   26.1277   -5.5263  107.0088 P   0  0  2  0  0  0  0  0  0  0  0  0
   29.8828   -1.1720  106.7220 C   0  0  2  0  0  0  0  0  0  0  0  0
   33.3088   -2.0317  107.0440 N   0  0  0  0  0  0  0  0  0  0  0  0
   29.6503   -0.8686  104.3617 O   0  0  0  0  0  0  0  0  0  0  0  0
   29.3446   -1.7321  105.4668 C   0  0  2  0  0  0  0  0  0  0  0  0
   32.8902   -5.3774  108.5929 N   0  0  0  0  0  0  0  0  0  0  0  0
   27.2899   -0.5480  105.3263 O   0  0  0  0  0  0  0  0  0  0  0  0
   27.8949   -1.8119  105.6777 C   0  0  2  0  0  0  0  0  0  0  0  0
   32.7414   -3.0135  107.7714 C   0  0  0  0  0  0  0  0  0  0  0  0
   30.3898   -3.6451  108.3934 N   0  0  0  0  0  0  0  0  0  0  0  0
   26.4582   -4.0088  106.8290 O   0  0  0  0  0  0  0  0  0  0  0  0
   27.6477   -3.5196  107.3689 C   0  0  0  0  0  0  0  0  0  0  0  0
   27.3160   -6.4094  106.4379 O   0  0  0  0  0  0  0  0  0  0  0  0
   32.3083   -1.2471  106.5777 C   0  0  0  0  0  0  0  0  0  0  0  0
   34.5846   -3.8981  108.9525 O   0  0  0  0  0  0  0  0  0  0  0  0
   33.4739   -4.1135  108.4740 C   0  0  0  0  0  0  0  0  0  0  0  0
   31.3659   -2.8331  107.7526 C   0  0  0  0  0  0  0  0  0  0  0  0
   24.8428   -5.8767  106.3628 O   0  5  0  0  0  0  0  0  0  0  0  0
   25.8554   -5.8561  108.4340 O   0  0  0  0  0  0  0  0  0  0  0  0
  1 17  1  0  0  0  0
  1 20  1  0  0  0  0
  2 15  1  6  0  0  0
  2  3  1  0  0  0  0
  2 11  1  0  0  0  0
  3  5  1  0  0  0  0
  4 16  1  6  0  0  0
  4 21  1  0  0  0  0
  4 22  2  0  0  0  0
  4 14  1  0  0  0  0
  5  1  1  1  0  0  0
  5  8  1  0  0  0  0
  6 17  2  0  0  0  0
  6 12  1  0  0  0  0
  8  7  1  6  0  0  0
  8 11  1  0  0  0  0
  9 19  1  0  0  0  0
 11 10  1  1  0  0  0
 12 20  2  0  0  0  0
 12 19  1  0  0  0  0
 13 20  1  0  0  0  0
 14 15  1  0  0  0  0
 18 19  2  0  0  0  0
M  CHG  1  21  -1
M  END
>  <CHROM.1>
-153.61790577,175.53930903,-55.66988606,-178.28682957,-146.91738767,29.28886624
-3.29935747,107.04620611,0.20691880,-0.24887145,-0.45618833

>  <Name>
ligand

>  <RI>
0

>  <Rbt.Current_Directory>
/home/itssahil/PROJECTS/Mol_Feturizer/New_Systems/rnas/4XW7

>  <Rbt.Executable>
rbdock ($Id: //depot/dev/client3/rdock/2013.1/src/exe/rbdock.cxx#4 $)

>  <Rbt.Library>
libRbt.so (2013.1, Build901 2013/11/27)

>  <Rbt.Parameter_File>
/export/apps/rDock/src/rDock_2013.1_src/data/scripts/dock_solv.prm

>  <Rbt.Receptor>
prm/pocket_docking_3.prm

>  <SCORE>
-3.00912

>  <SCORE.INTER>
-4.70278

>  <SCORE.INTER.CONST>
1

>  <SCORE.INTER.POLAR>
0

>  <SCORE.INTER.ROT>
5

>  <SCORE.INTER.SOLV>
8.68667

>  <SCORE.INTER.VDW>
-12.9641

>  <SCORE.INTER.norm>
-0.213763

>  <SCORE.INTRA>
1.69366

>  <SCORE.INTRA.DIHEDRAL>
-0.331515

>  <SCORE.INTRA.DIHEDRAL.0>
2.61549

>  <SCORE.INTRA.POLAR>
0

>  <SCORE.INTRA.POLAR.0>
0

>  <SCORE.INTRA.REPUL>
0

>  <SCORE.INTRA.REPUL.0>
0

>  <SCORE.INTRA.SOLV>
3.98872

>  <SCORE.INTRA.SOLV.lig_0>
-73.766

>  <SCORE.INTRA.VDW>
-0.134943

>  <SCORE.INTRA.VDW.0>
-1.95055

>  <SCORE.INTRA.norm>
0.0769846

>  <SCORE.RESTR>
0

>  <SCORE.RESTR.CAVITY>
0

>  <SCORE.RESTR.norm>
0

>  <SCORE.SYSTEM>
0

>  <SCORE.SYSTEM.CONST>
0

>  <SCORE.SYSTEM.DIHEDRAL>
0

>  <SCORE.SYSTEM.SOLV>
0

>  <SCORE.SYSTEM.norm>
0

>  <SCORE.heavy>
22

>  <SCORE.norm>
-0.136778

>  <RMSD>
2.980

$$$$
ligand
 OpenBabel11021811513D
libRbt.so/2013.1/901 2013/11/27
 22 23  0  0  0  0  0  0  0  0999 V2000
   31.0159   -1.1623  106.3477 N   0  0  0  0  0  0  0  0  0  0  0  0
   27.6068   -1.4050  106.5196 C   0  0  1  0  0  0  0  0  0  0  0  0
   28.8081   -0.7114  107.0067 O   0  0  0  0  0  0  0  0  0  0  0  0
   25.9306   -4.7257  107.3964 P   0  0  2  0  0  0  0  0  0  0  0  0
   29.7720   -0.6929  105.9129 C   0  0  2  0  0  0  0  0  0  0  0  0
   33.1853   -1.4141  106.5525 N   0  0  0  0  0  0  0  0  0  0  0  0
   29.5570   -1.0579  103.5597 O   0  0  0  0  0  0  0  0  0  0  0  0
   29.2314   -1.5738  104.8590 C   0  0  2  0  0  0  0  0  0  0  0  0
   33.0277   -3.1851  109.7018 N   0  0  0  0  0  0  0  0  0  0  0  0
   27.1970   -0.4473  104.3736 O   0  0  0  0  0  0  0  0  0  0  0  0
   27.7796   -1.5711  105.0698 C   0  0  2  0  0  0  0  0  0  0  0  0
   32.5909   -2.2655  107.4109 C   0  0  0  0  0  0  0  0  0  0  0  0
   30.2168   -2.8265  108.0145 N   0  0  0  0  0  0  0  0  0  0  0  0
   26.2837   -3.3220  106.8055 O   0  0  0  0  0  0  0  0  0  0  0  0
   27.4957   -2.7345  107.1683 C   0  0  0  0  0  0  0  0  0  0  0  0
   25.9243   -4.6586  108.9817 O   0  0  0  0  0  0  0  0  0  0  0  0
   32.2024   -0.7430  105.9064 C   0  0  0  0  0  0  0  0  0  0  0  0
   34.1198   -4.0032  107.8780 O   0  0  0  0  0  0  0  0  0  0  0  0
   33.2972   -3.2113  108.3311 C   0  0  0  0  0  0  0  0  0  0  0  0
   31.2165   -2.1189  107.2915 C   0  0  0  0  0  0  0  0  0  0  0  0
   26.8654   -5.7647  106.9088 O   0  5  0  0  0  0  0  0  0  0  0  0
   24.6257   -5.2187  106.8785 O   0  0  0  0  0  0  0  0  0  0  0  0
  1 17  1  0  0  0  0
  1 20  1  0  0  0  0
  2 15  1  1  0  0  0
  2  3  1  0  0  0  0
  2 11  1  0  0  0  0
  3  5  1  0  0  0  0
  4 16  1  1  0  0  0
  4 21  1  0  0  0  0
  4 22  2  0  0  0  0
  4 14  1  0  0  0  0
  5  1  1  1  0  0  0
  5  8  1  0  0  0  0
  6 17  2  0  0  0  0
  6 12  1  0  0  0  0
  8  7  1  6  0  0  0
  8 11  1  0  0  0  0
  9 19  1  0  0  0  0
 11 10  1  6  0  0  0
 12 20  2  0  0  0  0
 12 19  1  0  0  0  0
 13 20  1  0  0  0  0
 14 15  1  0  0  0  0
 18 19  2  0  0  0  0
M  CHG  1  21  -1
M  END
>  <CHROM.1>
-146.71330819,173.85650380,58.14585732,-178.75649402,125.31525228,29.13704789
-2.66254308,106.79172137,0.19232313,-0.22307647,-0.73474619

>  <Name>
ligand

>  <RI>
0

>  <Rbt.Current_Directory>
/home/itssahil/PROJECTS/Mol_Feturizer/New_Systems/rnas/4XW7

>  <Rbt.Executable>
rbdock ($Id: //depot/dev/client3/rdock/2013.1/src/exe/rbdock.cxx#4 $)

>  <Rbt.Library>
libRbt.so (2013.1, Build901 2013/11/27)

>  <Rbt.Parameter_File>
/export/apps/rDock/src/rDock_2013.1_src/data/scripts/dock_solv.prm

>  <Rbt.Receptor>
prm/pocket_docking_4.prm

>  <SCORE>
-4.36433

>  <SCORE.INTER>
-5.77394

>  <SCORE.INTER.CONST>
1

>  <SCORE.INTER.POLAR>
0

>  <SCORE.INTER.ROT>
5

>  <SCORE.INTER.SOLV>
8.45117

>  <SCORE.INTER.VDW>
-13.5997

>  <SCORE.INTER.norm>
-0.262452

>  <SCORE.INTRA>
1.40961

>  <SCORE.INTRA.DIHEDRAL>
-0.958303

>  <SCORE.INTRA.DIHEDRAL.0>
2.61549

>  <SCORE.INTRA.POLAR>
0

>  <SCORE.INTRA.POLAR.0>
0

>  <SCORE.INTRA.REPUL>
0

>  <SCORE.INTRA.REPUL.0>
0

>  <SCORE.INTRA.SOLV>
4.12314

>  <SCORE.INTRA.SOLV.lig_0>
-73.766

>  <SCORE.INTRA.VDW>
-0.172809

>  <SCORE.INTRA.VDW.0>
-1.95055

>  <SCORE.INTRA.norm>
0.0640732

>  <SCORE.RESTR>
0

>  <SCORE.RESTR.CAVITY>
0

>  <SCORE.RESTR.norm>
0

>  <SCORE.SYSTEM>
0

>  <SCORE.SYSTEM.CONST>
0

>  <SCORE.SYSTEM.DIHEDRAL>
0

>  <SCORE.SYSTEM.SOLV>
0

>  <SCORE.SYSTEM.norm>
0

>  <SCORE.heavy>
22

>  <SCORE.norm>
-0.198379

>  <RMSD>
3.110

$$$$
ligand
 OpenBabel11021811513D
libRbt.so/2013.1/901 2013/11/27
 22 23  0  0  0  0  0  0  0  0999 V2000
   30.5599   -2.6540  107.4152 N   0  0  0  0  0  0  0  0  0  0  0  0
   27.7020   -1.0900  106.3683 C   0  0  1  0  0  0  0  0  0  0  0  0
   28.5577   -1.4320  107.5138 O   0  0  0  0  0  0  0  0  0  0  0  0
   25.2602   -3.9923  106.8366 P   0  0  2  0  0  0  0  0  0  0  0  0
   29.9340   -1.4628  107.0334 C   0  0  2  0  0  0  0  0  0  0  0  0
   30.9263   -4.7879  107.7674 N   0  0  0  0  0  0  0  0  0  0  0  0
   30.9793   -0.6063  105.0609 O   0  0  0  0  0  0  0  0  0  0  0  0
   29.8696   -1.3664  105.5618 C   0  0  2  0  0  0  0  0  0  0  0  0
   34.5123   -4.2519  108.3845 N   0  0  0  0  0  0  0  0  0  0  0  0
   28.8106    0.7470  105.3259 O   0  0  0  0  0  0  0  0  0  0  0  0
   28.6026   -0.6819  105.2813 C   0  0  2  0  0  0  0  0  0  0  0  0
   32.0181   -4.1118  108.1746 C   0  0  0  0  0  0  0  0  0  0  0  0
   32.6976   -1.6935  108.2484 N   0  0  0  0  0  0  0  0  0  0  0  0
   26.1438   -2.7166  107.0268 O   0  0  0  0  0  0  0  0  0  0  0  0
   26.9189   -2.2794  105.9526 C   0  0  0  0  0  0  0  0  0  0  0  0
   26.1746   -5.2303  106.4503 O   0  0  0  0  0  0  0  0  0  0  0  0
   30.0389   -3.8764  107.3029 C   0  0  0  0  0  0  0  0  0  0  0  0
   33.1520   -5.6387  109.5740 O   0  0  0  0  0  0  0  0  0  0  0  0
   33.2520   -4.7208  108.7638 C   0  0  0  0  0  0  0  0  0  0  0  0
   31.8005   -2.7587  107.9595 C   0  0  0  0  0  0  0  0  0  0  0  0
   24.2056   -3.7693  105.8222 O   0  5  0  0  0  0  0  0  0  0  0  0
   24.4578   -4.2821  108.0558 O   0  0  0  0  0  0  0  0  0  0  0  0
  1 17  1  0  0  0  0
  1 20  1  0  0  0  0
  2 15  1  6  0  0  0
  2  3  1  0  0  0  0
  2 11  1  0  0  0  0
  3  5  1  0  0  0  0
  4 16  1  6  0  0  0
  4 21  1  0  0  0  0
  4 22  2  0  0  0  0
  4 14  1  0  0  0  0
  5  1  1  6  0  0  0
  5  8  1  0  0  0  0
  6 17  2  0  0  0  0
  6 12  1  0  0  0  0
  8  7  1  1  0  0  0
  8 11  1  0  0  0  0
  9 19  1  0  0  0  0
 11 10  1  1  0  0  0
 12 20  2  0  0  0  0
 12 19  1  0  0  0  0
 13 20  1  0  0  0  0
 14 15  1  0  0  0  0
 18 19  2  0  0  0  0
M  CHG  1  21  -1
M  END
>  <CHROM.1>
46.29507992,58.74478372,59.04363369,-178.19906560,138.35835688,29.04665758
-2.90349158,107.05023563,-0.14019745,-0.17614992,-0.48429074

>  <Name>
ligand

>  <RI>
0

>  <Rbt.Current_Directory>
/home/itssahil/PROJECTS/Mol_Feturizer/New_Systems/rnas/4XW7

>  <Rbt.Executable>
rbdock ($Id: //depot/dev/client3/rdock/2013.1/src/exe/rbdock.cxx#4 $)

>  <Rbt.Library>
libRbt.so (2013.1, Build901 2013/11/27)

>  <Rbt.Parameter_File>
/export/apps/rDock/src/rDock_2013.1_src/data/scripts/dock_solv.prm

>  <Rbt.Receptor>
prm/pocket_docking_4.prm

>  <SCORE>
-4.29718

>  <SCORE.INTER>
-3.23989

>  <SCORE.INTER.CONST>
1

>  <SCORE.INTER.POLAR>
0

>  <SCORE.INTER.ROT>
5

>  <SCORE.INTER.SOLV>
11.4028

>  <SCORE.INTER.VDW>
-12.8942

>  <SCORE.INTER.norm>
-0.147268

>  <SCORE.INTRA>
-1.05729

>  <SCORE.INTRA.DIHEDRAL>
-0.762562

>  <SCORE.INTRA.DIHEDRAL.0>
2.61549

>  <SCORE.INTRA.POLAR>
0

>  <SCORE.INTRA.POLAR.0>
0

>  <SCORE.INTRA.REPUL>
0

>  <SCORE.INTRA.REPUL.0>
0

>  <SCORE.INTRA.SOLV>
-0.225384

>  <SCORE.INTRA.SOLV.lig_0>
-73.766

>  <SCORE.INTRA.VDW>
-0.563318

>  <SCORE.INTRA.VDW.0>
-1.95055

>  <SCORE.INTRA.norm>
-0.0480587

>  <SCORE.RESTR>
0

>  <SCORE.RESTR.CAVITY>
0

>  <SCORE.RESTR.norm>
0

>  <SCORE.SYSTEM>
0

>  <SCORE.SYSTEM.CONST>
0

>  <SCORE.SYSTEM.DIHEDRAL>
0

>  <SCORE.SYSTEM.SOLV>
0

>  <SCORE.SYSTEM.norm>
0

>  <SCORE.heavy>
22

>  <SCORE.norm>
-0.195327

>  <RMSD>
3.473

$$$$
ligand
 OpenBabel11021811513D
libRbt.so/2013.1/901 2013/11/27
 22 23  0  0  0  0  0  0  0  0999 V2000
   30.5605   -2.3120  107.2004 N   0  0  0  0  0  0  0  0  0  0  0  0
   27.7082   -0.4784  106.7399 C   0  0  1  0  0  0  0  0  0  0  0  0
   28.8236   -0.7957  107.6435 O   0  0  0  0  0  0  0  0  0  0  0  0
   26.4642   -4.0633  106.2881 P   0  0  2  0  0  0  0  0  0  0  0  0
   29.9826   -1.0988  106.8122 C   0  0  2  0  0  0  0  0  0  0  0  0
   30.8448   -4.4579  107.5558 N   0  0  0  0  0  0  0  0  0  0  0  0
   30.4800   -0.6753  104.5121 O   0  0  0  0  0  0  0  0  0  0  0  0
   29.4939   -1.1853  105.4220 C   0  0  2  0  0  0  0  0  0  0  0  0
   34.4413   -4.0739  108.1891 N   0  0  0  0  0  0  0  0  0  0  0  0
   28.6491    1.0166  105.1367 O   0  0  0  0  0  0  0  0  0  0  0  0
   28.2832   -0.3572  105.3930 C   0  0  2  0  0  0  0  0  0  0  0  0
   31.9562   -3.8222  107.9749 C   0  0  0  0  0  0  0  0  0  0  0  0
   32.7228   -1.4302  108.0566 N   0  0  0  0  0  0  0  0  0  0  0  0
   27.3344   -2.7684  106.3888 O   0  0  0  0  0  0  0  0  0  0  0  0
   26.7125   -1.5777  106.7645 C   0  0  0  0  0  0  0  0  0  0  0  0
   25.2941   -3.8477  105.2381 O   0  0  0  0  0  0  0  0  0  0  0  0
   29.9964   -3.5146  107.0822 C   0  0  0  0  0  0  0  0  0  0  0  0
   33.0183   -5.3713  109.4058 O   0  0  0  0  0  0  0  0  0  0  0  0
   33.1606   -4.4757  108.5771 C   0  0  0  0  0  0  0  0  0  0  0  0
   31.7905   -2.4619  107.7579 C   0  0  0  0  0  0  0  0  0  0  0  0
   25.9295   -4.4558  107.6114 O   0  5  0  0  0  0  0  0  0  0  0  0
   27.2924   -5.2458  105.9279 O   0  0  0  0  0  0  0  0  0  0  0  0
  1 17  1  0  0  0  0
  1 20  1  0  0  0  0
  2 15  1  6  0  0  0
  2  3  1  0  0  0  0
  2 11  1  0  0  0  0
  3  5  1  0  0  0  0
  4 16  1  6  0  0  0
  4 21  1  0  0  0  0
  4 22  2  0  0  0  0
  4 14  1  0  0  0  0
  5  1  1  1  0  0  0
  5  8  1  0  0  0  0
  6 17  2  0  0  0  0
  6 12  1  0  0  0  0
  8  7  1  6  0  0  0
  8 11  1  0  0  0  0
  9 19  1  0  0  0  0
 11 10  1  1  0  0  0
 12 20  2  0  0  0  0
 12 19  1  0  0  0  0
 13 20  1  0  0  0  0
 14 15  1  0  0  0  0
 18 19  2  0  0  0  0
M  CHG  1  21  -1
M  END
>  <CHROM.1>
66.58025882,-58.16894660,58.76427088,-177.68213273,136.92124408,29.32389456
-2.69260373,106.82976063,-0.25531471,-0.27378880,-0.34634213

>  <Name>
ligand

>  <RI>
0

>  <Rbt.Current_Directory>
/home/itssahil/PROJECTS/Mol_Feturizer/New_Systems/rnas/4XW7

>  <Rbt.Executable>
rbdock ($Id: //depot/dev/client3/rdock/2013.1/src/exe/rbdock.cxx#4 $)

>  <Rbt.Library>
libRbt.so (2013.1, Build901 2013/11/27)

>  <Rbt.Parameter_File>
/export/apps/rDock/src/rDock_2013.1_src/data/scripts/dock_solv.prm

>  <Rbt.Receptor>
prm/pocket_docking_4.prm

>  <SCORE>
-4.20872

>  <SCORE.INTER>
-3.39816

>  <SCORE.INTER.CONST>
1

>  <SCORE.INTER.POLAR>
0

>  <SCORE.INTER.ROT>
5

>  <SCORE.INTER.SOLV>
14.3429

>  <SCORE.INTER.VDW>
-13.9797

>  <SCORE.INTER.norm>
-0.154462

>  <SCORE.INTRA>
-0.810564

>  <SCORE.INTRA.DIHEDRAL>
-0.786475

>  <SCORE.INTRA.DIHEDRAL.0>
2.61549

>  <SCORE.INTRA.POLAR>
0

>  <SCORE.INTRA.POLAR.0>
0

>  <SCORE.INTRA.REPUL>
0

>  <SCORE.INTRA.REPUL.0>
0

>  <SCORE.INTRA.SOLV>
0.270051

>  <SCORE.INTRA.SOLV.lig_0>
-73.766

>  <SCORE.INTRA.VDW>
-0.552352

>  <SCORE.INTRA.VDW.0>
-1.95055

>  <SCORE.INTRA.norm>
-0.0368438

>  <SCORE.RESTR>
0

>  <SCORE.RESTR.CAVITY>
0

>  <SCORE.RESTR.norm>
0

>  <SCORE.SYSTEM>
0

>  <SCORE.SYSTEM.CONST>
0

>  <SCORE.SYSTEM.DIHEDRAL>
0

>  <SCORE.SYSTEM.SOLV>
0

>  <SCORE.SYSTEM.norm>
0

>  <SCORE.heavy>
22

>  <SCORE.norm>
-0.191306

>  <RMSD>
3.528

$$$$
ligand
 OpenBabel11021811513D
libRbt.so/2013.1/901 2013/11/27
 22 23  0  0  0  0  0  0  0  0999 V2000
   31.0196   -2.2864  107.4327 N   0  0  0  0  0  0  0  0  0  0  0  0
   28.1081   -0.5202  107.0961 C   0  0  1  0  0  0  0  0  0  0  0  0
   29.2832   -0.7892  107.9376 O   0  0  0  0  0  0  0  0  0  0  0  0
   26.9545   -4.1621  106.9844 P   0  0  2  0  0  0  0  0  0  0  0  0
   30.3947   -1.0965  107.0453 C   0  0  2  0  0  0  0  0  0  0  0  0
   31.4090   -4.4227  107.7432 N   0  0  0  0  0  0  0  0  0  0  0  0
   30.7409   -0.7351  104.7072 O   0  0  0  0  0  0  0  0  0  0  0  0
   29.8232   -1.2347  105.6913 C   0  0  2  0  0  0  0  0  0  0  0  0
   34.1006   -3.8547  110.1333 N   0  0  0  0  0  0  0  0  0  0  0  0
   28.9182    0.9415  105.3939 O   0  0  0  0  0  0  0  0  0  0  0  0
   28.5965   -0.4302  105.7131 C   0  0  2  0  0  0  0  0  0  0  0  0
   32.4547   -3.7381  108.2459 C   0  0  0  0  0  0  0  0  0  0  0  0
   33.0728   -1.3101  108.4414 N   0  0  0  0  0  0  0  0  0  0  0  0
   27.7847   -2.8385  106.9284 O   0  0  0  0  0  0  0  0  0  0  0  0
   27.1381   -1.6363  107.2150 C   0  0  0  0  0  0  0  0  0  0  0  0
   27.9052   -5.4074  106.7329 O   0  0  0  0  0  0  0  0  0  0  0  0
   30.5353   -3.5150  107.2467 C   0  0  0  0  0  0  0  0  0  0  0  0
   34.2604   -5.2563  108.3449 O   0  0  0  0  0  0  0  0  0  0  0  0
   33.6586   -4.3405  108.9001 C   0  0  0  0  0  0  0  0  0  0  0  0
   32.2219   -2.3834  108.0582 C   0  0  0  0  0  0  0  0  0  0  0  0
   25.8375   -4.1374  106.0134 O   0  5  0  0  0  0  0  0  0  0  0  0
   26.2334   -4.2948  108.2793 O   0  0  0  0  0  0  0  0  0  0  0  0
  1 17  1  0  0  0  0
  1 20  1  0  0  0  0
  2 15  1  6  0  0  0
  2  3  1  0  0  0  0
  2 11  1  0  0  0  0
  3  5  1  0  0  0  0
  4 16  1  6  0  0  0
  4 21  1  0  0  0  0
  4 22  2  0  0  0  0
  4 14  1  0  0  0  0
  5  1  1  1  0  0  0
  5  8  1  0  0  0  0
  6 17  2  0  0  0  0
  6 12  1  0  0  0  0
  8  7  1  6  0  0  0
  8 11  1  0  0  0  0
  9 19  1  0  0  0  0
 11 10  1  1  0  0  0
 12 20  2  0  0  0  0
 12 19  1  0  0  0  0
 13 20  1  0  0  0  0
 14 15  1  0  0  0  0
 18 19  2  0  0  0  0
M  CHG  1  21  -1
M  END
>  <CHROM.1>
74.64099999,-54.00980971,-175.79571296,-179.73629234,-130.82855366,29.76276455
-2.70108940,107.23695868,-0.23569082,-0.23883596,-0.36610917

>  <Name>
ligand

>  <RI>
0

>  <Rbt.Current_Directory>
/home/itssahil/PROJECTS/Mol_Feturizer/New_Systems/rnas/4XW7

>  <Rbt.Executable>
rbdock ($Id: //depot/dev/client3/rdock/2013.1/src/exe/rbdock.cxx#4 $)

>  <Rbt.Library>
libRbt.so (2013.1, Build901 2013/11/27)

>  <Rbt.Parameter_File>
/export/apps/rDock/src/rDock_2013.1_src/data/scripts/dock_solv.prm

>  <Rbt.Receptor>
prm/pocket_docking_4.prm

>  <SCORE>
-4.79136

>  <SCORE.INTER>
-4.2018

>  <SCORE.INTER.CONST>
1

>  <SCORE.INTER.POLAR>
0

>  <SCORE.INTER.ROT>
5

>  <SCORE.INTER.SOLV>
12.4336

>  <SCORE.INTER.VDW>
-13.8791

>  <SCORE.INTER.norm>
-0.190991

>  <SCORE.INTRA>
-0.589563

>  <SCORE.INTRA.DIHEDRAL>
-0.844096

>  <SCORE.INTRA.DIHEDRAL.0>
2.61549

>  <SCORE.INTRA.POLAR>
0

>  <SCORE.INTRA.POLAR.0>
0

>  <SCORE.INTRA.REPUL>
0

>  <SCORE.INTRA.REPUL.0>
0

>  <SCORE.INTRA.SOLV>
0.515487

>  <SCORE.INTRA.SOLV.lig_0>
-73.766

>  <SCORE.INTRA.VDW>
-0.425259

>  <SCORE.INTRA.VDW.0>
-1.95055

>  <SCORE.INTRA.norm>
-0.0267983

>  <SCORE.RESTR>
0

>  <SCORE.RESTR.CAVITY>
0

>  <SCORE.RESTR.norm>
0

>  <SCORE.SYSTEM>
0

>  <SCORE.SYSTEM.CONST>
0

>  <SCORE.SYSTEM.DIHEDRAL>
0

>  <SCORE.SYSTEM.SOLV>
0

>  <SCORE.SYSTEM.norm>
0

>  <SCORE.heavy>
22

>  <SCORE.norm>
-0.217789

>  <RMSD>
3.732

$$$$
ligand
 OpenBabel11021811513D
libRbt.so/2013.1/901 2013/11/27
 22 23  0  0  0  0  0  0  0  0999 V2000
   30.8178   -2.6886  107.4726 N   0  0  0  0  0  0  0  0  0  0  0  0
   27.8886   -1.1833  106.5434 C   0  0  1  0  0  0  0  0  0  0  0  0
   28.7943   -1.5119  107.6538 O   0  0  0  0  0  0  0  0  0  0  0  0
   25.3013   -3.1678  104.5498 P   0  0  2  0  0  0  0  0  0  0  0  0
   30.1519   -1.5097  107.1215 C   0  0  2  0  0  0  0  0  0  0  0  0
   31.2407   -4.8149  107.8070 N   0  0  0  0  0  0  0  0  0  0  0  0
   31.1027   -0.6203  105.1161 O   0  0  0  0  0  0  0  0  0  0  0  0
   30.0297   -1.4074  105.6540 C   0  0  2  0  0  0  0  0  0  0  0  0
   33.6595   -6.0490  109.0607 N   0  0  0  0  0  0  0  0  0  0  0  0
   28.9163    0.6831  105.4706 O   0  0  0  0  0  0  0  0  0  0  0  0
   28.7383   -0.7498  105.4256 C   0  0  2  0  0  0  0  0  0  0  0  0
   32.3385   -4.1182  108.1598 C   0  0  0  0  0  0  0  0  0  0  0  0
   32.9757   -1.6875  108.1993 N   0  0  0  0  0  0  0  0  0  0  0  0
   26.2326   -2.0517  105.1254 O   0  0  0  0  0  0  0  0  0  0  0  0
   27.1168   -2.3877  106.1505 C   0  0  0  0  0  0  0  0  0  0  0  0
   24.4368   -2.5863  103.3530 O   0  0  0  0  0  0  0  0  0  0  0  0
   30.3148   -3.9207  107.3864 C   0  0  0  0  0  0  0  0  0  0  0  0
   34.6078   -3.9945  108.8000 O   0  0  0  0  0  0  0  0  0  0  0  0
   33.6109   -4.7034  108.6878 C   0  0  0  0  0  0  0  0  0  0  0  0
   32.0854   -2.7695  107.9552 C   0  0  0  0  0  0  0  0  0  0  0  0
   24.4361   -3.7426  105.6045 O   0  5  0  0  0  0  0  0  0  0  0  0
   26.0848   -4.3554  104.1138 O   0  0  0  0  0  0  0  0  0  0  0  0
  1 17  1  0  0  0  0
  1 20  1  0  0  0  0
  2 15  1  6  0  0  0
  2  3  1  0  0  0  0
  2 11  1  0  0  0  0
  3  5  1  0  0  0  0
  4 16  1  6  0  0  0
  4 21  1  0  0  0  0
  4 22  2  0  0  0  0
  4 14  1  0  0  0  0
  5  1  1  6  0  0  0
  5  8  1  0  0  0  0
  6 17  2  0  0  0  0
  6 12  1  0  0  0  0
  8  7  1  1  0  0  0
  8 11  1  0  0  0  0
  9 19  1  0  0  0  0
 11 10  1  1  0  0  0
 12 20  2  0  0  0  0
 12 19  1  0  0  0  0
 13 20  1  0  0  0  0
 14 15  1  0  0  0  0
 18 19  2  0  0  0  0
M  CHG  1  21  -1
M  END
>  <CHROM.1>
45.52479520,178.16117272,-177.19236158,-179.67811092,-10.65042037,29.23533183
-2.69000246,106.42733073,-0.23301181,-0.41616753,-0.24135880

>  <Name>
ligand

>  <RI>
0

>  <Rbt.Current_Directory>
/home/itssahil/PROJECTS/Mol_Feturizer/New_Systems/rnas/4XW7

>  <Rbt.Executable>
rbdock ($Id: //depot/dev/client3/rdock/2013.1/src/exe/rbdock.cxx#4 $)

>  <Rbt.Library>
libRbt.so (2013.1, Build901 2013/11/27)

>  <Rbt.Parameter_File>
/export/apps/rDock/src/rDock_2013.1_src/data/scripts/dock_solv.prm

>  <Rbt.Receptor>
prm/pocket_docking_4.prm

>  <SCORE>
-4.28009

>  <SCORE.INTER>
-3.95638

>  <SCORE.INTER.CONST>
1

>  <SCORE.INTER.POLAR>
0

>  <SCORE.INTER.ROT>
5

>  <SCORE.INTER.SOLV>
12.4818

>  <SCORE.INTER.VDW>
-13.7315

>  <SCORE.INTER.norm>
-0.179835

>  <SCORE.INTRA>
-0.323714

>  <SCORE.INTRA.DIHEDRAL>
-0.99357

>  <SCORE.INTRA.DIHEDRAL.0>
2.61549

>  <SCORE.INTRA.POLAR>
0

>  <SCORE.INTRA.POLAR.0>
0

>  <SCORE.INTRA.REPUL>
0

>  <SCORE.INTRA.REPUL.0>
0

>  <SCORE.INTRA.SOLV>
0.436859

>  <SCORE.INTRA.SOLV.lig_0>
-73.766

>  <SCORE.INTRA.VDW>
-0.0453589

>  <SCORE.INTRA.VDW.0>
-1.95055

>  <SCORE.INTRA.norm>
-0.0147143

>  <SCORE.RESTR>
0

>  <SCORE.RESTR.CAVITY>
0

>  <SCORE.RESTR.norm>
0

>  <SCORE.SYSTEM>
0

>  <SCORE.SYSTEM.CONST>
0

>  <SCORE.SYSTEM.DIHEDRAL>
0

>  <SCORE.SYSTEM.SOLV>
0

>  <SCORE.SYSTEM.norm>
0

>  <SCORE.heavy>
22

>  <SCORE.norm>
-0.19455

>  <RMSD>
3.954

$$$$
ligand
 OpenBabel11021811513D
libRbt.so/2013.1/901 2013/11/27
 22 23  0  0  0  0  0  0  0  0999 V2000
   31.0371   -2.3700  107.2811 N   0  0  0  0  0  0  0  0  0  0  0  0
   27.8884   -2.9294  106.0635 C   0  0  1  0  0  0  0  0  0  0  0  0
   28.7425   -2.8662  107.2585 O   0  0  0  0  0  0  0  0  0  0  0  0
   27.4181   -5.4881  103.2645 P   0  0  2  0  0  0  0  0  0  0  0  0
   29.7647   -1.8570  107.0082 C   0  0  2  0  0  0  0  0  0  0  0  0
   33.2177   -2.6057  107.3188 N   0  0  0  0  0  0  0  0  0  0  0  0
   29.9401   -0.0944  105.4022 O   0  0  0  0  0  0  0  0  0  0  0  0
   29.6550   -1.4895  105.5828 C   0  0  2  0  0  0  0  0  0  0  0  0
   34.7756   -4.4737  109.1173 N   0  0  0  0  0  0  0  0  0  0  0  0
   27.4340   -0.6477  105.5366 O   0  0  0  0  0  0  0  0  0  0  0  0
   28.2648   -1.7864  105.2202 C   0  0  2  0  0  0  0  0  0  0  0  0
   32.6839   -3.6140  108.0353 C   0  0  0  0  0  0  0  0  0  0  0  0
   30.3552   -4.3306  108.6513 N   0  0  0  0  0  0  0  0  0  0  0  0
   27.2931   -4.2610  104.2252 O   0  0  0  0  0  0  0  0  0  0  0  0
   28.1376   -4.1965  105.3335 C   0  0  0  0  0  0  0  0  0  0  0  0
   28.9094   -5.6113  102.7364 O   0  0  0  0  0  0  0  0  0  0  0  0
   32.1912   -1.8497  106.8620 C   0  0  0  0  0  0  0  0  0  0  0  0
   32.9208   -5.7835  108.9367 O   0  0  0  0  0  0  0  0  0  0  0  0
   33.4532   -4.6969  108.7252 C   0  0  0  0  0  0  0  0  0  0  0  0
   31.3032   -3.4793  108.0193 C   0  0  0  0  0  0  0  0  0  0  0  0
   26.4593   -5.3908  102.1409 O   0  5  0  0  0  0  0  0  0  0  0  0
   26.9833   -6.7450  103.9318 O   0  0  0  0  0  0  0  0  0  0  0  0
  1 17  1  0  0  0  0
  1 20  1  0  0  0  0
  2 15  1  6  0  0  0
  2  3  1  0  0  0  0
  2 11  1  0  0  0  0
  3  5  1  0  0  0  0
  4 16  1  6  0  0  0
  4 21  1  0  0  0  0
  4 22  2  0  0  0  0
  4 14  1  0  0  0  0
  5  1  1  6  0  0  0
  5  8  1  0  0  0  0
  6 17  2  0  0  0  0
  6 12  1  0  0  0  0
  8  7  1  1  0  0  0
  8 11  1  0  0  0  0
  9 19  1  0  0  0  0
 11 10  1  1  0  0  0
 12 20  2  0  0  0  0
 12 19  1  0  0  0  0
 13 20  1  0  0  0  0
 14 15  1  0  0  0  0
 18 19  2  0  0  0  0
M  CHG  1  21  -1
M  END
>  <CHROM.1>
162.66667651,178.25722520,-55.93260869,177.48812038,25.14430794,29.70327943
-3.62467443,105.96348914,0.29950144,-0.67734616,0.21157123

>  <Name>
ligand

>  <RI>
0

>  <Rbt.Current_Directory>
/home/itssahil/PROJECTS/Mol_Feturizer/New_Systems/rnas/4XW7

>  <Rbt.Executable>
rbdock ($Id: //depot/dev/client3/rdock/2013.1/src/exe/rbdock.cxx#4 $)

>  <Rbt.Library>
libRbt.so (2013.1, Build901 2013/11/27)

>  <Rbt.Parameter_File>
/export/apps/rDock/src/rDock_2013.1_src/data/scripts/dock_solv.prm

>  <Rbt.Receptor>
prm/pocket_docking_4.prm

>  <SCORE>
-5.20633

>  <SCORE.INTER>
-6.40285

>  <SCORE.INTER.CONST>
1

>  <SCORE.INTER.POLAR>
0

>  <SCORE.INTER.ROT>
5

>  <SCORE.INTER.SOLV>
11.1336

>  <SCORE.INTER.VDW>
-14.9131

>  <SCORE.INTER.norm>
-0.291039

>  <SCORE.INTRA>
1.19652

>  <SCORE.INTRA.DIHEDRAL>
-0.453529

>  <SCORE.INTRA.DIHEDRAL.0>
2.61549

>  <SCORE.INTRA.POLAR>
0

>  <SCORE.INTRA.POLAR.0>
0

>  <SCORE.INTRA.REPUL>
0

>  <SCORE.INTRA.REPUL.0>
0

>  <SCORE.INTRA.SOLV>
1.64654

>  <SCORE.INTRA.SOLV.lig_0>
-73.766

>  <SCORE.INTRA.VDW>
0.600017

>  <SCORE.INTRA.VDW.0>
-1.95055

>  <SCORE.INTRA.norm>
0.0543873

>  <SCORE.RESTR>
0

>  <SCORE.RESTR.CAVITY>
0

>  <SCORE.RESTR.norm>
0

>  <SCORE.SYSTEM>
0

>  <SCORE.SYSTEM.CONST>
0

>  <SCORE.SYSTEM.DIHEDRAL>
0

>  <SCORE.SYSTEM.SOLV>
0

>  <SCORE.SYSTEM.norm>
0

>  <SCORE.heavy>
22

>  <SCORE.norm>
-0.236652

>  <RMSD>
3.966

$$$$
ligand
 OpenBabel11021811513D
libRbt.so/2013.1/901 2013/11/27
 22 23  0  0  0  0  0  0  0  0999 V2000
   31.2181   -3.2015  107.9147 N   0  0  0  0  0  0  0  0  0  0  0  0
   28.5628   -1.6787  106.3849 C   0  0  1  0  0  0  0  0  0  0  0  0
   29.1041   -2.2174  107.6411 O   0  0  0  0  0  0  0  0  0  0  0  0
   26.4337   -4.6889  105.3958 P   0  0  2  0  0  0  0  0  0  0  0  0
   30.5474   -2.0110  107.6154 C   0  0  2  0  0  0  0  0  0  0  0  0
   31.6692   -5.3393  108.1091 N   0  0  0  0  0  0  0  0  0  0  0  0
   31.9586   -0.6092  106.2887 O   0  0  0  0  0  0  0  0  0  0  0  0
   30.8852   -1.5613  106.2507 C   0  0  2  0  0  0  0  0  0  0  0  0
   34.0265   -6.6184  109.4377 N   0  0  0  0  0  0  0  0  0  0  0  0
   29.6197    0.4464  106.1454 O   0  0  0  0  0  0  0  0  0  0  0  0
   29.6578   -0.9400  105.7410 C   0  0  2  0  0  0  0  0  0  0  0  0
   32.7273   -4.6525  108.5819 C   0  0  0  0  0  0  0  0  0  0  0  0
   33.3046   -2.2212  108.8486 N   0  0  0  0  0  0  0  0  0  0  0  0
   27.1772   -3.5621  106.1843 O   0  0  0  0  0  0  0  0  0  0  0  0
   28.1234   -2.7918  105.5082 C   0  0  0  0  0  0  0  0  0  0  0  0
   27.4806   -5.5585  104.5799 O   0  0  0  0  0  0  0  0  0  0  0  0
   30.7498   -4.4320  107.7026 C   0  0  0  0  0  0  0  0  0  0  0  0
   34.9591   -4.5423  109.3448 O   0  0  0  0  0  0  0  0  0  0  0  0
   33.9789   -5.2539  109.1406 C   0  0  0  0  0  0  0  0  0  0  0  0
   32.4559   -3.2968  108.4670 C   0  0  0  0  0  0  0  0  0  0  0  0
   25.3959   -4.1253  104.5034 O   0  5  0  0  0  0  0  0  0  0  0  0
   25.6250   -5.5439  106.3063 O   0  0  0  0  0  0  0  0  0  0  0  0
  1 17  1  0  0  0  0
  1 20  1  0  0  0  0
  2 15  1  6  0  0  0
  2  3  1  0  0  0  0
  2 11  1  0  0  0  0
  3  5  1  0  0  0  0
  4 16  1  6  0  0  0
  4 21  1  0  0  0  0
  4 22  2  0  0  0  0
  4 14  1  0  0  0  0
  5  1  1  6  0  0  0
  5  8  1  0  0  0  0
  6 17  2  0  0  0  0
  6 12  1  0  0  0  0
  8  7  1  1  0  0  0
  8 11  1  0  0  0  0
  9 19  1  0  0  0  0
 11 10  1  1  0  0  0
 12 20  2  0  0  0  0
 12 19  1  0  0  0  0
 13 20  1  0  0  0  0
 14 15  1  0  0  0  0
 18 19  2  0  0  0  0
M  CHG  1  21  -1
M  END
>  <CHROM.1>
26.75306440,57.43150253,47.71957786,172.39109523,-12.03364642,29.94531682
-3.43812500,106.94622072,-0.09896423,-0.44876124,-0.20419690

>  <Name>
ligand

>  <RI>
0

>  <Rbt.Current_Directory>
/home/itssahil/PROJECTS/Mol_Feturizer/New_Systems/rnas/4XW7

>  <Rbt.Executable>
rbdock ($Id: //depot/dev/client3/rdock/2013.1/src/exe/rbdock.cxx#4 $)

>  <Rbt.Library>
libRbt.so (2013.1, Build901 2013/11/27)

>  <Rbt.Parameter_File>
/export/apps/rDock/src/rDock_2013.1_src/data/scripts/dock_solv.prm

>  <Rbt.Receptor>
prm/pocket_docking_6.prm

>  <SCORE>
-5.21444

>  <SCORE.INTER>
-4.72304

>  <SCORE.INTER.CONST>
1

>  <SCORE.INTER.POLAR>
0

>  <SCORE.INTER.ROT>
5

>  <SCORE.INTER.SOLV>
12.5215

>  <SCORE.INTER.VDW>
-14.2559

>  <SCORE.INTER.norm>
-0.214684

>  <SCORE.INTRA>
-0.4914

>  <SCORE.INTRA.DIHEDRAL>
-0.442335

>  <SCORE.INTRA.DIHEDRAL.0>
2.61549

>  <SCORE.INTRA.POLAR>
0

>  <SCORE.INTRA.POLAR.0>
0

>  <SCORE.INTRA.REPUL>
0

>  <SCORE.INTRA.REPUL.0>
0

>  <SCORE.INTRA.SOLV>
0.246507

>  <SCORE.INTRA.SOLV.lig_0>
-73.766

>  <SCORE.INTRA.VDW>
-0.393486

>  <SCORE.INTRA.VDW.0>
-1.95055

>  <SCORE.INTRA.norm>
-0.0223363

>  <SCORE.RESTR>
0

>  <SCORE.RESTR.CAVITY>
0

>  <SCORE.RESTR.norm>
0

>  <SCORE.SYSTEM>
0

>  <SCORE.SYSTEM.CONST>
0

>  <SCORE.SYSTEM.DIHEDRAL>
0

>  <SCORE.SYSTEM.SOLV>
0

>  <SCORE.SYSTEM.norm>
0

>  <SCORE.heavy>
22

>  <SCORE.norm>
-0.23702

>  <RMSD>
3.994

$$$$
ligand
 OpenBabel11021811513D
libRbt.so/2013.1/901 2013/11/27
 22 23  0  0  0  0  0  0  0  0999 V2000
   31.2504   -1.1839  106.3616 N   0  0  0  0  0  0  0  0  0  0  0  0
   27.9931   -0.1529  106.5542 C   0  0  1  0  0  0  0  0  0  0  0  0
   29.4002    0.1917  106.8049 O   0  0  0  0  0  0  0  0  0  0  0  0
   25.3880   -2.1735  108.4859 P   0  0  2  0  0  0  0  0  0  0  0  0
   30.1982   -0.4695  105.7793 C   0  0  2  0  0  0  0  0  0  0  0  0
   33.2748   -1.7902  106.9498 N   0  0  0  0  0  0  0  0  0  0  0  0
   29.6354   -1.4495  103.6722 O   0  0  0  0  0  0  0  0  0  0  0  0
   29.2897   -1.3870  105.0638 C   0  0  2  0  0  0  0  0  0  0  0  0
   31.9614   -4.2069  109.4234 N   0  0  0  0  0  0  0  0  0  0  0  0
   27.7118    0.1686  104.2073 O   0  0  0  0  0  0  0  0  0  0  0  0
   27.9520   -0.8114  105.2412 C   0  0  2  0  0  0  0  0  0  0  0  0
   32.4093   -2.6650  107.4981 C   0  0  0  0  0  0  0  0  0  0  0  0
   29.9121   -2.9470  107.4961 N   0  0  0  0  0  0  0  0  0  0  0  0
   26.1366   -1.2778  107.4460 O   0  0  0  0  0  0  0  0  0  0  0  0
   27.5097   -1.0868  107.6005 C   0  0  0  0  0  0  0  0  0  0  0  0
   25.6572   -1.6365  109.9546 O   0  0  0  0  0  0  0  0  0  0  0  0
   32.5457   -0.8856  106.2541 C   0  0  0  0  0  0  0  0  0  0  0  0
   33.8035   -4.4699  108.1096 O   0  0  0  0  0  0  0  0  0  0  0  0
   32.7777   -3.8386  108.3509 C   0  0  0  0  0  0  0  0  0  0  0  0
   31.1230   -2.2951  107.1332 C   0  0  0  0  0  0  0  0  0  0  0  0
   25.7833   -3.5940  108.3551 O   0  5  0  0  0  0  0  0  0  0  0  0
   23.9291   -2.2326  108.1990 O   0  0  0  0  0  0  0  0  0  0  0  0
  1 17  1  0  0  0  0
  1 20  1  0  0  0  0
  2 15  1  1  0  0  0
  2  3  1  0  0  0  0
  2 11  1  0  0  0  0
  3  5  1  0  0  0  0
  4 16  1  1  0  0  0
  4 21  1  0  0  0  0
  4 22  2  0  0  0  0
  4 14  1  0  0  0  0
  5  1  1  1  0  0  0
  5  8  1  0  0  0  0
  6 17  2  0  0  0  0
  6 12  1  0  0  0  0
  8  7  1  6  0  0  0
  8 11  1  0  0  0  0
  9 19  1  0  0  0  0
 11 10  1  6  0  0  0
 12 20  2  0  0  0  0
 12 19  1  0  0  0  0
 13 20  1  0  0  0  0
 14 15  1  0  0  0  0
 18 19  2  0  0  0  0
M  CHG  1  21  -1
M  END
>  <CHROM.1>
-111.80354128,172.87973376,54.67917557,-176.97744367,143.74091824,29.00246984
-1.84193645,107.12979550,0.01936506,0.16212236,-0.93112188

>  <Name>
ligand

>  <RI>
0

>  <Rbt.Current_Directory>
/home/itssahil/PROJECTS/Mol_Feturizer/New_Systems/rnas/4XW7

>  <Rbt.Executable>
rbdock ($Id: //depot/dev/client3/rdock/2013.1/src/exe/rbdock.cxx#4 $)

>  <Rbt.Library>
libRbt.so (2013.1, Build901 2013/11/27)

>  <Rbt.Parameter_File>
/export/apps/rDock/src/rDock_2013.1_src/data/scripts/dock_solv.prm

>  <Rbt.Receptor>
prm/pocket_docking_4.prm

>  <SCORE>
-5.16842

>  <SCORE.INTER>
-6.94751

>  <SCORE.INTER.CONST>
1

>  <SCORE.INTER.POLAR>
0

>  <SCORE.INTER.ROT>
5

>  <SCORE.INTER.SOLV>
9.5335

>  <SCORE.INTER.VDW>
-14.7428

>  <SCORE.INTER.norm>
-0.315796

>  <SCORE.INTRA>
1.77909

>  <SCORE.INTRA.DIHEDRAL>
-0.311855

>  <SCORE.INTRA.DIHEDRAL.0>
2.61549

>  <SCORE.INTRA.POLAR>
0

>  <SCORE.INTRA.POLAR.0>
0

>  <SCORE.INTRA.REPUL>
0

>  <SCORE.INTRA.REPUL.0>
0

>  <SCORE.INTRA.SOLV>
4.56788

>  <SCORE.INTRA.SOLV.lig_0>
-73.766

>  <SCORE.INTRA.VDW>
-0.348921

>  <SCORE.INTRA.VDW.0>
-1.95055

>  <SCORE.INTRA.norm>
0.0808677

>  <SCORE.RESTR>
0

>  <SCORE.RESTR.CAVITY>
0

>  <SCORE.RESTR.norm>
0

>  <SCORE.SYSTEM>
0

>  <SCORE.SYSTEM.CONST>
0

>  <SCORE.SYSTEM.DIHEDRAL>
0

>  <SCORE.SYSTEM.SOLV>
0

>  <SCORE.SYSTEM.norm>
0

>  <SCORE.heavy>
22

>  <SCORE.norm>
-0.234928

>  <RMSD>
4.047

$$$$
ligand
 OpenBabel11021811513D
libRbt.so/2013.1/901 2013/11/27
 22 23  0  0  0  0  0  0  0  0999 V2000
   30.9166   -3.2030  107.7377 N   0  0  0  0  0  0  0  0  0  0  0  0
   28.4654   -1.7754  105.8238 C   0  0  1  0  0  0  0  0  0  0  0  0
   28.8031   -2.3923  107.1148 O   0  0  0  0  0  0  0  0  0  0  0  0
   26.8516   -4.7732  104.0968 P   0  0  2  0  0  0  0  0  0  0  0  0
   30.1908   -2.0537  107.4075 C   0  0  2  0  0  0  0  0  0  0  0  0
   31.4390   -5.3091  108.0591 N   0  0  0  0  0  0  0  0  0  0  0  0
   31.6729   -0.3967  106.5274 O   0  0  0  0  0  0  0  0  0  0  0  0
   30.7407   -1.4334  106.1861 C   0  0  2  0  0  0  0  0  0  0  0  0
   33.9864   -6.4650  109.0983 N   0  0  0  0  0  0  0  0  0  0  0  0
   29.3067    0.4505  105.9906 O   0  0  0  0  0  0  0  0  0  0  0  0
   29.5776   -0.8761  105.4869 C   0  0  2  0  0  0  0  0  0  0  0  0
   32.5170   -4.5663  108.3769 C   0  0  0  0  0  0  0  0  0  0  0  0
   33.0523   -2.1109  108.3956 N   0  0  0  0  0  0  0  0  0  0  0  0
   27.2963   -3.6889  105.1316 O   0  0  0  0  0  0  0  0  0  0  0  0
   28.3346   -2.8250  104.7836 C   0  0  0  0  0  0  0  0  0  0  0  0
   28.1218   -5.5508  103.5493 O   0  0  0  0  0  0  0  0  0  0  0  0
   30.4634   -4.4552  107.6678 C   0  0  0  0  0  0  0  0  0  0  0  0
   34.7622   -4.3236  109.0665 O   0  0  0  0  0  0  0  0  0  0  0  0
   33.8290   -5.0965  108.8646 C   0  0  0  0  0  0  0  0  0  0  0  0
   32.2011   -3.2298  108.1801 C   0  0  0  0  0  0  0  0  0  0  0  0
   26.0740   -4.1726  102.9897 O   0  5  0  0  0  0  0  0  0  0  0  0
   25.8644   -5.7154  104.6901 O   0  0  0  0  0  0  0  0  0  0  0  0
  1 17  1  0  0  0  0
  1 20  1  0  0  0  0
  2 15  1  6  0  0  0
  2  3  1  0  0  0  0
  2 11  1  0  0  0  0
  3  5  1  0  0  0  0
  4 16  1  6  0  0  0
  4 21  1  0  0  0  0
  4 22  2  0  0  0  0
  4 14  1  0  0  0  0
  5  1  1  6  0  0  0
  5  8  1  0  0  0  0
  6 17  2  0  0  0  0
  6 12  1  0  0  0  0
  8  7  1  1  0  0  0
  8 11  1  0  0  0  0
  9 19  1  0  0  0  0
 11 10  1  1  0  0  0
 12 20  2  0  0  0  0
 12 19  1  0  0  0  0
 13 20  1  0  0  0  0
 14 15  1  0  0  0  0
 18 19  2  0  0  0  0
M  CHG  1  21  -1
M  END
>  <CHROM.1>
6.46466890,61.82328974,49.17041956,172.45910429,-3.73003524,29.92709331,-3.42623733
106.38897143,0.00435567,-0.60803162,-0.03320522

>  <Name>
ligand

>  <RI>
0

>  <Rbt.Current_Directory>
/home/itssahil/PROJECTS/Mol_Feturizer/New_Systems/rnas/4XW7

>  <Rbt.Executable>
rbdock ($Id: //depot/dev/client3/rdock/2013.1/src/exe/rbdock.cxx#4 $)

>  <Rbt.Library>
libRbt.so (2013.1, Build901 2013/11/27)

>  <Rbt.Parameter_File>
/export/apps/rDock/src/rDock_2013.1_src/data/scripts/dock_solv.prm

>  <Rbt.Receptor>
prm/pocket_docking_4.prm

>  <SCORE>
-5.23708

>  <SCORE.INTER>
-5.28531

>  <SCORE.INTER.CONST>
1

>  <SCORE.INTER.POLAR>
0

>  <SCORE.INTER.ROT>
5

>  <SCORE.INTER.SOLV>
13.7699

>  <SCORE.INTER.VDW>
-15.0468

>  <SCORE.INTER.norm>
-0.240241

>  <SCORE.INTRA>
0.0465848

>  <SCORE.INTRA.DIHEDRAL>
-0.644628

>  <SCORE.INTRA.DIHEDRAL.0>
2.61549

>  <SCORE.INTRA.POLAR>
0

>  <SCORE.INTRA.POLAR.0>
0

>  <SCORE.INTRA.REPUL>
0

>  <SCORE.INTRA.REPUL.0>
0

>  <SCORE.INTRA.SOLV>
0.988345

>  <SCORE.INTRA.SOLV.lig_0>
-73.766

>  <SCORE.INTRA.VDW>
-0.125274

>  <SCORE.INTRA.VDW.0>
-1.95055

>  <SCORE.INTRA.norm>
0.00211749

>  <SCORE.RESTR>
0.00163939

>  <SCORE.RESTR.CAVITY>
0.00163939

>  <SCORE.RESTR.norm>
7.45176e-05

>  <SCORE.SYSTEM>
0

>  <SCORE.SYSTEM.CONST>
0

>  <SCORE.SYSTEM.DIHEDRAL>
0

>  <SCORE.SYSTEM.SOLV>
0

>  <SCORE.SYSTEM.norm>
0

>  <SCORE.heavy>
22

>  <SCORE.norm>
-0.238049

>  <RMSD>
4.138

$$$$
ligand
 OpenBabel11021811513D
libRbt.so/2013.1/901 2013/11/27
 22 23  0  0  0  0  0  0  0  0999 V2000
   32.1222   -2.1185  107.5613 N   0  0  0  0  0  0  0  0  0  0  0  0
   28.9052   -0.9522  107.5827 C   0  0  1  0  0  0  0  0  0  0  0  0
   30.1950   -0.9911  108.2872 O   0  0  0  0  0  0  0  0  0  0  0  0
   26.0843   -3.4740  107.0610 P   0  0  2  0  0  0  0  0  0  0  0  0
   31.2405   -1.0713  107.2740 C   0  0  2  0  0  0  0  0  0  0  0  0
   33.9546   -3.3190  107.6762 N   0  0  0  0  0  0  0  0  0  0  0  0
   31.2524   -0.6377  104.9226 O   0  0  0  0  0  0  0  0  0  0  0  0
   30.5618   -1.3115  105.9853 C   0  0  2  0  0  0  0  0  0  0  0  0
   34.3908   -5.9011  109.1227 N   0  0  0  0  0  0  0  0  0  0  0  0
   29.2264    0.6480  105.8430 O   0  0  0  0  0  0  0  0  0  0  0  0
   29.2128   -0.7618  106.1585 C   0  0  2  0  0  0  0  0  0  0  0  0
   32.9727   -4.0101  108.2872 C   0  0  0  0  0  0  0  0  0  0  0  0
   30.5317   -3.6227  108.7421 N   0  0  0  0  0  0  0  0  0  0  0  0
   26.9629   -2.1817  107.1104 O   0  0  0  0  0  0  0  0  0  0  0  0
   28.1882   -2.2366  107.7749 C   0  0  0  0  0  0  0  0  0  0  0  0
   26.8958   -4.6532  106.3762 O   0  0  0  0  0  0  0  0  0  0  0  0
   33.4148   -2.1578  107.2354 C   0  0  0  0  0  0  0  0  0  0  0  0
   32.1187   -5.9849  109.2597 O   0  0  0  0  0  0  0  0  0  0  0  0
   33.1194   -5.3572  108.9230 C   0  0  0  0  0  0  0  0  0  0  0  0
   31.8054   -3.2633  108.2211 C   0  0  0  0  0  0  0  0  0  0  0  0
   24.8047   -3.2273  106.3590 O   0  5  0  0  0  0  0  0  0  0  0  0
   25.6195   -3.8652  108.4193 O   0  0  0  0  0  0  0  0  0  0  0  0
  1 17  1  0  0  0  0
  1 20  1  0  0  0  0
  2 15  1  6  0  0  0
  2  3  1  0  0  0  0
  2 11  1  0  0  0  0
  3  5  1  0  0  0  0
  4 16  1  6  0  0  0
  4 21  1  0  0  0  0
  4 22  2  0  0  0  0
  4 14  1  0  0  0  0
  5  1  1  1  0  0  0
  5  8  1  0  0  0  0
  6 17  2  0  0  0  0
  6 12  1  0  0  0  0
  8  7  1  6  0  0  0
  8 11  1  0  0  0  0
  9 19  1  0  0  0  0
 11 10  1  1  0  0  0
 12 20  2  0  0  0  0
 12 19  1  0  0  0  0
 13 20  1  0  0  0  0
 14 15  1  0  0  0  0
 18 19  2  0  0  0  0
M  CHG  1  21  -1
M  END
>  <CHROM.1>
-150.46139222,179.54259796,-58.25318819,174.46301993,11.16329199,29.80376400
-2.77621399,107.41471189,-0.22155897,-0.10270430,-0.45314397

>  <Name>
ligand

>  <RI>
0

>  <Rbt.Current_Directory>
/home/itssahil/PROJECTS/Mol_Feturizer/New_Systems/rnas/4XW7

>  <Rbt.Executable>
rbdock ($Id: //depot/dev/client3/rdock/2013.1/src/exe/rbdock.cxx#4 $)

>  <Rbt.Library>
libRbt.so (2013.1, Build901 2013/11/27)

>  <Rbt.Parameter_File>
/export/apps/rDock/src/rDock_2013.1_src/data/scripts/dock_solv.prm

>  <Rbt.Receptor>
prm/pocket_docking_4.prm

>  <SCORE>
-4.55713

>  <SCORE.INTER>
-6.10216

>  <SCORE.INTER.CONST>
1

>  <SCORE.INTER.POLAR>
0

>  <SCORE.INTER.ROT>
5

>  <SCORE.INTER.SOLV>
9.76828

>  <SCORE.INTER.VDW>
-14.2575

>  <SCORE.INTER.norm>
-0.277371

>  <SCORE.INTRA>
1.54503

>  <SCORE.INTRA.DIHEDRAL>
-0.83843

>  <SCORE.INTRA.DIHEDRAL.0>
2.61549

>  <SCORE.INTRA.POLAR>
0

>  <SCORE.INTRA.POLAR.0>
0

>  <SCORE.INTRA.REPUL>
0

>  <SCORE.INTRA.REPUL.0>
0

>  <SCORE.INTRA.SOLV>
3.97919

>  <SCORE.INTRA.SOLV.lig_0>
-73.766

>  <SCORE.INTRA.VDW>
-0.0253482

>  <SCORE.INTRA.VDW.0>
-1.95055

>  <SCORE.INTRA.norm>
0.0702288

>  <SCORE.RESTR>
0

>  <SCORE.RESTR.CAVITY>
0

>  <SCORE.RESTR.norm>
0

>  <SCORE.SYSTEM>
0

>  <SCORE.SYSTEM.CONST>
0

>  <SCORE.SYSTEM.DIHEDRAL>
0

>  <SCORE.SYSTEM.SOLV>
0

>  <SCORE.SYSTEM.norm>
0

>  <SCORE.heavy>
22

>  <SCORE.norm>
-0.207142

>  <RMSD>
4.204

$$$$
ligand
 OpenBabel11021811513D
libRbt.so/2013.1/901 2013/11/27
 22 23  0  0  0  0  0  0  0  0999 V2000
   30.3364   -1.6818  106.3319 N   0  0  0  0  0  0  0  0  0  0  0  0
   27.8274   -1.9562  104.0212 C   0  0  1  0  0  0  0  0  0  0  0  0
   28.3792   -2.4534  105.2899 O   0  0  0  0  0  0  0  0  0  0  0  0
   27.1321   -4.5491  102.5881 P   0  0  2  0  0  0  0  0  0  0  0  0
   29.0386   -1.3306  105.9460 C   0  0  2  0  0  0  0  0  0  0  0  0
   32.5142   -1.6258  106.5883 N   0  0  0  0  0  0  0  0  0  0  0  0
   28.9129    1.0349  105.6211 O   0  0  0  0  0  0  0  0  0  0  0  0
   29.0761   -0.2301  104.9629 C   0  0  2  0  0  0  0  0  0  0  0  0
   34.2835   -3.5768  107.9897 N   0  0  0  0  0  0  0  0  0  0  0  0
   26.7499    0.0909  104.6037 O   0  0  0  0  0  0  0  0  0  0  0  0
   27.9529   -0.4925  104.0564 C   0  0  2  0  0  0  0  0  0  0  0  0
   32.0565   -2.7299  107.2100 C   0  0  0  0  0  0  0  0  0  0  0  0
   29.7995   -3.7800  107.5549 N   0  0  0  0  0  0  0  0  0  0  0  0
   28.5185   -3.8927  102.8901 O   0  0  0  0  0  0  0  0  0  0  0  0
   28.6097   -2.5008  102.8846 C   0  0  0  0  0  0  0  0  0  0  0  0
   26.5114   -3.9191  101.2706 O   0  0  0  0  0  0  0  0  0  0  0  0
   31.4435   -0.9923  106.0535 C   0  0  0  0  0  0  0  0  0  0  0  0
   32.3615   -4.6958  108.4818 O   0  0  0  0  0  0  0  0  0  0  0  0
   32.8960   -3.7325  107.9382 C   0  0  0  0  0  0  0  0  0  0  0  0
   30.6788   -2.7801  107.0549 C   0  0  0  0  0  0  0  0  0  0  0  0
   26.2083   -4.4059  103.7359 O   0  5  0  0  0  0  0  0  0  0  0  0
   27.2474   -6.0278  102.4688 O   0  0  0  0  0  0  0  0  0  0  0  0
  1 17  1  0  0  0  0
  1 20  1  0  0  0  0
  2 15  1  6  0  0  0
  2  3  1  0  0  0  0
  2 11  1  0  0  0  0
  3  5  1  0  0  0  0
  4 16  1  6  0  0  0
  4 21  1  0  0  0  0
  4 22  2  0  0  0  0
  4 14  1  0  0  0  0
  5  1  1  6  0  0  0
  5  8  1  0  0  0  0
  6 17  2  0  0  0  0
  6 12  1  0  0  0  0
  8  7  1  1  0  0  0
  8 11  1  0  0  0  0
  9 19  1  0  0  0  0
 11 10  1  1  0  0  0
 12 20  2  0  0  0  0
 12 19  1  0  0  0  0
 13 20  1  0  0  0  0
 14 15  1  0  0  0  0
 18 19  2  0  0  0  0
M  CHG  1  21  -1
M  END
>  <CHROM.1>
128.65894895,61.20618191,49.58378106,67.17822566,-1.33810284,29.24808820
-2.70026086,105.03024680,0.26509022,-0.71153409,0.21233084

>  <Name>
ligand

>  <RI>
0

>  <Rbt.Current_Directory>
/home/itssahil/PROJECTS/Mol_Feturizer/New_Systems/rnas/4XW7

>  <Rbt.Executable>
rbdock ($Id: //depot/dev/client3/rdock/2013.1/src/exe/rbdock.cxx#4 $)

>  <Rbt.Library>
libRbt.so (2013.1, Build901 2013/11/27)

>  <Rbt.Parameter_File>
/export/apps/rDock/src/rDock_2013.1_src/data/scripts/dock_solv.prm

>  <Rbt.Receptor>
prm/pocket_docking_4.prm

>  <SCORE>
-5.59584

>  <SCORE.INTER>
-7.33883

>  <SCORE.INTER.CONST>
1

>  <SCORE.INTER.POLAR>
0

>  <SCORE.INTER.ROT>
5

>  <SCORE.INTER.SOLV>
14.2121

>  <SCORE.INTER.VDW>
-16.5632

>  <SCORE.INTER.norm>
-0.333583

>  <SCORE.INTRA>
1.743

>  <SCORE.INTRA.DIHEDRAL>
-0.705117

>  <SCORE.INTRA.DIHEDRAL.0>
2.61549

>  <SCORE.INTRA.POLAR>
0

>  <SCORE.INTRA.POLAR.0>
0

>  <SCORE.INTRA.REPUL>
0

>  <SCORE.INTRA.REPUL.0>
0

>  <SCORE.INTRA.SOLV>
2.15701

>  <SCORE.INTRA.SOLV.lig_0>
-73.766

>  <SCORE.INTRA.VDW>
1.01705

>  <SCORE.INTRA.VDW.0>
-1.95055

>  <SCORE.INTRA.norm>
0.0792271

>  <SCORE.RESTR>
0

>  <SCORE.RESTR.CAVITY>
0

>  <SCORE.RESTR.norm>
0

>  <SCORE.SYSTEM>
0

>  <SCORE.SYSTEM.CONST>
0

>  <SCORE.SYSTEM.DIHEDRAL>
0

>  <SCORE.SYSTEM.SOLV>
0

>  <SCORE.SYSTEM.norm>
0

>  <SCORE.heavy>
22

>  <SCORE.norm>
-0.254356

>  <RMSD>
4.385

$$$$
ligand
 OpenBabel11021811513D
libRbt.so/2013.1/901 2013/11/27
 22 23  0  0  0  0  0  0  0  0999 V2000
   31.4635   -3.0250  108.1060 N   0  0  0  0  0  0  0  0  0  0  0  0
   28.6578   -1.8976  106.5038 C   0  0  1  0  0  0  0  0  0  0  0  0
   29.2669   -2.2578  107.7925 O   0  0  0  0  0  0  0  0  0  0  0  0
   27.1838   -3.9087  103.6082 P   0  0  2  0  0  0  0  0  0  0  0  0
   30.6858   -1.9327  107.7077 C   0  0  2  0  0  0  0  0  0  0  0  0
   32.2159   -5.0755  108.3089 N   0  0  0  0  0  0  0  0  0  0  0  0
   31.9446   -0.5576  106.2106 O   0  0  0  0  0  0  0  0  0  0  0  0
   30.9582   -1.5968  106.2964 C   0  0  2  0  0  0  0  0  0  0  0  0
   34.6689   -6.0202  109.7342 N   0  0  0  0  0  0  0  0  0  0  0  0
   29.5201    0.2745  106.0255 O   0  0  0  0  0  0  0  0  0  0  0  0
   29.6722   -1.1374  105.7604 C   0  0  2  0  0  0  0  0  0  0  0  0
   33.0056   -4.2739  109.0496 C   0  0  0  0  0  0  0  0  0  0  0  0
   33.0841   -1.8127  109.5518 N   0  0  0  0  0  0  0  0  0  0  0  0
   27.7079   -2.7709  104.5437 O   0  0  0  0  0  0  0  0  0  0  0  0
   28.3018   -3.1274  105.7544 C   0  0  0  0  0  0  0  0  0  0  0  0
   28.3502   -4.9416  103.3078 O   0  0  0  0  0  0  0  0  0  0  0  0
   31.2724   -4.2916  107.7350 C   0  0  0  0  0  0  0  0  0  0  0  0
   34.7075   -3.9354  110.6510 O   0  0  0  0  0  0  0  0  0  0  0  0
   34.1807   -4.7175  109.8637 C   0  0  0  0  0  0  0  0  0  0  0  0
   32.5406   -2.9720  108.9325 C   0  0  0  0  0  0  0  0  0  0  0  0
   26.6215   -3.3575  102.3547 O   0  5  0  0  0  0  0  0  0  0  0  0
   26.0031   -4.5949  104.1992 O   0  0  0  0  0  0  0  0  0  0  0  0
  1 17  1  0  0  0  0
  1 20  1  0  0  0  0
  2 15  1  6  0  0  0
  2  3  1  0  0  0  0
  2 11  1  0  0  0  0
  3  5  1  0  0  0  0
  4 16  1  6  0  0  0
  4 21  1  0  0  0  0
  4 22  2  0  0  0  0
  4 14  1  0  0  0  0
  5  1  1  6  0  0  0
  5  8  1  0  0  0  0
  6 17  2  0  0  0  0
  6 12  1  0  0  0  0
  8  7  1  1  0  0  0
  8 11  1  0  0  0  0
  9 19  1  0  0  0  0
 11 10  1  1  0  0  0
 12 20  2  0  0  0  0
 12 19  1  0  0  0  0
 13 20  1  0  0  0  0
 14 15  1  0  0  0  0
 18 19  2  0  0  0  0
M  CHG  1  21  -1
M  END
>  <CHROM.1>
44.88986832,179.14523049,-54.75148560,-177.13164246,10.16623172,30.26373670
-3.10824881,106.63300724,-0.02078338,-0.73178861,0.04590252

>  <Name>
ligand

>  <RI>
0

>  <Rbt.Current_Directory>
/home/itssahil/PROJECTS/Mol_Feturizer/New_Systems/rnas/4XW7

>  <Rbt.Executable>
rbdock ($Id: //depot/dev/client3/rdock/2013.1/src/exe/rbdock.cxx#4 $)

>  <Rbt.Library>
libRbt.so (2013.1, Build901 2013/11/27)

>  <Rbt.Parameter_File>
/export/apps/rDock/src/rDock_2013.1_src/data/scripts/dock_solv.prm

>  <Rbt.Receptor>
prm/pocket_docking_4.prm

>  <SCORE>
-4.98324

>  <SCORE.INTER>
-4.28461

>  <SCORE.INTER.CONST>
1

>  <SCORE.INTER.POLAR>
0

>  <SCORE.INTER.ROT>
5

>  <SCORE.INTER.SOLV>
10.5276

>  <SCORE.INTER.VDW>
-13.2989

>  <SCORE.INTER.norm>
-0.194755

>  <SCORE.INTRA>
-0.69863

>  <SCORE.INTRA.DIHEDRAL>
-0.938847

>  <SCORE.INTRA.DIHEDRAL.0>
2.61549

>  <SCORE.INTRA.POLAR>
0

>  <SCORE.INTRA.POLAR.0>
0

>  <SCORE.INTRA.REPUL>
0

>  <SCORE.INTRA.REPUL.0>
0

>  <SCORE.INTRA.SOLV>
-0.21867

>  <SCORE.INTRA.SOLV.lig_0>
-73.766

>  <SCORE.INTRA.VDW>
-0.119872

>  <SCORE.INTRA.VDW.0>
-1.95055

>  <SCORE.INTRA.norm>
-0.0317559

>  <SCORE.RESTR>
0

>  <SCORE.RESTR.CAVITY>
0

>  <SCORE.RESTR.norm>
0

>  <SCORE.SYSTEM>
0

>  <SCORE.SYSTEM.CONST>
0

>  <SCORE.SYSTEM.DIHEDRAL>
0

>  <SCORE.SYSTEM.SOLV>
0

>  <SCORE.SYSTEM.norm>
0

>  <SCORE.heavy>
22

>  <SCORE.norm>
-0.226511

>  <RMSD>
4.570

$$$$
ligand
 OpenBabel11021811513D
libRbt.so/2013.1/901 2013/11/27
 22 23  0  0  0  0  0  0  0  0999 V2000
   32.8097   -3.0248  108.4485 N   0  0  0  0  0  0  0  0  0  0  0  0
   29.4492   -2.8194  107.8367 C   0  0  1  0  0  0  0  0  0  0  0  0
   30.5083   -2.8024  108.8561 O   0  0  0  0  0  0  0  0  0  0  0  0
   28.5620   -6.5094  108.2720 P   0  0  2  0  0  0  0  0  0  0  0  0
   31.6913   -2.2103  108.2429 C   0  0  2  0  0  0  0  0  0  0  0  0
   34.7006   -4.0824  108.1053 N   0  0  0  0  0  0  0  0  0  0  0  0
   32.0070   -0.9015  106.2670 O   0  0  0  0  0  0  0  0  0  0  0  0
   31.4033   -2.0895  106.8002 C   0  0  2  0  0  0  0  0  0  0  0  0
   35.3849   -4.7842  111.5690 N   0  0  0  0  0  0  0  0  0  0  0  0
   29.5219   -0.6406  106.8680 O   0  0  0  0  0  0  0  0  0  0  0  0
   29.9409   -2.0141  106.7101 C   0  0  2  0  0  0  0  0  0  0  0  0
   34.2860   -4.3782  109.3526 C   0  0  0  0  0  0  0  0  0  0  0  0
   32.3093   -3.7538  110.7733 N   0  0  0  0  0  0  0  0  0  0  0  0
   28.7749   -4.9741  108.4766 O   0  0  0  0  0  0  0  0  0  0  0  0
   29.2035   -4.2123  107.3896 C   0  0  0  0  0  0  0  0  0  0  0  0
   29.9556   -7.2162  107.9962 O   0  0  0  0  0  0  0  0  0  0  0  0
   33.7814   -3.2489  107.5630 C   0  0  0  0  0  0  0  0  0  0  0  0
   35.2448   -6.4348  110.0056 O   0  0  0  0  0  0  0  0  0  0  0  0
   34.9968   -5.2732  110.3190 C   0  0  0  0  0  0  0  0  0  0  0  0
   33.0886   -3.7170  109.5840 C   0  0  0  0  0  0  0  0  0  0  0  0
   27.6007   -6.7777  107.1788 O   0  5  0  0  0  0  0  0  0  0  0  0
   27.8760   -7.1217  109.4418 O   0  0  0  0  0  0  0  0  0  0  0  0
  1 17  1  0  0  0  0
  1 20  1  0  0  0  0
  2 15  1  6  0  0  0
  2  3  1  0  0  0  0
  2 11  1  0  0  0  0
  3  5  1  0  0  0  0
  4 16  1  6  0  0  0
  4 21  1  0  0  0  0
  4 22  2  0  0  0  0
  4 14  1  0  0  0  0
  5  1  1  6  0  0  0
  5  8  1  0  0  0  0
  6 17  2  0  0  0  0
  6 12  1  0  0  0  0
  8  7  1  1  0  0  0
  8 11  1  0  0  0  0
  9 19  1  0  0  0  0
 11 10  1  1  0  0  0
 12 20  2  0  0  0  0
 12 19  1  0  0  0  0
 13 20  1  0  0  0  0
 14 15  1  0  0  0  0
 18 19  2  0  0  0  0
M  CHG  1  21  -1
M  END
>  <CHROM.1>
141.77681181,61.47383597,66.91539001,-175.18793197,122.14001636,31.23788063
-4.21770591,108.42654846,0.08438931,-0.32828032,-0.41935058

>  <Name>
ligand

>  <RI>
0

>  <Rbt.Current_Directory>
/home/itssahil/PROJECTS/Mol_Feturizer/New_Systems/rnas/4XW7

>  <Rbt.Executable>
rbdock ($Id: //depot/dev/client3/rdock/2013.1/src/exe/rbdock.cxx#4 $)

>  <Rbt.Library>
libRbt.so (2013.1, Build901 2013/11/27)

>  <Rbt.Parameter_File>
/export/apps/rDock/src/rDock_2013.1_src/data/scripts/dock_solv.prm

>  <Rbt.Receptor>
prm/pocket_docking_7.prm

>  <SCORE>
-6.8109

>  <SCORE.INTER>
-7.09293

>  <SCORE.INTER.CONST>
1

>  <SCORE.INTER.POLAR>
0

>  <SCORE.INTER.ROT>
5

>  <SCORE.INTER.SOLV>
8.55937

>  <SCORE.INTER.VDW>
-14.5151

>  <SCORE.INTER.norm>
-0.322406

>  <SCORE.INTRA>
0.280625

>  <SCORE.INTRA.DIHEDRAL>
-0.93715

>  <SCORE.INTRA.DIHEDRAL.0>
2.61549

>  <SCORE.INTRA.POLAR>
0

>  <SCORE.INTRA.POLAR.0>
0

>  <SCORE.INTRA.REPUL>
0

>  <SCORE.INTRA.REPUL.0>
0

>  <SCORE.INTRA.SOLV>
0.517133

>  <SCORE.INTRA.SOLV.lig_0>
-73.766

>  <SCORE.INTRA.VDW>
0.490634

>  <SCORE.INTRA.VDW.0>
-1.95055

>  <SCORE.INTRA.norm>
0.0127557

>  <SCORE.RESTR>
0.00140773

>  <SCORE.RESTR.CAVITY>
0.00140773

>  <SCORE.RESTR.norm>
6.39876e-05

>  <SCORE.SYSTEM>
0

>  <SCORE.SYSTEM.CONST>
0

>  <SCORE.SYSTEM.DIHEDRAL>
0

>  <SCORE.SYSTEM.SOLV>
0

>  <SCORE.SYSTEM.norm>
0

>  <SCORE.heavy>
22

>  <SCORE.norm>
-0.309586

>  <RMSD>
4.572

$$$$
ligand
 OpenBabel11021811513D
libRbt.so/2013.1/901 2013/11/27
 22 23  0  0  0  0  0  0  0  0999 V2000
   31.6003   -1.5289  106.8995 N   0  0  0  0  0  0  0  0  0  0  0  0
   28.5269   -0.0626  107.2373 C   0  0  1  0  0  0  0  0  0  0  0  0
   29.9543   -0.0009  107.5837 O   0  0  0  0  0  0  0  0  0  0  0  0
   25.4724   -0.4761  107.4264 P   0  0  2  0  0  0  0  0  0  0  0  0
   30.6982   -0.5550  106.4586 C   0  0  2  0  0  0  0  0  0  0  0  0
   33.4786   -2.5619  107.3650 N   0  0  0  0  0  0  0  0  0  0  0  0
   30.1078   -0.9833  104.1815 O   0  0  0  0  0  0  0  0  0  0  0  0
   29.7024   -1.1533  105.5479 C   0  0  2  0  0  0  0  0  0  0  0  0
   33.8623   -5.1573  108.8004 N   0  0  0  0  0  0  0  0  0  0  0  0
   28.4206    0.7717  105.0050 O   0  0  0  0  0  0  0  0  0  0  0  0
   28.4576   -0.4242  105.8146 C   0  0  2  0  0  0  0  0  0  0  0  0
   32.4647   -3.3639  107.7445 C   0  0  0  0  0  0  0  0  0  0  0  0
   29.9563   -3.2185  107.6927 N   0  0  0  0  0  0  0  0  0  0  0  0
   26.6173   -0.6236  108.4807 O   0  0  0  0  0  0  0  0  0  0  0  0
   27.8556   -1.1034  108.0538 C   0  0  0  0  0  0  0  0  0  0  0  0
   25.8080    0.7093  106.4264 O   0  0  0  0  0  0  0  0  0  0  0  0
   32.9297   -1.4374  106.8474 C   0  0  0  0  0  0  0  0  0  0  0  0
   31.6239   -5.4411  108.4884 O   0  0  0  0  0  0  0  0  0  0  0  0
   32.6089   -4.7171  108.3676 C   0  0  0  0  0  0  0  0  0  0  0  0
   31.2684   -2.7239  107.4545 C   0  0  0  0  0  0  0  0  0  0  0  0
   24.1616   -0.2679  108.0820 O   0  5  0  0  0  0  0  0  0  0  0  0
   25.2484   -1.7487  106.6885 O   0  0  0  0  0  0  0  0  0  0  0  0
  1 17  1  0  0  0  0
  1 20  1  0  0  0  0
  2 15  1  1  0  0  0
  2  3  1  0  0  0  0
  2 11  1  0  0  0  0
  3  5  1  0  0  0  0
  4 16  1  6  0  0  0
  4 21  1  0  0  0  0
  4 22  2  0  0  0  0
  4 14  1  0  0  0  0
  5  1  1  1  0  0  0
  5  8  1  0  0  0  0
  6 17  2  0  0  0  0
  6 12  1  0  0  0  0
  8  7  1  6  0  0  0
  8 11  1  0  0  0  0
  9 19  1  0  0  0  0
 11 10  1  6  0  0  0
 12 20  2  0  0  0  0
 12 19  1  0  0  0  0
 13 20  1  0  0  0  0
 14 15  1  0  0  0  0
 18 19  2  0  0  0  0
M  CHG  1  21  -1
M  END
>  <CHROM.1>
-113.90442416,138.34809589,-69.77963707,71.57147528,10.43904583,29.21828392
-1.52458817,107.12240275,-0.40529593,0.23874020,-0.69985948

>  <Name>
ligand

>  <RI>
0

>  <Rbt.Current_Directory>
/home/itssahil/PROJECTS/Mol_Feturizer/New_Systems/rnas/4XW7

>  <Rbt.Executable>
rbdock ($Id: //depot/dev/client3/rdock/2013.1/src/exe/rbdock.cxx#4 $)

>  <Rbt.Library>
libRbt.so (2013.1, Build901 2013/11/27)

>  <Rbt.Parameter_File>
/export/apps/rDock/src/rDock_2013.1_src/data/scripts/dock_solv.prm

>  <Rbt.Receptor>
prm/pocket_docking_6.prm

>  <SCORE>
-3.28662

>  <SCORE.INTER>
-7.7625

>  <SCORE.INTER.CONST>
1

>  <SCORE.INTER.POLAR>
0

>  <SCORE.INTER.ROT>
5

>  <SCORE.INTER.SOLV>
12.103

>  <SCORE.INTER.VDW>
-16.1427

>  <SCORE.INTER.norm>
-0.352841

>  <SCORE.INTRA>
4.47588

>  <SCORE.INTRA.DIHEDRAL>
3.87515

>  <SCORE.INTRA.DIHEDRAL.0>
2.61549

>  <SCORE.INTRA.POLAR>
0

>  <SCORE.INTRA.POLAR.0>
0

>  <SCORE.INTRA.REPUL>
0

>  <SCORE.INTRA.REPUL.0>
0

>  <SCORE.INTRA.SOLV>
6.06722

>  <SCORE.INTRA.SOLV.lig_0>
-73.766

>  <SCORE.INTRA.VDW>
-0.495307

>  <SCORE.INTRA.VDW.0>
-1.95055

>  <SCORE.INTRA.norm>
0.203449

>  <SCORE.RESTR>
0

>  <SCORE.RESTR.CAVITY>
0

>  <SCORE.RESTR.norm>
0

>  <SCORE.SYSTEM>
0

>  <SCORE.SYSTEM.CONST>
0

>  <SCORE.SYSTEM.DIHEDRAL>
0

>  <SCORE.SYSTEM.SOLV>
0

>  <SCORE.SYSTEM.norm>
0

>  <SCORE.heavy>
22

>  <SCORE.norm>
-0.149392

>  <RMSD>
4.817

$$$$
ligand
 OpenBabel11021811513D
libRbt.so/2013.1/901 2013/11/27
 22 23  0  0  0  0  0  0  0  0999 V2000
   29.6285   -2.6644  106.6307 N   0  0  0  0  0  0  0  0  0  0  0  0
   27.9975   -1.7961  103.7505 C   0  0  1  0  0  0  0  0  0  0  0  0
   27.9339   -2.5524  105.0096 O   0  0  0  0  0  0  0  0  0  0  0  0
   28.8394   -4.5854  101.2865 P   0  0  2  0  0  0  0  0  0  0  0  0
   28.7139   -1.8164  105.9976 C   0  0  2  0  0  0  0  0  0  0  0  0
   30.5651   -4.4738  107.4436 N   0  0  0  0  0  0  0  0  0  0  0  0
   29.5233    0.4323  106.0723 O   0  0  0  0  0  0  0  0  0  0  0  0
   29.4252   -0.7504  105.2650 C   0  0  2  0  0  0  0  0  0  0  0  0
   32.8240   -3.0891  109.7159 N   0  0  0  0  0  0  0  0  0  0  0  0
   27.5786    0.4629  104.3924 O   0  0  0  0  0  0  0  0  0  0  0  0
   28.6080   -0.4989  104.0728 C   0  0  2  0  0  0  0  0  0  0  0  0
   31.3923   -3.4388  107.6879 C   0  0  0  0  0  0  0  0  0  0  0  0
   31.3493   -0.9693  107.2240 N   0  0  0  0  0  0  0  0  0  0  0  0
   28.2412   -3.7389  102.4569 O   0  0  0  0  0  0  0  0  0  0  0  0
   28.8435   -2.5205  102.7707 C   0  0  0  0  0  0  0  0  0  0  0  0
   30.3307   -5.0046  101.6300 O   0  0  0  0  0  0  0  0  0  0  0  0
   29.4850   -3.9803  106.7927 C   0  0  0  0  0  0  0  0  0  0  0  0
   33.6913   -3.9654  107.8006 O   0  0  0  0  0  0  0  0  0  0  0  0
   32.7101   -3.5227  108.3926 C   0  0  0  0  0  0  0  0  0  0  0  0
   30.8120   -2.2854  107.1803 C   0  0  0  0  0  0  0  0  0  0  0  0
   28.7725   -3.8508  100.0031 O   0  5  0  0  0  0  0  0  0  0  0  0
   28.0019   -5.7815  101.0001 O   0  0  0  0  0  0  0  0  0  0  0  0
  1 17  1  0  0  0  0
  1 20  1  0  0  0  0
  2 15  1  6  0  0  0
  2  3  1  0  0  0  0
  2 11  1  0  0  0  0
  3  5  1  0  0  0  0
  4 16  1  1  0  0  0
  4 21  1  0  0  0  0
  4 22  2  0  0  0  0
  4 14  1  0  0  0  0
  5  1  1  6  0  0  0
  5  8  1  0  0  0  0
  6 17  2  0  0  0  0
  6 12  1  0  0  0  0
  8  7  1  1  0  0  0
  8 11  1  0  0  0  0
  9 19  1  0  0  0  0
 11 10  1  1  0  0  0
 12 20  2  0  0  0  0
 12 19  1  0  0  0  0
 13 20  1  0  0  0  0
 14 15  1  0  0  0  0
 18 19  2  0  0  0  0
M  CHG  1  21  -1
M  END
>  <CHROM.1>
-27.09108345,64.19186121,62.17158247,171.11892710,-103.86347648,29.69190479
-2.85693797,104.78938501,0.84756081,-0.87508971,0.77464082

>  <Name>
ligand

>  <RI>
0

>  <Rbt.Current_Directory>
/home/itssahil/PROJECTS/Mol_Feturizer/New_Systems/rnas/4XW7

>  <Rbt.Executable>
rbdock ($Id: //depot/dev/client3/rdock/2013.1/src/exe/rbdock.cxx#4 $)

>  <Rbt.Library>
libRbt.so (2013.1, Build901 2013/11/27)

>  <Rbt.Parameter_File>
/export/apps/rDock/src/rDock_2013.1_src/data/scripts/dock_solv.prm

>  <Rbt.Receptor>
prm/pocket_docking_5.prm

>  <SCORE>
-6.02927

>  <SCORE.INTER>
-7.93622

>  <SCORE.INTER.CONST>
1

>  <SCORE.INTER.POLAR>
0

>  <SCORE.INTER.ROT>
5

>  <SCORE.INTER.SOLV>
12.5851

>  <SCORE.INTER.VDW>
-16.4192

>  <SCORE.INTER.norm>
-0.360737

>  <SCORE.INTRA>
1.90694

>  <SCORE.INTRA.DIHEDRAL>
-0.395912

>  <SCORE.INTRA.DIHEDRAL.0>
2.61549

>  <SCORE.INTRA.POLAR>
0

>  <SCORE.INTRA.POLAR.0>
0

>  <SCORE.INTRA.REPUL>
0

>  <SCORE.INTRA.REPUL.0>
0

>  <SCORE.INTRA.SOLV>
2.09792

>  <SCORE.INTRA.SOLV.lig_0>
-73.766

>  <SCORE.INTRA.VDW>
1.05594

>  <SCORE.INTRA.VDW.0>
-1.95055

>  <SCORE.INTRA.norm>
0.0866793

>  <SCORE.RESTR>
0

>  <SCORE.RESTR.CAVITY>
0

>  <SCORE.RESTR.norm>
0

>  <SCORE.SYSTEM>
0

>  <SCORE.SYSTEM.CONST>
0

>  <SCORE.SYSTEM.DIHEDRAL>
0

>  <SCORE.SYSTEM.SOLV>
0

>  <SCORE.SYSTEM.norm>
0

>  <SCORE.heavy>
22

>  <SCORE.norm>
-0.274058

>  <RMSD>
4.919

$$$$
ligand
 OpenBabel11021811513D
libRbt.so/2013.1/901 2013/11/27
 22 23  0  0  0  0  0  0  0  0999 V2000
   30.5579   -1.7788  106.3910 N   0  0  0  0  0  0  0  0  0  0  0  0
   28.1947   -1.8906  103.9187 C   0  0  1  0  0  0  0  0  0  0  0  0
   28.8906   -2.6359  104.9777 O   0  0  0  0  0  0  0  0  0  0  0  0
   28.2102   -3.8678  101.6296 P   0  0  2  0  0  0  0  0  0  0  0  0
   29.2072   -1.6878  106.0393 C   0  0  2  0  0  0  0  0  0  0  0  0
   32.7121   -1.3753  106.4838 N   0  0  0  0  0  0  0  0  0  0  0  0
   28.3931    0.5017  106.5497 O   0  0  0  0  0  0  0  0  0  0  0  0
   28.9049   -0.3439  105.5088 C   0  0  2  0  0  0  0  0  0  0  0  0
   33.2840   -3.2223  109.5358 N   0  0  0  0  0  0  0  0  0  0  0  0
   26.5796   -0.5751  105.0811 O   0  0  0  0  0  0  0  0  0  0  0  0
   27.8899   -0.5642  104.4727 C   0  0  2  0  0  0  0  0  0  0  0  0
   32.4504   -2.3991  107.3195 C   0  0  0  0  0  0  0  0  0  0  0  0
   30.3914   -3.6705  107.9972 N   0  0  0  0  0  0  0  0  0  0  0  0
   29.3752   -3.0168  102.2319 O   0  0  0  0  0  0  0  0  0  0  0  0
   29.0804   -1.7504  102.7369 C   0  0  0  0  0  0  0  0  0  0  0  0
   27.1744   -2.9196  100.8908 O   0  0  0  0  0  0  0  0  0  0  0  0
   31.5373   -1.0054  105.9208 C   0  0  0  0  0  0  0  0  0  0  0  0
   34.4460   -3.6252  107.6186 O   0  0  0  0  0  0  0  0  0  0  0  0
   33.4598   -3.1246  108.1532 C   0  0  0  0  0  0  0  0  0  0  0  0
   31.0901   -2.6674  107.2704 C   0  0  0  0  0  0  0  0  0  0  0  0
   27.5429   -4.6795  102.6722 O   0  5  0  0  0  0  0  0  0  0  0  0
   28.7256   -4.9156  100.7072 O   0  0  0  0  0  0  0  0  0  0  0  0
  1 17  1  0  0  0  0
  1 20  1  0  0  0  0
  2 15  1  6  0  0  0
  2  3  1  0  0  0  0
  2 11  1  0  0  0  0
  3  5  1  0  0  0  0
  4 16  1  6  0  0  0
  4 21  1  0  0  0  0
  4 22  2  0  0  0  0
  4 14  1  0  0  0  0
  5  1  1  6  0  0  0
  5  8  1  0  0  0  0
  6 17  2  0  0  0  0
  6 12  1  0  0  0  0
  8  7  1  1  0  0  0
  8 11  1  0  0  0  0
  9 19  1  0  0  0  0
 11 10  1  1  0  0  0
 12 20  2  0  0  0  0
 12 19  1  0  0  0  0
 13 20  1  0  0  0  0
 14 15  1  0  0  0  0
 18 19  2  0  0  0  0
M  CHG  1  21  -1
M  END
>  <CHROM.1>
95.69597187,62.44022579,35.38069496,65.37953561,124.63105877,29.73864528
-2.44208813,104.89240833,0.71192553,-0.61599322,0.86723224

>  <Name>
ligand

>  <RI>
0

>  <Rbt.Current_Directory>
/home/itssahil/PROJECTS/Mol_Feturizer/New_Systems/rnas/4XW7

>  <Rbt.Executable>
rbdock ($Id: //depot/dev/client3/rdock/2013.1/src/exe/rbdock.cxx#4 $)

>  <Rbt.Library>
libRbt.so (2013.1, Build901 2013/11/27)

>  <Rbt.Parameter_File>
/export/apps/rDock/src/rDock_2013.1_src/data/scripts/dock_solv.prm

>  <Rbt.Receptor>
prm/pocket_docking_4.prm

>  <SCORE>
-7.79475

>  <SCORE.INTER>
-9.11195

>  <SCORE.INTER.CONST>
1

>  <SCORE.INTER.POLAR>
0

>  <SCORE.INTER.ROT>
5

>  <SCORE.INTER.SOLV>
12.6925

>  <SCORE.INTER.VDW>
-17.2388

>  <SCORE.INTER.norm>
-0.41418

>  <SCORE.INTRA>
1.30801

>  <SCORE.INTRA.DIHEDRAL>
-0.0813486

>  <SCORE.INTRA.DIHEDRAL.0>
2.61549

>  <SCORE.INTRA.POLAR>
0

>  <SCORE.INTRA.POLAR.0>
0

>  <SCORE.INTRA.REPUL>
0

>  <SCORE.INTRA.REPUL.0>
0

>  <SCORE.INTRA.SOLV>
1.27656

>  <SCORE.INTRA.SOLV.lig_0>
-73.766

>  <SCORE.INTRA.VDW>
0.710411

>  <SCORE.INTRA.VDW.0>
-1.95055

>  <SCORE.INTRA.norm>
0.0594552

>  <SCORE.RESTR>
0.00918668

>  <SCORE.RESTR.CAVITY>
0.00918668

>  <SCORE.RESTR.norm>
0.000417576

>  <SCORE.SYSTEM>
0

>  <SCORE.SYSTEM.CONST>
0

>  <SCORE.SYSTEM.DIHEDRAL>
0

>  <SCORE.SYSTEM.SOLV>
0

>  <SCORE.SYSTEM.norm>
0

>  <SCORE.heavy>
22

>  <SCORE.norm>
-0.354307

>  <RMSD>
4.960

$$$$
ligand
 OpenBabel11021811513D
libRbt.so/2013.1/901 2013/11/27
 22 23  0  0  0  0  0  0  0  0999 V2000
   30.3051   -1.3248  106.2696 N   0  0  0  0  0  0  0  0  0  0  0  0
   27.5277   -2.1671  104.4567 C   0  0  1  0  0  0  0  0  0  0  0  0
   28.2825   -2.3728  105.7014 O   0  0  0  0  0  0  0  0  0  0  0  0
   27.7431   -3.7745  100.9981 P   0  0  2  0  0  0  0  0  0  0  0  0
   28.9451   -1.1136  106.0202 C   0  0  2  0  0  0  0  0  0  0  0  0
   32.4895   -1.2159  106.1005 N   0  0  0  0  0  0  0  0  0  0  0  0
   28.6093    1.1292  105.2625 O   0  0  0  0  0  0  0  0  0  0  0  0
   28.7692   -0.2353  104.8469 C   0  0  2  0  0  0  0  0  0  0  0  0
   33.2904   -2.3742  109.3712 N   0  0  0  0  0  0  0  0  0  0  0  0
   26.3989   -0.0910  104.7825 O   0  0  0  0  0  0  0  0  0  0  0  0
   27.5533   -0.7229  104.1866 C   0  0  2  0  0  0  0  0  0  0  0  0
   32.1985   -2.0184  107.1428 C   0  0  0  0  0  0  0  0  0  0  0  0
   30.0869   -2.8404  108.2297 N   0  0  0  0  0  0  0  0  0  0  0  0
   27.3143   -2.9481  102.2541 O   0  0  0  0  0  0  0  0  0  0  0  0
   28.1827   -2.8983  103.3445 C   0  0  0  0  0  0  0  0  0  0  0  0
   28.1755   -5.2372  101.4355 O   0  0  0  0  0  0  0  0  0  0  0  0
   31.3138   -0.7976  105.5745 C   0  0  0  0  0  0  0  0  0  0  0  0
   33.9398   -3.5629  107.5399 O   0  0  0  0  0  0  0  0  0  0  0  0
   33.1974   -2.7088  108.0178 C   0  0  0  0  0  0  0  0  0  0  0  0
   30.8186   -2.0986  107.2615 C   0  0  0  0  0  0  0  0  0  0  0  0
   28.8278   -3.0964  100.2533 O   0  5  0  0  0  0  0  0  0  0  0  0
   26.6558   -3.8210   99.9833 O   0  0  0  0  0  0  0  0  0  0  0  0
  1 17  1  0  0  0  0
  1 20  1  0  0  0  0
  2 15  1  6  0  0  0
  2  3  1  0  0  0  0
  2 11  1  0  0  0  0
  3  5  1  0  0  0  0
  4 16  1  1  0  0  0
  4 21  1  0  0  0  0
  4 22  2  0  0  0  0
  4 14  1  0  0  0  0
  5  1  1  6  0  0  0
  5  8  1  0  0  0  0
  6 17  2  0  0  0  0
  6 12  1  0  0  0  0
  8  7  1  1  0  0  0
  8 11  1  0  0  0  0
  9 19  1  0  0  0  0
 11 10  1  1  0  0  0
 12 20  2  0  0  0  0
 12 19  1  0  0  0  0
 13 20  1  0  0  0  0
 14 15  1  0  0  0  0
 18 19  2  0  0  0  0
M  CHG  1  21  -1
M  END
>  <CHROM.1>
118.82099723,166.81308868,51.52712820,-175.05463164,115.30677780,29.38914395
-2.22679304,104.62800833,0.76766168,-0.60973115,0.84363424

>  <Name>
ligand

>  <RI>
0

>  <Rbt.Current_Directory>
/home/itssahil/PROJECTS/Mol_Feturizer/New_Systems/rnas/4XW7

>  <Rbt.Executable>
rbdock ($Id: //depot/dev/client3/rdock/2013.1/src/exe/rbdock.cxx#4 $)

>  <Rbt.Library>
libRbt.so (2013.1, Build901 2013/11/27)

>  <Rbt.Parameter_File>
/export/apps/rDock/src/rDock_2013.1_src/data/scripts/dock_solv.prm

>  <Rbt.Receptor>
prm/pocket_docking_5.prm

>  <SCORE>
-6.79341

>  <SCORE.INTER>
-7.31975

>  <SCORE.INTER.CONST>
1

>  <SCORE.INTER.POLAR>
0

>  <SCORE.INTER.ROT>
5

>  <SCORE.INTER.SOLV>
9.42628

>  <SCORE.INTER.VDW>
-14.9553

>  <SCORE.INTER.norm>
-0.332716

>  <SCORE.INTRA>
0.526338

>  <SCORE.INTRA.DIHEDRAL>
-0.289632

>  <SCORE.INTRA.DIHEDRAL.0>
2.61549

>  <SCORE.INTRA.POLAR>
0

>  <SCORE.INTRA.POLAR.0>
0

>  <SCORE.INTRA.REPUL>
0

>  <SCORE.INTRA.REPUL.0>
0

>  <SCORE.INTRA.SOLV>
-0.418245

>  <SCORE.INTRA.SOLV.lig_0>
-73.766

>  <SCORE.INTRA.VDW>
0.880276

>  <SCORE.INTRA.VDW.0>
-1.95055

>  <SCORE.INTRA.norm>
0.0239244

>  <SCORE.RESTR>
0

>  <SCORE.RESTR.CAVITY>
0

>  <SCORE.RESTR.norm>
0

>  <SCORE.SYSTEM>
0

>  <SCORE.SYSTEM.CONST>
0

>  <SCORE.SYSTEM.DIHEDRAL>
0

>  <SCORE.SYSTEM.SOLV>
0

>  <SCORE.SYSTEM.norm>
0

>  <SCORE.heavy>
22

>  <SCORE.norm>
-0.308792

>  <RMSD>
5.036

$$$$
ligand
 OpenBabel11021811513D
libRbt.so/2013.1/901 2013/11/27
 22 23  0  0  0  0  0  0  0  0999 V2000
   30.6716   -4.1670  108.0776 N   0  0  0  0  0  0  0  0  0  0  0  0
   27.7514   -3.8482  106.3224 C   0  0  1  0  0  0  0  0  0  0  0  0
   28.8100   -4.7617  106.7765 O   0  0  0  0  0  0  0  0  0  0  0  0
   27.5091   -1.2340  103.5450 P   0  0  2  0  0  0  0  0  0  0  0  0
   29.2771   -4.2760  108.0695 C   0  0  2  0  0  0  0  0  0  0  0  0
   32.7066   -3.5080  107.5916 N   0  0  0  0  0  0  0  0  0  0  0  0
   28.3461   -2.7504  109.6579 O   0  0  0  0  0  0  0  0  0  0  0  0
   28.6581   -2.9511  108.2713 C   0  0  2  0  0  0  0  0  0  0  0  0
   34.6863   -4.2195  110.1853 N   0  0  0  0  0  0  0  0  0  0  0  0
   26.3601   -3.5523  108.2374 O   0  0  0  0  0  0  0  0  0  0  0  0
   27.4346   -2.9765  107.4622 C   0  0  2  0  0  0  0  0  0  0  0  0
   32.7986   -4.4486  108.5516 C   0  0  0  0  0  0  0  0  0  0  0  0
   31.1610   -5.8610  109.8318 N   0  0  0  0  0  0  0  0  0  0  0  0
   27.2195   -2.1962  104.7428 O   0  0  0  0  0  0  0  0  0  0  0  0
   28.2448   -3.0314  105.1866 C   0  0  0  0  0  0  0  0  0  0  0  0
   28.7760   -0.3349  103.8683 O   0  0  0  0  0  0  0  0  0  0  0  0
   31.3915   -3.3465  107.3115 C   0  0  0  0  0  0  0  0  0  0  0  0
   34.5712   -5.9942  108.7620 O   0  0  0  0  0  0  0  0  0  0  0  0
   34.0694   -4.9479  109.1649 C   0  0  0  0  0  0  0  0  0  0  0  0
   31.5178   -4.8770  108.8688 C   0  0  0  0  0  0  0  0  0  0  0  0
   26.3281   -0.3998  103.2282 O   0  5  0  0  0  0  0  0  0  0  0  0
   27.7009   -1.9894  102.2775 O   0  0  0  0  0  0  0  0  0  0  0  0
  1 17  1  0  0  0  0
  1 20  1  0  0  0  0
  2 15  1  6  0  0  0
  2  3  1  0  0  0  0
  2 11  1  0  0  0  0
  3  5  1  0  0  0  0
  4 16  1  1  0  0  0
  4 21  1  0  0  0  0
  4 22  2  0  0  0  0
  4 14  1  0  0  0  0
  5  1  1  6  0  0  0
  5  8  1  0  0  0  0
  6 17  2  0  0  0  0
  6 12  1  0  0  0  0
  8  7  1  1  0  0  0
  8 11  1  0  0  0  0
  9 19  1  0  0  0  0
 11 10  1  1  0  0  0
 12 20  2  0  0  0  0
 12 19  1  0  0  0  0
 13 20  1  0  0  0  0
 14 15  1  0  0  0  0
 18 19  2  0  0  0  0
M  CHG  1  21  -1
M  END
>  <CHROM.1>
63.82183135,178.38718062,-54.97429535,179.90980373,81.41217196,29.59021268
-3.26807438,106.81320740,0.82031698,-0.12395206,2.02936495

>  <Name>
ligand

>  <RI>
0

>  <Rbt.Current_Directory>
/home/itssahil/PROJECTS/Mol_Feturizer/New_Systems/rnas/4XW7

>  <Rbt.Executable>
rbdock ($Id: //depot/dev/client3/rdock/2013.1/src/exe/rbdock.cxx#4 $)

>  <Rbt.Library>
libRbt.so (2013.1, Build901 2013/11/27)

>  <Rbt.Parameter_File>
/export/apps/rDock/src/rDock_2013.1_src/data/scripts/dock_solv.prm

>  <Rbt.Receptor>
prm/pocket_docking_4.prm

>  <SCORE>
-4.72157

>  <SCORE.INTER>
-4.25757

>  <SCORE.INTER.CONST>
1

>  <SCORE.INTER.POLAR>
0

>  <SCORE.INTER.ROT>
5

>  <SCORE.INTER.SOLV>
8.46704

>  <SCORE.INTER.VDW>
-12.5941

>  <SCORE.INTER.norm>
-0.193526

>  <SCORE.INTRA>
-0.464235

>  <SCORE.INTRA.DIHEDRAL>
0.0939609

>  <SCORE.INTRA.DIHEDRAL.0>
2.61549

>  <SCORE.INTRA.POLAR>
0

>  <SCORE.INTRA.POLAR.0>
0

>  <SCORE.INTRA.REPUL>
0

>  <SCORE.INTRA.REPUL.0>
0

>  <SCORE.INTRA.SOLV>
-0.899434

>  <SCORE.INTRA.SOLV.lig_0>
-73.766

>  <SCORE.INTRA.VDW>
-0.0614985

>  <SCORE.INTRA.VDW.0>
-1.95055

>  <SCORE.INTRA.norm>
-0.0211016

>  <SCORE.RESTR>
0.00023592

>  <SCORE.RESTR.CAVITY>
0.00023592

>  <SCORE.RESTR.norm>
1.07237e-05

>  <SCORE.SYSTEM>
0

>  <SCORE.SYSTEM.CONST>
0

>  <SCORE.SYSTEM.DIHEDRAL>
0

>  <SCORE.SYSTEM.SOLV>
0

>  <SCORE.SYSTEM.norm>
0

>  <SCORE.heavy>
22

>  <SCORE.norm>
-0.214617

>  <RMSD>
5.112

$$$$
ligand
 OpenBabel11021811513D
libRbt.so/2013.1/901 2013/11/27
 22 23  0  0  0  0  0  0  0  0999 V2000
   30.4607   -1.5359  106.1539 N   0  0  0  0  0  0  0  0  0  0  0  0
   28.1988   -1.8743  103.6084 C   0  0  1  0  0  0  0  0  0  0  0  0
   28.8243   -2.5071  104.7787 O   0  0  0  0  0  0  0  0  0  0  0  0
   28.1694   -3.9035  101.2222 P   0  0  2  0  0  0  0  0  0  0  0  0
   29.1295   -1.4480  105.7333 C   0  0  2  0  0  0  0  0  0  0  0  0
   32.6211   -1.1844  106.2982 N   0  0  0  0  0  0  0  0  0  0  0  0
   28.3716    0.8100  105.9428 O   0  0  0  0  0  0  0  0  0  0  0  0
   28.8962   -0.1693  105.0339 C   0  0  2  0  0  0  0  0  0  0  0  0
   33.2111   -2.4164  109.5413 N   0  0  0  0  0  0  0  0  0  0  0  0
   26.5839   -0.3814  104.5324 O   0  0  0  0  0  0  0  0  0  0  0  0
   27.9177   -0.4824  103.9866 C   0  0  2  0  0  0  0  0  0  0  0  0
   32.2914   -2.0990  107.2308 C   0  0  0  0  0  0  0  0  0  0  0  0
   30.1653   -3.2276  107.9531 N   0  0  0  0  0  0  0  0  0  0  0  0
   29.3124   -3.2234  102.0441 O   0  0  0  0  0  0  0  0  0  0  0  0
   29.1367   -1.9034  102.4595 C   0  0  0  0  0  0  0  0  0  0  0  0
   26.8654   -4.0352  102.1167 O   0  0  0  0  0  0  0  0  0  0  0  0
   31.4837   -0.8485  105.6446 C   0  0  0  0  0  0  0  0  0  0  0  0
   34.0503   -3.5787  107.7712 O   0  0  0  0  0  0  0  0  0  0  0  0
   33.2407   -2.7529  108.1855 C   0  0  0  0  0  0  0  0  0  0  0  0
   30.9263   -2.3333  107.1506 C   0  0  0  0  0  0  0  0  0  0  0  0
   28.5945   -5.2214  100.6993 O   0  5  0  0  0  0  0  0  0  0  0  0
   27.8830   -3.1534   99.9695 O   0  0  0  0  0  0  0  0  0  0  0  0
  1 17  1  0  0  0  0
  1 20  1  0  0  0  0
  2 15  1  6  0  0  0
  2  3  1  0  0  0  0
  2 11  1  0  0  0  0
  3  5  1  0  0  0  0
  4 16  1  1  0  0  0
  4 21  1  0  0  0  0
  4 22  2  0  0  0  0
  4 14  1  0  0  0  0
  5  1  1  6  0  0  0
  5  8  1  0  0  0  0
  6 17  2  0  0  0  0
  6 12  1  0  0  0  0
  8  7  1  1  0  0  0
  8 11  1  0  0  0  0
  9 19  1  0  0  0  0
 11 10  1  1  0  0  0
 12 20  2  0  0  0  0
 12 19  1  0  0  0  0
 13 20  1  0  0  0  0
 14 15  1  0  0  0  0
 18 19  2  0  0  0  0
M  CHG  1  21  -1
M  END
>  <CHROM.1>
96.09279930,67.82333918,-64.57747440,75.84349003,108.37567770,29.66139022
-2.28968214,104.60398717,0.77289797,-0.65237513,0.83522657

>  <Name>
ligand

>  <RI>
0

>  <Rbt.Current_Directory>
/home/itssahil/PROJECTS/Mol_Feturizer/New_Systems/rnas/4XW7

>  <Rbt.Executable>
rbdock ($Id: //depot/dev/client3/rdock/2013.1/src/exe/rbdock.cxx#4 $)

>  <Rbt.Library>
libRbt.so (2013.1, Build901 2013/11/27)

>  <Rbt.Parameter_File>
/export/apps/rDock/src/rDock_2013.1_src/data/scripts/dock_solv.prm

>  <Rbt.Receptor>
prm/pocket_docking_5.prm

>  <SCORE>
-8.49759

>  <SCORE.INTER>
-9.2966

>  <SCORE.INTER.CONST>
1

>  <SCORE.INTER.POLAR>
0

>  <SCORE.INTER.ROT>
5

>  <SCORE.INTER.SOLV>
11.3467

>  <SCORE.INTER.VDW>
-16.9133

>  <SCORE.INTER.norm>
-0.422573

>  <SCORE.INTRA>
0.799007

>  <SCORE.INTRA.DIHEDRAL>
0.442723

>  <SCORE.INTRA.DIHEDRAL.0>
2.61549

>  <SCORE.INTRA.POLAR>
0

>  <SCORE.INTRA.POLAR.0>
0

>  <SCORE.INTRA.REPUL>
0

>  <SCORE.INTRA.REPUL.0>
0

>  <SCORE.INTRA.SOLV>
0.205038

>  <SCORE.INTRA.SOLV.lig_0>
-73.766

>  <SCORE.INTRA.VDW>
0.475126

>  <SCORE.INTRA.VDW.0>
-1.95055

>  <SCORE.INTRA.norm>
0.0363185

>  <SCORE.RESTR>
0

>  <SCORE.RESTR.CAVITY>
0

>  <SCORE.RESTR.norm>
0

>  <SCORE.SYSTEM>
0

>  <SCORE.SYSTEM.CONST>
0

>  <SCORE.SYSTEM.DIHEDRAL>
0

>  <SCORE.SYSTEM.SOLV>
0

>  <SCORE.SYSTEM.norm>
0

>  <SCORE.heavy>
22

>  <SCORE.norm>
-0.386254

>  <RMSD>
5.142

$$$$
ligand
 OpenBabel11021811513D
libRbt.so/2013.1/901 2013/11/27
 22 23  0  0  0  0  0  0  0  0999 V2000
   30.8222   -3.1826  107.7980 N   0  0  0  0  0  0  0  0  0  0  0  0
   28.5154   -1.6369  105.7980 C   0  0  1  0  0  0  0  0  0  0  0  0
   28.7675   -2.2959  107.0878 O   0  0  0  0  0  0  0  0  0  0  0  0
   28.0642   -2.8899  102.2163 P   0  0  2  0  0  0  0  0  0  0  0  0
   30.1466   -2.0049  107.4615 C   0  0  2  0  0  0  0  0  0  0  0  0
   31.3007   -5.3117  108.0208 N   0  0  0  0  0  0  0  0  0  0  0  0
   31.7179   -0.3693  106.7047 O   0  0  0  0  0  0  0  0  0  0  0  0
   30.7769   -1.3697  106.2876 C   0  0  2  0  0  0  0  0  0  0  0  0
   33.7943   -5.0043  110.5341 N   0  0  0  0  0  0  0  0  0  0  0  0
   29.4074    0.5590  106.0684 O   0  0  0  0  0  0  0  0  0  0  0  0
   29.6681   -0.7616  105.5439 C   0  0  2  0  0  0  0  0  0  0  0  0
   32.3206   -4.6052  108.5457 C   0  0  0  0  0  0  0  0  0  0  0  0
   32.8399   -2.1634  108.8356 N   0  0  0  0  0  0  0  0  0  0  0  0
   28.2591   -2.0129  103.4958 O   0  0  0  0  0  0  0  0  0  0  0  0
   28.4112   -2.6554  104.7245 C   0  0  0  0  0  0  0  0  0  0  0  0
   27.9503   -1.9597  100.9358 O   0  0  0  0  0  0  0  0  0  0  0  0
   30.3874   -4.4216  107.5652 C   0  0  0  0  0  0  0  0  0  0  0  0
   34.3522   -5.8065  108.4766 O   0  0  0  0  0  0  0  0  0  0  0  0
   33.5523   -5.1831  109.1697 C   0  0  0  0  0  0  0  0  0  0  0  0
   32.0313   -3.2548  108.4135 C   0  0  0  0  0  0  0  0  0  0  0  0
   26.8818   -3.7713  102.3439 O   0  5  0  0  0  0  0  0  0  0  0  0
   29.1677   -3.8761  102.0623 O   0  0  0  0  0  0  0  0  0  0  0  0
  1 17  1  0  0  0  0
  1 20  1  0  0  0  0
  2 15  1  6  0  0  0
  2  3  1  0  0  0  0
  2 11  1  0  0  0  0
  3  5  1  0  0  0  0
  4 16  1  6  0  0  0
  4 21  1  0  0  0  0
  4 22  2  0  0  0  0
  4 14  1  0  0  0  0
  5  1  1  6  0  0  0
  5  8  1  0  0  0  0
  6 17  2  0  0  0  0
  6 12  1  0  0  0  0
  8  7  1  1  0  0  0
  8 11  1  0  0  0  0
  9 19  1  0  0  0  0
 11 10  1  1  0  0  0
 12 20  2  0  0  0  0
 12 19  1  0  0  0  0
 13 20  1  0  0  0  0
 14 15  1  0  0  0  0
 18 19  2  0  0  0  0
M  CHG  1  21  -1
M  END
>  <CHROM.1>
12.61215609,-176.18327646,-178.53607819,-177.32483889,-114.08782577,30.22008719
-2.86675140,105.93642811,0.12153199,-0.93317017,0.42593814

>  <Name>
ligand

>  <RI>
0

>  <Rbt.Current_Directory>
/home/itssahil/PROJECTS/Mol_Feturizer/New_Systems/rnas/4XW7

>  <Rbt.Executable>
rbdock ($Id: //depot/dev/client3/rdock/2013.1/src/exe/rbdock.cxx#4 $)

>  <Rbt.Library>
libRbt.so (2013.1, Build901 2013/11/27)

>  <Rbt.Parameter_File>
/export/apps/rDock/src/rDock_2013.1_src/data/scripts/dock_solv.prm

>  <Rbt.Receptor>
prm/pocket_docking_4.prm

>  <SCORE>
-5.01247

>  <SCORE.INTER>
-5.33984

>  <SCORE.INTER.CONST>
1

>  <SCORE.INTER.POLAR>
0

>  <SCORE.INTER.ROT>
5

>  <SCORE.INTER.SOLV>
12.8297

>  <SCORE.INTER.VDW>
-14.7698

>  <SCORE.INTER.norm>
-0.24272

>  <SCORE.INTRA>
0.327368

>  <SCORE.INTRA.DIHEDRAL>
-1.0052

>  <SCORE.INTRA.DIHEDRAL.0>
2.61549

>  <SCORE.INTRA.POLAR>
0

>  <SCORE.INTRA.POLAR.0>
0

>  <SCORE.INTRA.REPUL>
0

>  <SCORE.INTRA.REPUL.0>
0

>  <SCORE.INTRA.SOLV>
1.57907

>  <SCORE.INTRA.SOLV.lig_0>
-73.766

>  <SCORE.INTRA.VDW>
0.0404328

>  <SCORE.INTRA.VDW.0>
-1.95055

>  <SCORE.INTRA.norm>
0.0148803

>  <SCORE.RESTR>
0

>  <SCORE.RESTR.CAVITY>
0

>  <SCORE.RESTR.norm>
0

>  <SCORE.SYSTEM>
0

>  <SCORE.SYSTEM.CONST>
0

>  <SCORE.SYSTEM.DIHEDRAL>
0

>  <SCORE.SYSTEM.SOLV>
0

>  <SCORE.SYSTEM.norm>
0

>  <SCORE.heavy>
22

>  <SCORE.norm>
-0.22784

>  <RMSD>
5.145

$$$$
ligand
 OpenBabel11021811513D
libRbt.so/2013.1/901 2013/11/27
 22 23  0  0  0  0  0  0  0  0999 V2000
   30.3853   -1.7517  106.2481 N   0  0  0  0  0  0  0  0  0  0  0  0
   28.2163   -1.8845  103.6046 C   0  0  1  0  0  0  0  0  0  0  0  0
   28.7619   -2.5897  104.7736 O   0  0  0  0  0  0  0  0  0  0  0  0
   28.2906   -3.8002  101.0432 P   0  0  2  0  0  0  0  0  0  0  0  0
   29.0783   -1.5825  105.7792 C   0  0  2  0  0  0  0  0  0  0  0  0
   32.5383   -1.4593  106.5494 N   0  0  0  0  0  0  0  0  0  0  0  0
   28.4222    0.7014  106.0450 O   0  0  0  0  0  0  0  0  0  0  0  0
   28.9359   -0.2691  105.1206 C   0  0  2  0  0  0  0  0  0  0  0  0
   34.3305   -3.6449  107.7905 N   0  0  0  0  0  0  0  0  0  0  0  0
   26.6386   -0.3477  104.5208 O   0  0  0  0  0  0  0  0  0  0  0  0
   27.9873   -0.4951  104.0245 C   0  0  2  0  0  0  0  0  0  0  0  0
   32.1532   -2.4943  107.3210 C   0  0  0  0  0  0  0  0  0  0  0  0
   29.9833   -3.6820  107.7642 N   0  0  0  0  0  0  0  0  0  0  0  0
   29.3438   -3.2331  102.0499 O   0  0  0  0  0  0  0  0  0  0  0  0
   29.1982   -1.9186  102.4932 C   0  0  0  0  0  0  0  0  0  0  0  0
   28.2632   -2.9090   99.7306 O   0  0  0  0  0  0  0  0  0  0  0  0
   31.4389   -1.0138  105.8961 C   0  0  0  0  0  0  0  0  0  0  0  0
   32.6434   -3.6501  109.3208 O   0  0  0  0  0  0  0  0  0  0  0  0
   33.0465   -3.2950  108.2161 C   0  0  0  0  0  0  0  0  0  0  0  0
   30.7922   -2.6928  107.1397 C   0  0  0  0  0  0  0  0  0  0  0  0
   26.9479   -3.8843  101.6606 O   0  5  0  0  0  0  0  0  0  0  0  0
   28.5678   -5.2248  100.7146 O   0  0  0  0  0  0  0  0  0  0  0  0
  1 17  1  0  0  0  0
  1 20  1  0  0  0  0
  2 15  1  6  0  0  0
  2  3  1  0  0  0  0
  2 11  1  0  0  0  0
  3  5  1  0  0  0  0
  4 16  1  6  0  0  0
  4 21  1  0  0  0  0
  4 22  2  0  0  0  0
  4 14  1  0  0  0  0
  5  1  1  6  0  0  0
  5  8  1  0  0  0  0
  6 17  2  0  0  0  0
  6 12  1  0  0  0  0
  8  7  1  1  0  0  0
  8 11  1  0  0  0  0
  9 19  1  0  0  0  0
 11 10  1  1  0  0  0
 12 20  2  0  0  0  0
 12 19  1  0  0  0  0
 13 20  1  0  0  0  0
 14 15  1  0  0  0  0
 18 19  2  0  0  0  0
M  CHG  1  21  -1
M  END
>  <CHROM.1>
102.70603158,66.82597724,58.63219380,82.27128280,-40.32524287,29.64932742
-2.42917237,104.58722433,0.76957764,-0.72056662,0.88520270

>  <Name>
ligand

>  <RI>
0

>  <Rbt.Current_Directory>
/home/itssahil/PROJECTS/Mol_Feturizer/New_Systems/rnas/4XW7

>  <Rbt.Executable>
rbdock ($Id: //depot/dev/client3/rdock/2013.1/src/exe/rbdock.cxx#4 $)

>  <Rbt.Library>
libRbt.so (2013.1, Build901 2013/11/27)

>  <Rbt.Parameter_File>
/export/apps/rDock/src/rDock_2013.1_src/data/scripts/dock_solv.prm

>  <Rbt.Receptor>
prm/pocket_docking_7.prm

>  <SCORE>
-7.46242

>  <SCORE.INTER>
-9.73198

>  <SCORE.INTER.CONST>
1

>  <SCORE.INTER.POLAR>
0

>  <SCORE.INTER.ROT>
5

>  <SCORE.INTER.SOLV>
12.8439

>  <SCORE.INTER.VDW>
-17.7026

>  <SCORE.INTER.norm>
-0.442363

>  <SCORE.INTRA>
2.26955

>  <SCORE.INTRA.DIHEDRAL>
2.47365

>  <SCORE.INTRA.DIHEDRAL.0>
2.61549

>  <SCORE.INTRA.POLAR>
0

>  <SCORE.INTRA.POLAR.0>
0

>  <SCORE.INTRA.REPUL>
0

>  <SCORE.INTRA.REPUL.0>
0

>  <SCORE.INTRA.SOLV>
0.957673

>  <SCORE.INTRA.SOLV.lig_0>
-73.766

>  <SCORE.INTRA.VDW>
0.553891

>  <SCORE.INTRA.VDW.0>
-1.95055

>  <SCORE.INTRA.norm>
0.103162

>  <SCORE.RESTR>
0

>  <SCORE.RESTR.CAVITY>
0

>  <SCORE.RESTR.norm>
0

>  <SCORE.SYSTEM>
0

>  <SCORE.SYSTEM.CONST>
0

>  <SCORE.SYSTEM.DIHEDRAL>
0

>  <SCORE.SYSTEM.SOLV>
0

>  <SCORE.SYSTEM.norm>
0

>  <SCORE.heavy>
22

>  <SCORE.norm>
-0.339201

>  <RMSD>
5.186

$$$$
ligand
 OpenBabel11021811513D
libRbt.so/2013.1/901 2013/11/27
 22 23  0  0  0  0  0  0  0  0999 V2000
   33.1521   -3.2135  108.7917 N   0  0  0  0  0  0  0  0  0  0  0  0
   29.9850   -2.2587  107.9156 C   0  0  1  0  0  0  0  0  0  0  0  0
   30.9202   -2.5214  109.0191 O   0  0  0  0  0  0  0  0  0  0  0  0
   27.6579   -4.5103  105.8884 P   0  0  2  0  0  0  0  0  0  0  0  0
   32.2549   -2.1680  108.5501 C   0  0  2  0  0  0  0  0  0  0  0  0
   34.4789   -4.9295  108.4650 N   0  0  0  0  0  0  0  0  0  0  0  0
   33.0281   -0.8605  106.7036 O   0  0  0  0  0  0  0  0  0  0  0  0
   32.1397   -1.9158  107.1003 C   0  0  2  0  0  0  0  0  0  0  0  0
   36.0990   -4.6237  111.7198 N   0  0  0  0  0  0  0  0  0  0  0  0
   30.6069   -0.1010  107.1106 O   0  0  0  0  0  0  0  0  0  0  0  0
   30.7415   -1.5228  106.8932 C   0  0  2  0  0  0  0  0  0  0  0  0
   34.5139   -4.6284  109.7776 C   0  0  0  0  0  0  0  0  0  0  0  0
   33.4215   -2.9053  111.2450 N   0  0  0  0  0  0  0  0  0  0  0  0
   28.4099   -3.2917  106.5159 O   0  0  0  0  0  0  0  0  0  0  0  0
   29.4969   -3.5418  107.3536 C   0  0  0  0  0  0  0  0  0  0  0  0
   27.8410   -5.7903  106.8081 O   0  0  0  0  0  0  0  0  0  0  0  0
   33.6367   -4.0498  107.8728 C   0  0  0  0  0  0  0  0  0  0  0  0
   35.2905   -6.5745  110.8660 O   0  0  0  0  0  0  0  0  0  0  0  0
   35.3162   -5.3474  110.8166 C   0  0  0  0  0  0  0  0  0  0  0  0
   33.6771   -3.5445  110.0004 C   0  0  0  0  0  0  0  0  0  0  0  0
   28.1202   -4.7737  104.5070 O   0  5  0  0  0  0  0  0  0  0  0  0
   26.2164   -4.2070  105.6776 O   0  0  0  0  0  0  0  0  0  0  0  0
  1 17  1  0  0  0  0
  1 20  1  0  0  0  0
  2 15  1  6  0  0  0
  2  3  1  0  0  0  0
  2 11  1  0  0  0  0
  3  5  1  0  0  0  0
  4 16  1  1  0  0  0
  4 21  1  0  0  0  0
  4 22  2  0  0  0  0
  4 14  1  0  0  0  0
  5  1  1  6  0  0  0
  5  8  1  0  0  0  0
  6 17  2  0  0  0  0
  6 12  1  0  0  0  0
  8  7  1  1  0  0  0
  8 11  1  0  0  0  0
  9 19  1  0  0  0  0
 11 10  1  1  0  0  0
 12 20  2  0  0  0  0
 12 19  1  0  0  0  0
 13 20  1  0  0  0  0
 14 15  1  0  0  0  0
 18 19  2  0  0  0  0
M  CHG  1  21  -1
M  END
>  <CHROM.1>
105.08047420,167.38856050,25.73323891,-175.55181138,131.75947304,31.33725782
-3.56147300,107.96850850,-0.17660235,-0.53947013,-0.22658648

>  <Name>
ligand

>  <RI>
0

>  <Rbt.Current_Directory>
/home/itssahil/PROJECTS/Mol_Feturizer/New_Systems/rnas/4XW7

>  <Rbt.Executable>
rbdock ($Id: //depot/dev/client3/rdock/2013.1/src/exe/rbdock.cxx#4 $)

>  <Rbt.Library>
libRbt.so (2013.1, Build901 2013/11/27)

>  <Rbt.Parameter_File>
/export/apps/rDock/src/rDock_2013.1_src/data/scripts/dock_solv.prm

>  <Rbt.Receptor>
prm/pocket_docking_6.prm

>  <SCORE>
-5.32913

>  <SCORE.INTER>
-6.58632

>  <SCORE.INTER.CONST>
1

>  <SCORE.INTER.POLAR>
0

>  <SCORE.INTER.ROT>
5

>  <SCORE.INTER.SOLV>
11.8999

>  <SCORE.INTER.VDW>
-15.2909

>  <SCORE.INTER.norm>
-0.299378

>  <SCORE.INTRA>
1.25719

>  <SCORE.INTRA.DIHEDRAL>
1.10768

>  <SCORE.INTRA.DIHEDRAL.0>
2.61549

>  <SCORE.INTRA.POLAR>
0

>  <SCORE.INTRA.POLAR.0>
0

>  <SCORE.INTRA.REPUL>
0

>  <SCORE.INTRA.REPUL.0>
0

>  <SCORE.INTRA.SOLV>
-0.678733

>  <SCORE.INTRA.SOLV.lig_0>
-73.766

>  <SCORE.INTRA.VDW>
1.04272

>  <SCORE.INTRA.VDW.0>
-1.95055

>  <SCORE.INTRA.norm>
0.057145

>  <SCORE.RESTR>
0

>  <SCORE.RESTR.CAVITY>
0

>  <SCORE.RESTR.norm>
0

>  <SCORE.SYSTEM>
0

>  <SCORE.SYSTEM.CONST>
0

>  <SCORE.SYSTEM.DIHEDRAL>
0

>  <SCORE.SYSTEM.SOLV>
0

>  <SCORE.SYSTEM.norm>
0

>  <SCORE.heavy>
22

>  <SCORE.norm>
-0.242233

>  <RMSD>
5.191

$$$$
ligand
 OpenBabel11021811513D
libRbt.so/2013.1/901 2013/11/27
 22 23  0  0  0  0  0  0  0  0999 V2000
   30.3476   -1.3856  106.2025 N   0  0  0  0  0  0  0  0  0  0  0  0
   27.6762   -2.2393  104.2417 C   0  0  1  0  0  0  0  0  0  0  0  0
   28.3861   -2.4728  105.5077 O   0  0  0  0  0  0  0  0  0  0  0  0
   28.1215   -3.5123  100.6765 P   0  0  2  0  0  0  0  0  0  0  0  0
   28.9925   -1.2076  105.9049 C   0  0  2  0  0  0  0  0  0  0  0  0
   32.5323   -1.2046  106.1261 N   0  0  0  0  0  0  0  0  0  0  0  0
   28.6126    1.0531  105.2253 O   0  0  0  0  0  0  0  0  0  0  0  0
   28.8351   -0.2870  104.7618 C   0  0  2  0  0  0  0  0  0  0  0  0
   33.2692   -2.4146  109.3794 N   0  0  0  0  0  0  0  0  0  0  0  0
   26.4659   -0.2158  104.6036 O   0  0  0  0  0  0  0  0  0  0  0  0
   27.6642   -0.7850  104.0317 C   0  0  2  0  0  0  0  0  0  0  0  0
   32.2259   -2.0500  107.1292 C   0  0  0  0  0  0  0  0  0  0  0  0
   30.1000   -2.9718  108.1022 N   0  0  0  0  0  0  0  0  0  0  0  0
   27.7056   -2.6887  101.9386 O   0  0  0  0  0  0  0  0  0  0  0  0
   28.4001   -2.9020  103.1294 C   0  0  0  0  0  0  0  0  0  0  0  0
   29.6970   -3.6991  100.6481 O   0  0  0  0  0  0  0  0  0  0  0  0
   31.3658   -0.8050  105.5664 C   0  0  0  0  0  0  0  0  0  0  0  0
   33.9718   -3.5818  107.5540 O   0  0  0  0  0  0  0  0  0  0  0  0
   33.2107   -2.7386  108.0216 C   0  0  0  0  0  0  0  0  0  0  0  0
   30.8455   -2.1761  107.1890 C   0  0  0  0  0  0  0  0  0  0  0  0
   27.6364   -2.8720   99.4331 O   0  5  0  0  0  0  0  0  0  0  0  0
   27.4278   -4.8281  100.6356 O   0  0  0  0  0  0  0  0  0  0  0  0
  1 17  1  0  0  0  0
  1 20  1  0  0  0  0
  2 15  1  6  0  0  0
  2  3  1  0  0  0  0
  2 11  1  0  0  0  0
  3  5  1  0  0  0  0
  4 16  1  6  0  0  0
  4 21  1  0  0  0  0
  4 22  2  0  0  0  0
  4 14  1  0  0  0  0
  5  1  1  6  0  0  0
  5  8  1  0  0  0  0
  6 17  2  0  0  0  0
  6 12  1  0  0  0  0
  8  7  1  1  0  0  0
  8 11  1  0  0  0  0
  9 19  1  0  0  0  0
 11 10  1  1  0  0  0
 12 20  2  0  0  0  0
 12 19  1  0  0  0  0
 13 20  1  0  0  0  0
 14 15  1  0  0  0  0
 18 19  2  0  0  0  0
M  CHG  1  21  -1
M  END
>  <CHROM.1>
118.32482692,179.14926462,-37.12145554,-168.55037419,113.18544713,29.53901438
-2.19431949,104.47487081,0.84506547,-0.59349108,0.96635042

>  <Name>
ligand

>  <RI>
0

>  <Rbt.Current_Directory>
/home/itssahil/PROJECTS/Mol_Feturizer/New_Systems/rnas/4XW7

>  <Rbt.Executable>
rbdock ($Id: //depot/dev/client3/rdock/2013.1/src/exe/rbdock.cxx#4 $)

>  <Rbt.Library>
libRbt.so (2013.1, Build901 2013/11/27)

>  <Rbt.Parameter_File>
/export/apps/rDock/src/rDock_2013.1_src/data/scripts/dock_solv.prm

>  <Rbt.Receptor>
prm/pocket_docking_5.prm

>  <SCORE>
-7.46811

>  <SCORE.INTER>
-8.54693

>  <SCORE.INTER.CONST>
1

>  <SCORE.INTER.POLAR>
0

>  <SCORE.INTER.ROT>
5

>  <SCORE.INTER.SOLV>
9.55228

>  <SCORE.INTER.VDW>
-15.8154

>  <SCORE.INTER.norm>
-0.388497

>  <SCORE.INTRA>
1.07882

>  <SCORE.INTRA.DIHEDRAL>
0.29459

>  <SCORE.INTRA.DIHEDRAL.0>
2.61549

>  <SCORE.INTRA.POLAR>
0

>  <SCORE.INTRA.POLAR.0>
0

>  <SCORE.INTRA.REPUL>
0

>  <SCORE.INTRA.REPUL.0>
0

>  <SCORE.INTRA.SOLV>
-0.439347

>  <SCORE.INTRA.SOLV.lig_0>
-73.766

>  <SCORE.INTRA.VDW>
1.1512

>  <SCORE.INTRA.VDW.0>
-1.95055

>  <SCORE.INTRA.norm>
0.0490375

>  <SCORE.RESTR>
0

>  <SCORE.RESTR.CAVITY>
0

>  <SCORE.RESTR.norm>
0

>  <SCORE.SYSTEM>
0

>  <SCORE.SYSTEM.CONST>
0

>  <SCORE.SYSTEM.DIHEDRAL>
0

>  <SCORE.SYSTEM.SOLV>
0

>  <SCORE.SYSTEM.norm>
0

>  <SCORE.heavy>
22

>  <SCORE.norm>
-0.339459

>  <RMSD>
5.223

$$$$
ligand
 OpenBabel11021811513D
libRbt.so/2013.1/901 2013/11/27
 22 23  0  0  0  0  0  0  0  0999 V2000
   31.0104   -2.1185  107.2343 N   0  0  0  0  0  0  0  0  0  0  0  0
   28.5340   -1.3605  104.9976 C   0  0  1  0  0  0  0  0  0  0  0  0
   29.2003   -2.4194  105.7697 O   0  0  0  0  0  0  0  0  0  0  0  0
   28.2294   -2.5520  102.1907 P   0  0  2  0  0  0  0  0  0  0  0  0
   29.6607   -1.8222  107.0177 C   0  0  2  0  0  0  0  0  0  0  0  0
   33.1979   -2.0752  107.0769 N   0  0  0  0  0  0  0  0  0  0  0  0
   29.0968    0.2101  108.1442 O   0  0  0  0  0  0  0  0  0  0  0  0
   29.4709   -0.3645  106.8832 C   0  0  2  0  0  0  0  0  0  0  0  0
   33.9997   -5.1875  108.4639 N   0  0  0  0  0  0  0  0  0  0  0  0
   27.1166   -0.2742  106.5793 O   0  0  0  0  0  0  0  0  0  0  0  0
   28.3911   -0.2112  105.9020 C   0  0  2  0  0  0  0  0  0  0  0  0
   32.8718   -2.9963  108.0043 C   0  0  0  0  0  0  0  0  0  0  0  0
   30.7256   -3.8701  108.9770 N   0  0  0  0  0  0  0  0  0  0  0  0
   29.4935   -2.0802  102.9806 O   0  0  0  0  0  0  0  0  0  0  0  0
   29.3725   -0.9832  103.8336 C   0  0  0  0  0  0  0  0  0  0  0  0
   27.5960   -1.3282  101.4039 O   0  0  0  0  0  0  0  0  0  0  0  0
   32.0415   -1.5445  106.6131 C   0  0  0  0  0  0  0  0  0  0  0  0
   34.4847   -3.3338  109.6955 O   0  0  0  0  0  0  0  0  0  0  0  0
   33.8396   -3.8356  108.7784 C   0  0  0  0  0  0  0  0  0  0  0  0
   31.4894   -3.0365  108.1141 C   0  0  0  0  0  0  0  0  0  0  0  0
   27.2367   -3.1804  103.0911 O   0  5  0  0  0  0  0  0  0  0  0  0
   28.5555   -3.6700  101.2645 O   0  0  0  0  0  0  0  0  0  0  0  0
  1 17  1  0  0  0  0
  1 20  1  0  0  0  0
  2 15  1  6  0  0  0
  2  3  1  0  0  0  0
  2 11  1  0  0  0  0
  3  5  1  0  0  0  0
  4 16  1  6  0  0  0
  4 21  1  0  0  0  0
  4 22  2  0  0  0  0
  4 14  1  0  0  0  0
  5  1  1  6  0  0  0
  5  8  1  0  0  0  0
  6 17  2  0  0  0  0
  6 12  1  0  0  0  0
  8  7  1  1  0  0  0
  8 11  1  0  0  0  0
  9 19  1  0  0  0  0
 11 10  1  1  0  0  0
 12 20  2  0  0  0  0
 12 19  1  0  0  0  0
 13 20  1  0  0  0  0
 14 15  1  0  0  0  0
 18 19  2  0  0  0  0
M  CHG  1  21  -1
M  END
>  <CHROM.1>
76.12892220,63.52089461,52.78317816,69.27216008,-105.43276096,30.05363807
-2.19255469,105.74384235,0.65531422,-0.64946909,1.09144357

>  <Name>
ligand

>  <RI>
0

>  <Rbt.Current_Directory>
/home/itssahil/PROJECTS/Mol_Feturizer/New_Systems/rnas/4XW7

>  <Rbt.Executable>
rbdock ($Id: //depot/dev/client3/rdock/2013.1/src/exe/rbdock.cxx#4 $)

>  <Rbt.Library>
libRbt.so (2013.1, Build901 2013/11/27)

>  <Rbt.Parameter_File>
/export/apps/rDock/src/rDock_2013.1_src/data/scripts/dock_solv.prm

>  <Rbt.Receptor>
prm/pocket_docking_7.prm

>  <SCORE>
-8.6391

>  <SCORE.INTER>
-9.15077

>  <SCORE.INTER.CONST>
1

>  <SCORE.INTER.POLAR>
0

>  <SCORE.INTER.ROT>
5

>  <SCORE.INTER.SOLV>
12.339

>  <SCORE.INTER.VDW>
-17.1469

>  <SCORE.INTER.norm>
-0.415944

>  <SCORE.INTRA>
0.51167

>  <SCORE.INTRA.DIHEDRAL>
-0.353469

>  <SCORE.INTRA.DIHEDRAL.0>
2.61549

>  <SCORE.INTRA.POLAR>
0

>  <SCORE.INTRA.POLAR.0>
0

>  <SCORE.INTRA.REPUL>
0

>  <SCORE.INTRA.REPUL.0>
0

>  <SCORE.INTRA.SOLV>
1.22905

>  <SCORE.INTRA.SOLV.lig_0>
-73.766

>  <SCORE.INTRA.VDW>
0.0738821

>  <SCORE.INTRA.VDW.0>
-1.95055

>  <SCORE.INTRA.norm>
0.0232577

>  <SCORE.RESTR>
0

>  <SCORE.RESTR.CAVITY>
0

>  <SCORE.RESTR.norm>
0

>  <SCORE.SYSTEM>
0

>  <SCORE.SYSTEM.CONST>
0

>  <SCORE.SYSTEM.DIHEDRAL>
0

>  <SCORE.SYSTEM.SOLV>
0

>  <SCORE.SYSTEM.norm>
0

>  <SCORE.heavy>
22

>  <SCORE.norm>
-0.392686

>  <RMSD>
5.266

$$$$
ligand
 OpenBabel11021811513D
libRbt.so/2013.1/901 2013/11/27
 22 23  0  0  0  0  0  0  0  0999 V2000
   30.9437   -1.9780  106.9924 N   0  0  0  0  0  0  0  0  0  0  0  0
   28.4754   -1.4838  104.6744 C   0  0  1  0  0  0  0  0  0  0  0  0
   29.1823   -2.4596  105.5168 O   0  0  0  0  0  0  0  0  0  0  0  0
   28.2592   -2.7452  101.8526 P   0  0  2  0  0  0  0  0  0  0  0  0
   29.5846   -1.7690  106.7364 C   0  0  2  0  0  0  0  0  0  0  0  0
   33.1275   -1.7938  106.8986 N   0  0  0  0  0  0  0  0  0  0  0  0
   28.8892    0.2889  107.7356 O   0  0  0  0  0  0  0  0  0  0  0  0
   29.3191   -0.3338  106.5159 C   0  0  2  0  0  0  0  0  0  0  0  0
   34.0381   -3.2002  109.9666 N   0  0  0  0  0  0  0  0  0  0  0  0
   26.9699   -0.3905  106.1673 O   0  0  0  0  0  0  0  0  0  0  0  0
   28.2525   -0.2953  105.5093 C   0  0  2  0  0  0  0  0  0  0  0  0
   32.8346   -2.7347  107.8172 C   0  0  0  0  0  0  0  0  0  0  0  0
   30.7218   -3.7456  108.7281 N   0  0  0  0  0  0  0  0  0  0  0  0
   29.4790   -2.2516  102.6969 O   0  0  0  0  0  0  0  0  0  0  0  0
   29.3155   -1.1266  103.5052 C   0  0  0  0  0  0  0  0  0  0  0  0
   27.7124   -1.5607  100.9495 O   0  0  0  0  0  0  0  0  0  0  0  0
   31.9534   -1.3383  106.4008 C   0  0  0  0  0  0  0  0  0  0  0  0
   34.4724   -4.4137  108.0885 O   0  0  0  0  0  0  0  0  0  0  0  0
   33.8315   -3.5105  108.6200 C   0  0  0  0  0  0  0  0  0  0  0  0
   31.4550   -2.8639  107.8868 C   0  0  0  0  0  0  0  0  0  0  0  0
   27.1920   -3.2932  102.7197 O   0  5  0  0  0  0  0  0  0  0  0  0
   28.6179   -3.9268  101.0224 O   0  0  0  0  0  0  0  0  0  0  0  0
  1 17  1  0  0  0  0
  1 20  1  0  0  0  0
  2 15  1  6  0  0  0
  2  3  1  0  0  0  0
  2 11  1  0  0  0  0
  3  5  1  0  0  0  0
  4 16  1  6  0  0  0
  4 21  1  0  0  0  0
  4 22  2  0  0  0  0
  4 14  1  0  0  0  0
  5  1  1  6  0  0  0
  5  8  1  0  0  0  0
  6 17  2  0  0  0  0
  6 12  1  0  0  0  0
  8  7  1  1  0  0  0
  8 11  1  0  0  0  0
  9 19  1  0  0  0  0
 11 10  1  1  0  0  0
 12 20  2  0  0  0  0
 12 19  1  0  0  0  0
 13 20  1  0  0  0  0
 14 15  1  0  0  0  0
 18 19  2  0  0  0  0
M  CHG  1  21  -1
M  END
>  <CHROM.1>
79.45760242,65.30590577,54.94950338,72.56582110,104.67840546,30.01382406
-2.17253562,105.45490145,0.72070863,-0.59942826,1.10566839

>  <Name>
ligand

>  <RI>
0

>  <Rbt.Current_Directory>
/home/itssahil/PROJECTS/Mol_Feturizer/New_Systems/rnas/4XW7

>  <Rbt.Executable>
rbdock ($Id: //depot/dev/client3/rdock/2013.1/src/exe/rbdock.cxx#4 $)

>  <Rbt.Library>
libRbt.so (2013.1, Build901 2013/11/27)

>  <Rbt.Parameter_File>
/export/apps/rDock/src/rDock_2013.1_src/data/scripts/dock_solv.prm

>  <Rbt.Receptor>
prm/pocket_docking_7.prm

>  <SCORE>
-8.8944

>  <SCORE.INTER>
-9.54165

>  <SCORE.INTER.CONST>
1

>  <SCORE.INTER.POLAR>
0

>  <SCORE.INTER.ROT>
5

>  <SCORE.INTER.SOLV>
12.2725

>  <SCORE.INTER.VDW>
-17.3853

>  <SCORE.INTER.norm>
-0.433711

>  <SCORE.INTRA>
0.64725

>  <SCORE.INTRA.DIHEDRAL>
0.0164366

>  <SCORE.INTRA.DIHEDRAL.0>
2.61549

>  <SCORE.INTRA.POLAR>
0

>  <SCORE.INTRA.POLAR.0>
0

>  <SCORE.INTRA.REPUL>
0

>  <SCORE.INTRA.REPUL.0>
0

>  <SCORE.INTRA.SOLV>
1.13627

>  <SCORE.INTRA.SOLV.lig_0>
-73.766

>  <SCORE.INTRA.VDW>
0.0708956

>  <SCORE.INTRA.VDW.0>
-1.95055

>  <SCORE.INTRA.norm>
0.0294204

>  <SCORE.RESTR>
0

>  <SCORE.RESTR.CAVITY>
0

>  <SCORE.RESTR.norm>
0

>  <SCORE.SYSTEM>
0

>  <SCORE.SYSTEM.CONST>
0

>  <SCORE.SYSTEM.DIHEDRAL>
0

>  <SCORE.SYSTEM.SOLV>
0

>  <SCORE.SYSTEM.norm>
0

>  <SCORE.heavy>
22

>  <SCORE.norm>
-0.404291

>  <RMSD>
5.276

$$$$
ligand
 OpenBabel11021811513D
libRbt.so/2013.1/901 2013/11/27
 22 23  0  0  0  0  0  0  0  0999 V2000
   31.1778   -2.1213  107.3235 N   0  0  0  0  0  0  0  0  0  0  0  0
   28.6710   -1.3111  105.1396 C   0  0  1  0  0  0  0  0  0  0  0  0
   29.3010   -2.3744  105.9359 O   0  0  0  0  0  0  0  0  0  0  0  0
   28.0504   -2.4803  102.4103 P   0  0  2  0  0  0  0  0  0  0  0  0
   29.8411   -1.7530  107.1393 C   0  0  2  0  0  0  0  0  0  0  0  0
   33.3598   -2.1970  107.1115 N   0  0  0  0  0  0  0  0  0  0  0  0
   29.4401    0.3565  108.1911 O   0  0  0  0  0  0  0  0  0  0  0  0
   29.7334   -0.2936  106.9455 C   0  0  2  0  0  0  0  0  0  0  0  0
   34.0760   -5.3295  108.4471 N   0  0  0  0  0  0  0  0  0  0  0  0
   27.3791   -0.0734  106.7173 O   0  0  0  0  0  0  0  0  0  0  0  0
   28.6296   -0.1173  105.9953 C   0  0  2  0  0  0  0  0  0  0  0  0
   33.0078   -3.0965  108.0506 C   0  0  0  0  0  0  0  0  0  0  0  0
   30.8426   -3.8501  109.0801 N   0  0  0  0  0  0  0  0  0  0  0  0
   29.4228   -2.1344  103.0745 O   0  0  0  0  0  0  0  0  0  0  0  0
   29.4876   -1.0361  103.9320 C   0  0  0  0  0  0  0  0  0  0  0  0
   27.3655   -1.1570  101.8646 O   0  0  0  0  0  0  0  0  0  0  0  0
   32.2226   -1.6058  106.6745 C   0  0  0  0  0  0  0  0  0  0  0  0
   34.5985   -3.5293  109.7411 O   0  0  0  0  0  0  0  0  0  0  0  0
   33.9479   -3.9848  108.8039 C   0  0  0  0  0  0  0  0  0  0  0  0
   31.6284   -3.0614  108.1949 C   0  0  0  0  0  0  0  0  0  0  0  0
   27.1606   -3.1926  103.3548 O   0  5  0  0  0  0  0  0  0  0  0  0
   28.2122   -3.4840  101.3238 O   0  0  0  0  0  0  0  0  0  0  0  0
  1 17  1  0  0  0  0
  1 20  1  0  0  0  0
  2 15  1  6  0  0  0
  2  3  1  0  0  0  0
  2 11  1  0  0  0  0
  3  5  1  0  0  0  0
  4 16  1  6  0  0  0
  4 21  1  0  0  0  0
  4 22  2  0  0  0  0
  4 14  1  0  0  0  0
  5  1  1  6  0  0  0
  5  8  1  0  0  0  0
  6 17  2  0  0  0  0
  6 12  1  0  0  0  0
  8  7  1  1  0  0  0
  8 11  1  0  0  0  0
  9 19  1  0  0  0  0
 11 10  1  1  0  0  0
 12 20  2  0  0  0  0
 12 19  1  0  0  0  0
 13 20  1  0  0  0  0
 14 15  1  0  0  0  0
 18 19  2  0  0  0  0
M  CHG  1  21  -1
M  END
>  <CHROM.1>
78.55663765,68.33017165,44.74516221,66.21104961,-102.22857086,30.12174124
-2.17588172,105.86399069,0.54993966,-0.68703966,0.99082768

>  <Name>
ligand

>  <RI>
0

>  <Rbt.Current_Directory>
/home/itssahil/PROJECTS/Mol_Feturizer/New_Systems/rnas/4XW7

>  <Rbt.Executable>
rbdock ($Id: //depot/dev/client3/rdock/2013.1/src/exe/rbdock.cxx#4 $)

>  <Rbt.Library>
libRbt.so (2013.1, Build901 2013/11/27)

>  <Rbt.Parameter_File>
/export/apps/rDock/src/rDock_2013.1_src/data/scripts/dock_solv.prm

>  <Rbt.Receptor>
prm/pocket_docking_5.prm

>  <SCORE>
-8.56792

>  <SCORE.INTER>
-9.33192

>  <SCORE.INTER.CONST>
1

>  <SCORE.INTER.POLAR>
0

>  <SCORE.INTER.ROT>
5

>  <SCORE.INTER.SOLV>
12.6759

>  <SCORE.INTER.VDW>
-17.3799

>  <SCORE.INTER.norm>
-0.424178

>  <SCORE.INTRA>
0.763999

>  <SCORE.INTRA.DIHEDRAL>
0.00535576

>  <SCORE.INTRA.DIHEDRAL.0>
2.61549

>  <SCORE.INTRA.POLAR>
0

>  <SCORE.INTRA.POLAR.0>
0

>  <SCORE.INTRA.REPUL>
0

>  <SCORE.INTRA.REPUL.0>
0

>  <SCORE.INTRA.SOLV>
1.12282

>  <SCORE.INTRA.SOLV.lig_0>
-73.766

>  <SCORE.INTRA.VDW>
0.199913

>  <SCORE.INTRA.VDW.0>
-1.95055

>  <SCORE.INTRA.norm>
0.0347272

>  <SCORE.RESTR>
0

>  <SCORE.RESTR.CAVITY>
0

>  <SCORE.RESTR.norm>
0

>  <SCORE.SYSTEM>
0

>  <SCORE.SYSTEM.CONST>
0

>  <SCORE.SYSTEM.DIHEDRAL>
0

>  <SCORE.SYSTEM.SOLV>
0

>  <SCORE.SYSTEM.norm>
0

>  <SCORE.heavy>
22

>  <SCORE.norm>
-0.389451

>  <RMSD>
5.277

$$$$
ligand
 OpenBabel11021811513D
libRbt.so/2013.1/901 2013/11/27
 22 23  0  0  0  0  0  0  0  0999 V2000
   30.2661   -1.7936  106.3267 N   0  0  0  0  0  0  0  0  0  0  0  0
   27.9663   -1.9074  103.7953 C   0  0  1  0  0  0  0  0  0  0  0  0
   28.4365   -2.5191  105.0468 O   0  0  0  0  0  0  0  0  0  0  0  0
   29.3658   -4.2554  101.1380 P   0  0  2  0  0  0  0  0  0  0  0  0
   28.9888   -1.4507  105.8712 C   0  0  2  0  0  0  0  0  0  0  0  0
   32.4232   -1.7135  106.7173 N   0  0  0  0  0  0  0  0  0  0  0  0
   28.7811    0.9298  105.7880 O   0  0  0  0  0  0  0  0  0  0  0  0
   29.0547   -0.2491  105.0163 C   0  0  2  0  0  0  0  0  0  0  0  0
   34.0909   -3.5828  108.3455 N   0  0  0  0  0  0  0  0  0  0  0  0
   26.7526    0.0227  104.4968 O   0  0  0  0  0  0  0  0  0  0  0  0
   28.0213   -0.4526  103.9951 C   0  0  2  0  0  0  0  0  0  0  0  0
   31.9460   -2.8401  107.2812 C   0  0  0  0  0  0  0  0  0  0  0  0
   29.6891   -3.9310  107.4603 N   0  0  0  0  0  0  0  0  0  0  0  0
   28.7265   -3.6627  102.4358 O   0  0  0  0  0  0  0  0  0  0  0  0
   28.8617   -2.2956  102.6781 C   0  0  0  0  0  0  0  0  0  0  0  0
   28.8728   -3.4376   99.8707 O   0  0  0  0  0  0  0  0  0  0  0  0
   31.3770   -1.0813  106.1344 C   0  0  0  0  0  0  0  0  0  0  0  0
   32.2438   -4.9155  108.3671 O   0  0  0  0  0  0  0  0  0  0  0  0
   32.7554   -3.8497  108.0335 C   0  0  0  0  0  0  0  0  0  0  0  0
   30.5812   -2.9057  107.0408 C   0  0  0  0  0  0  0  0  0  0  0  0
   29.0583   -5.6965  100.9973 O   0  5  0  0  0  0  0  0  0  0  0  0
   30.8514   -4.2648  101.2216 O   0  0  0  0  0  0  0  0  0  0  0  0
  1 17  1  0  0  0  0
  1 20  1  0  0  0  0
  2 15  1  6  0  0  0
  2  3  1  0  0  0  0
  2 11  1  0  0  0  0
  3  5  1  0  0  0  0
  4 16  1  6  0  0  0
  4 21  1  0  0  0  0
  4 22  2  0  0  0  0
  4 14  1  0  0  0  0
  5  1  1  6  0  0  0
  5  8  1  0  0  0  0
  6 17  2  0  0  0  0
  6 12  1  0  0  0  0
  8  7  1  1  0  0  0
  8 11  1  0  0  0  0
  9 19  1  0  0  0  0
 11 10  1  1  0  0  0
 12 20  2  0  0  0  0
 12 19  1  0  0  0  0
 13 20  1  0  0  0  0
 14 15  1  0  0  0  0
 18 19  2  0  0  0  0
M  CHG  1  21  -1
M  END
>  <CHROM.1>
123.59570215,67.47001168,-52.93146545,168.78866984,8.14482424,29.86891252
-2.66192030,104.59931742,0.90916782,-0.79791233,0.95120977

>  <Name>
ligand

>  <RI>
0

>  <Rbt.Current_Directory>
/home/itssahil/PROJECTS/Mol_Feturizer/New_Systems/rnas/4XW7

>  <Rbt.Executable>
rbdock ($Id: //depot/dev/client3/rdock/2013.1/src/exe/rbdock.cxx#4 $)

>  <Rbt.Library>
libRbt.so (2013.1, Build901 2013/11/27)

>  <Rbt.Parameter_File>
/export/apps/rDock/src/rDock_2013.1_src/data/scripts/dock_solv.prm

>  <Rbt.Receptor>
prm/pocket_docking_5.prm

>  <SCORE>
-9.20923

>  <SCORE.INTER>
-9.86607

>  <SCORE.INTER.CONST>
1

>  <SCORE.INTER.POLAR>
0

>  <SCORE.INTER.ROT>
5

>  <SCORE.INTER.SOLV>
18.5174

>  <SCORE.INTER.VDW>
-19.6832

>  <SCORE.INTER.norm>
-0.448458

>  <SCORE.INTRA>
0.656325

>  <SCORE.INTRA.DIHEDRAL>
-0.175964

>  <SCORE.INTRA.DIHEDRAL.0>
2.61549

>  <SCORE.INTRA.POLAR>
0

>  <SCORE.INTRA.POLAR.0>
0

>  <SCORE.INTRA.REPUL>
0

>  <SCORE.INTRA.REPUL.0>
0

>  <SCORE.INTRA.SOLV>
-0.360693

>  <SCORE.INTRA.SOLV.lig_0>
-73.766

>  <SCORE.INTRA.VDW>
0.924653

>  <SCORE.INTRA.VDW.0>
-1.95055

>  <SCORE.INTRA.norm>
0.029833

>  <SCORE.RESTR>
0.000518882

>  <SCORE.RESTR.CAVITY>
0.000518882

>  <SCORE.RESTR.norm>
2.35855e-05

>  <SCORE.SYSTEM>
0

>  <SCORE.SYSTEM.CONST>
0

>  <SCORE.SYSTEM.DIHEDRAL>
0

>  <SCORE.SYSTEM.SOLV>
0

>  <SCORE.SYSTEM.norm>
0

>  <SCORE.heavy>
22

>  <SCORE.norm>
-0.418601

>  <RMSD>
5.282

$$$$
ligand
 OpenBabel11021811513D
libRbt.so/2013.1/901 2013/11/27
 22 23  0  0  0  0  0  0  0  0999 V2000
   30.3789   -1.5339  106.2231 N   0  0  0  0  0  0  0  0  0  0  0  0
   28.0211   -1.9568  103.7794 C   0  0  1  0  0  0  0  0  0  0  0  0
   28.5796   -2.4685  105.0394 O   0  0  0  0  0  0  0  0  0  0  0  0
   29.5066   -4.2739  101.1352 P   0  0  2  0  0  0  0  0  0  0  0  0
   29.0637   -1.3207  105.7972 C   0  0  2  0  0  0  0  0  0  0  0  0
   32.5602   -1.3732  106.3903 N   0  0  0  0  0  0  0  0  0  0  0  0
   28.6516    1.0277  105.6178 O   0  0  0  0  0  0  0  0  0  0  0  0
   29.0009   -0.1586  104.8892 C   0  0  2  0  0  0  0  0  0  0  0  0
   33.1516   -4.4265  108.1141 N   0  0  0  0  0  0  0  0  0  0  0  0
   26.6693   -0.1047  104.4375 O   0  0  0  0  0  0  0  0  0  0  0  0
   27.9580   -0.4949  103.9138 C   0  0  2  0  0  0  0  0  0  0  0  0
   32.1456   -2.2813  107.2949 C   0  0  0  0  0  0  0  0  0  0  0  0
   29.9247   -3.2428  107.9723 N   0  0  0  0  0  0  0  0  0  0  0  0
   28.8071   -3.6892  102.4052 O   0  0  0  0  0  0  0  0  0  0  0  0
   28.9118   -2.3199  102.6501 C   0  0  0  0  0  0  0  0  0  0  0  0
   31.0781   -4.0854  101.2488 O   0  0  0  0  0  0  0  0  0  0  0  0
   31.4612   -0.9230  105.7395 C   0  0  0  0  0  0  0  0  0  0  0  0
   33.6332   -2.4412  109.1215 O   0  0  0  0  0  0  0  0  0  0  0  0
   33.0273   -3.0402  108.2366 C   0  0  0  0  0  0  0  0  0  0  0  0
   30.7662   -2.3954  107.1999 C   0  0  0  0  0  0  0  0  0  0  0  0
   28.9815   -3.6528   99.8984 O   0  5  0  0  0  0  0  0  0  0  0  0
   29.1547   -5.7056  100.9337 O   0  0  0  0  0  0  0  0  0  0  0  0
  1 17  1  0  0  0  0
  1 20  1  0  0  0  0
  2 15  1  6  0  0  0
  2  3  1  0  0  0  0
  2 11  1  0  0  0  0
  3  5  1  0  0  0  0
  4 16  1  1  0  0  0
  4 21  1  0  0  0  0
  4 22  2  0  0  0  0
  4 14  1  0  0  0  0
  5  1  1  6  0  0  0
  5  8  1  0  0  0  0
  6 17  2  0  0  0  0
  6 12  1  0  0  0  0
  8  7  1  1  0  0  0
  8 11  1  0  0  0  0
  9 19  1  0  0  0  0
 11 10  1  1  0  0  0
 12 20  2  0  0  0  0
 12 19  1  0  0  0  0
 13 20  1  0  0  0  0
 14 15  1  0  0  0  0
 18 19  2  0  0  0  0
M  CHG  1  21  -1
M  END
>  <CHROM.1>
108.17457641,72.02771121,63.74479309,171.84759160,-114.42848764,29.98156612
-2.44853079,104.60223411,0.99201653,-0.70517716,0.95114400

>  <Name>
ligand

>  <RI>
0

>  <Rbt.Current_Directory>
/home/itssahil/PROJECTS/Mol_Feturizer/New_Systems/rnas/4XW7

>  <Rbt.Executable>
rbdock ($Id: //depot/dev/client3/rdock/2013.1/src/exe/rbdock.cxx#4 $)

>  <Rbt.Library>
libRbt.so (2013.1, Build901 2013/11/27)

>  <Rbt.Parameter_File>
/export/apps/rDock/src/rDock_2013.1_src/data/scripts/dock_solv.prm

>  <Rbt.Receptor>
prm/pocket_docking_5.prm

>  <SCORE>
-10.8109

>  <SCORE.INTER>
-11.1763

>  <SCORE.INTER.CONST>
1

>  <SCORE.INTER.POLAR>
0

>  <SCORE.INTER.ROT>
5

>  <SCORE.INTER.SOLV>
13.3786

>  <SCORE.INTER.VDW>
-18.8437

>  <SCORE.INTER.norm>
-0.508012

>  <SCORE.INTRA>
0.36541

>  <SCORE.INTRA.DIHEDRAL>
-0.240078

>  <SCORE.INTRA.DIHEDRAL.0>
2.61549

>  <SCORE.INTRA.POLAR>
0

>  <SCORE.INTRA.POLAR.0>
0

>  <SCORE.INTRA.REPUL>
0

>  <SCORE.INTRA.REPUL.0>
0

>  <SCORE.INTRA.SOLV>
-0.558626

>  <SCORE.INTRA.SOLV.lig_0>
-73.766

>  <SCORE.INTRA.VDW>
0.764762

>  <SCORE.INTRA.VDW.0>
-1.95055

>  <SCORE.INTRA.norm>
0.0166095

>  <SCORE.RESTR>
0

>  <SCORE.RESTR.CAVITY>
0

>  <SCORE.RESTR.norm>
0

>  <SCORE.SYSTEM>
0

>  <SCORE.SYSTEM.CONST>
0

>  <SCORE.SYSTEM.DIHEDRAL>
0

>  <SCORE.SYSTEM.SOLV>
0

>  <SCORE.SYSTEM.norm>
0

>  <SCORE.heavy>
22

>  <SCORE.norm>
-0.491403

>  <RMSD>
5.286

$$$$
ligand
 OpenBabel11021811513D
libRbt.so/2013.1/901 2013/11/27
 22 23  0  0  0  0  0  0  0  0999 V2000
   31.1319   -2.3104  107.4333 N   0  0  0  0  0  0  0  0  0  0  0  0
   28.6940   -1.1430  105.3348 C   0  0  1  0  0  0  0  0  0  0  0  0
   29.1993   -2.2919  106.1004 O   0  0  0  0  0  0  0  0  0  0  0  0
   27.9621   -2.4317  102.7191 P   0  0  2  0  0  0  0  0  0  0  0  0
   29.8514   -1.7653  107.2935 C   0  0  2  0  0  0  0  0  0  0  0  0
   33.2863   -2.6427  107.1882 N   0  0  0  0  0  0  0  0  0  0  0  0
   29.7650    0.3633  108.3792 O   0  0  0  0  0  0  0  0  0  0  0  0
   29.9334   -0.3018  107.1185 C   0  0  2  0  0  0  0  0  0  0  0  0
   33.1122   -5.8768  108.9723 N   0  0  0  0  0  0  0  0  0  0  0  0
   27.6239    0.2323  106.9639 O   0  0  0  0  0  0  0  0  0  0  0  0
   28.8363    0.0332  106.2040 C   0  0  2  0  0  0  0  0  0  0  0  0
   32.8275   -3.5574  108.0645 C   0  0  0  0  0  0  0  0  0  0  0  0
   30.5887   -4.1075  109.0648 N   0  0  0  0  0  0  0  0  0  0  0  0
   29.3737   -2.0910  103.2985 O   0  0  0  0  0  0  0  0  0  0  0  0
   29.5052   -0.9613  104.1061 C   0  0  0  0  0  0  0  0  0  0  0  0
   27.0297   -3.0033  103.8688 O   0  0  0  0  0  0  0  0  0  0  0  0
   32.2307   -1.8835  106.8097 C   0  0  0  0  0  0  0  0  0  0  0  0
   34.7983   -4.3503  109.0952 O   0  0  0  0  0  0  0  0  0  0  0  0
   33.6513   -4.6090  108.7395 C   0  0  0  0  0  0  0  0  0  0  0  0
   31.4640   -3.3607  108.2288 C   0  0  0  0  0  0  0  0  0  0  0  0
   28.0604   -3.3819  101.5883 O   0  5  0  0  0  0  0  0  0  0  0  0
   27.3420   -1.2448  102.0705 O   0  0  0  0  0  0  0  0  0  0  0  0
  1 17  1  0  0  0  0
  1 20  1  0  0  0  0
  2 15  1  6  0  0  0
  2  3  1  0  0  0  0
  2 11  1  0  0  0  0
  3  5  1  0  0  0  0
  4 16  1  1  0  0  0
  4 21  1  0  0  0  0
  4 22  2  0  0  0  0
  4 14  1  0  0  0  0
  5  1  1  6  0  0  0
  5  8  1  0  0  0  0
  6 17  2  0  0  0  0
  6 12  1  0  0  0  0
  8  7  1  1  0  0  0
  8 11  1  0  0  0  0
  9 19  1  0  0  0  0
 11 10  1  1  0  0  0
 12 20  2  0  0  0  0
 12 19  1  0  0  0  0
 13 20  1  0  0  0  0
 14 15  1  0  0  0  0
 18 19  2  0  0  0  0
M  CHG  1  21  -1
M  END
>  <CHROM.1>
82.23963426,62.48209442,-73.51980687,63.54187152,-143.31650407,30.06676225
-2.28696023,106.01983202,0.39413204,-0.77601140,0.88022562

>  <Name>
ligand

>  <RI>
0

>  <Rbt.Current_Directory>
/home/itssahil/PROJECTS/Mol_Feturizer/New_Systems/rnas/4XW7

>  <Rbt.Executable>
rbdock ($Id: //depot/dev/client3/rdock/2013.1/src/exe/rbdock.cxx#4 $)

>  <Rbt.Library>
libRbt.so (2013.1, Build901 2013/11/27)

>  <Rbt.Parameter_File>
/export/apps/rDock/src/rDock_2013.1_src/data/scripts/dock_solv.prm

>  <Rbt.Receptor>
prm/pocket_docking_5.prm

>  <SCORE>
-8.39204

>  <SCORE.INTER>
-9.11

>  <SCORE.INTER.CONST>
1

>  <SCORE.INTER.POLAR>
0

>  <SCORE.INTER.ROT>
5

>  <SCORE.INTER.SOLV>
13.0156

>  <SCORE.INTER.VDW>
-17.3452

>  <SCORE.INTER.norm>
-0.414091

>  <SCORE.INTRA>
0.717962

>  <SCORE.INTRA.DIHEDRAL>
-0.218386

>  <SCORE.INTRA.DIHEDRAL.0>
2.61549

>  <SCORE.INTRA.POLAR>
0

>  <SCORE.INTRA.POLAR.0>
0

>  <SCORE.INTRA.REPUL>
0

>  <SCORE.INTRA.REPUL.0>
0

>  <SCORE.INTRA.SOLV>
0.761225

>  <SCORE.INTRA.SOLV.lig_0>
-73.766

>  <SCORE.INTRA.VDW>
0.446542

>  <SCORE.INTRA.VDW.0>
-1.95055

>  <SCORE.INTRA.norm>
0.0326346

>  <SCORE.RESTR>
0

>  <SCORE.RESTR.CAVITY>
0

>  <SCORE.RESTR.norm>
0

>  <SCORE.SYSTEM>
0

>  <SCORE.SYSTEM.CONST>
0

>  <SCORE.SYSTEM.DIHEDRAL>
0

>  <SCORE.SYSTEM.SOLV>
0

>  <SCORE.SYSTEM.norm>
0

>  <SCORE.heavy>
22

>  <SCORE.norm>
-0.381456

>  <RMSD>
5.299

$$$$
ligand
 OpenBabel11021811513D
libRbt.so/2013.1/901 2013/11/27
 22 23  0  0  0  0  0  0  0  0999 V2000
   30.9772   -2.2264  107.2331 N   0  0  0  0  0  0  0  0  0  0  0  0
   28.6137   -1.2426  104.9625 C   0  0  1  0  0  0  0  0  0  0  0  0
   29.0828   -2.3172  105.8493 O   0  0  0  0  0  0  0  0  0  0  0  0
   27.9126   -2.5312  102.2408 P   0  0  2  0  0  0  0  0  0  0  0  0
   29.7081   -1.6845  107.0046 C   0  0  2  0  0  0  0  0  0  0  0  0
   33.1498   -2.5238  107.1773 N   0  0  0  0  0  0  0  0  0  0  0  0
   29.6187    0.5396  107.8777 O   0  0  0  0  0  0  0  0  0  0  0  0
   29.8137   -0.2457  106.6922 C   0  0  2  0  0  0  0  0  0  0  0  0
   34.7063   -4.3505  109.0475 N   0  0  0  0  0  0  0  0  0  0  0  0
   27.5163    0.2941  106.4202 O   0  0  0  0  0  0  0  0  0  0  0  0
   28.7468    0.0106  105.7184 C   0  0  2  0  0  0  0  0  0  0  0  0
   32.6226   -3.4966  107.9459 C   0  0  0  0  0  0  0  0  0  0  0  0
   30.3064   -4.1287  108.6884 N   0  0  0  0  0  0  0  0  0  0  0  0
   29.2673   -2.3509  103.0000 O   0  0  0  0  0  0  0  0  0  0  0  0
   29.4610   -1.1883  103.7460 C   0  0  0  0  0  0  0  0  0  0  0  0
   27.6717   -1.3025  101.2660 O   0  0  0  0  0  0  0  0  0  0  0  0
   32.1244   -1.7511  106.7468 C   0  0  0  0  0  0  0  0  0  0  0  0
   32.8701   -5.6781  108.8147 O   0  0  0  0  0  0  0  0  0  0  0  0
   33.3932   -4.5821  108.6301 C   0  0  0  0  0  0  0  0  0  0  0  0
   31.2469   -3.3226  107.9895 C   0  0  0  0  0  0  0  0  0  0  0  0
   26.7845   -2.6934  103.1855 O   0  5  0  0  0  0  0  0  0  0  0  0
   27.8767   -3.8183  101.4950 O   0  0  0  0  0  0  0  0  0  0  0  0
  1 17  1  0  0  0  0
  1 20  1  0  0  0  0
  2 15  1  6  0  0  0
  2  3  1  0  0  0  0
  2 11  1  0  0  0  0
  3  5  1  0  0  0  0
  4 16  1  6  0  0  0
  4 21  1  0  0  0  0
  4 22  2  0  0  0  0
  4 14  1  0  0  0  0
  5  1  1  6  0  0  0
  5  8  1  0  0  0  0
  6 17  2  0  0  0  0
  6 12  1  0  0  0  0
  8  7  1  1  0  0  0
  8 11  1  0  0  0  0
  9 19  1  0  0  0  0
 11 10  1  1  0  0  0
 12 20  2  0  0  0  0
 12 19  1  0  0  0  0
 13 20  1  0  0  0  0
 14 15  1  0  0  0  0
 18 19  2  0  0  0  0
M  CHG  1  21  -1
M  END
>  <CHROM.1>
92.28788098,66.53009005,56.37147234,71.93609772,30.10284630,29.93611369,-2.29909227
105.68807282,0.39251957,-0.82111883,0.81123300

>  <Name>
ligand

>  <RI>
0

>  <Rbt.Current_Directory>
/home/itssahil/PROJECTS/Mol_Feturizer/New_Systems/rnas/4XW7

>  <Rbt.Executable>
rbdock ($Id: //depot/dev/client3/rdock/2013.1/src/exe/rbdock.cxx#4 $)

>  <Rbt.Library>
libRbt.so (2013.1, Build901 2013/11/27)

>  <Rbt.Parameter_File>
/export/apps/rDock/src/rDock_2013.1_src/data/scripts/dock_solv.prm

>  <Rbt.Receptor>
prm/pocket_docking_5.prm

>  <SCORE>
-8.17097

>  <SCORE.INTER>
-9.60787

>  <SCORE.INTER.CONST>
1

>  <SCORE.INTER.POLAR>
0

>  <SCORE.INTER.ROT>
5

>  <SCORE.INTER.SOLV>
12.5863

>  <SCORE.INTER.VDW>
-17.534

>  <SCORE.INTER.norm>
-0.436721

>  <SCORE.INTRA>
1.4369

>  <SCORE.INTRA.DIHEDRAL>
0.56165

>  <SCORE.INTRA.DIHEDRAL.0>
2.61549

>  <SCORE.INTRA.POLAR>
0

>  <SCORE.INTRA.POLAR.0>
0

>  <SCORE.INTRA.REPUL>
0

>  <SCORE.INTRA.REPUL.0>
0

>  <SCORE.INTRA.SOLV>
1.27597

>  <SCORE.INTRA.SOLV.lig_0>
-73.766

>  <SCORE.INTRA.VDW>
0.518091

>  <SCORE.INTRA.VDW.0>
-1.95055

>  <SCORE.INTRA.norm>
0.0653138

>  <SCORE.RESTR>
0

>  <SCORE.RESTR.CAVITY>
0

>  <SCORE.RESTR.norm>
0

>  <SCORE.SYSTEM>
0

>  <SCORE.SYSTEM.CONST>
0

>  <SCORE.SYSTEM.DIHEDRAL>
0

>  <SCORE.SYSTEM.SOLV>
0

>  <SCORE.SYSTEM.norm>
0

>  <SCORE.heavy>
22

>  <SCORE.norm>
-0.371408

>  <RMSD>
5.300

$$$$
ligand
 OpenBabel11021811513D
libRbt.so/2013.1/901 2013/11/27
 22 23  0  0  0  0  0  0  0  0999 V2000
   30.2773   -1.7866  106.2990 N   0  0  0  0  0  0  0  0  0  0  0  0
   27.9727   -1.9022  103.7720 C   0  0  1  0  0  0  0  0  0  0  0  0
   28.4499   -2.5176  105.0190 O   0  0  0  0  0  0  0  0  0  0  0  0
   29.3726   -4.2290  101.0994 P   0  0  2  0  0  0  0  0  0  0  0  0
   28.9967   -1.4500  105.8481 C   0  0  2  0  0  0  0  0  0  0  0  0
   32.4378   -1.7032  106.6692 N   0  0  0  0  0  0  0  0  0  0  0  0
   28.7726    0.9295  105.7785 O   0  0  0  0  0  0  0  0  0  0  0  0
   29.0525   -0.2433  104.9998 C   0  0  2  0  0  0  0  0  0  0  0  0
   34.0956   -3.5157  108.3778 N   0  0  0  0  0  0  0  0  0  0  0  0
   26.7475    0.0157  104.4868 O   0  0  0  0  0  0  0  0  0  0  0  0
   28.0182   -0.4482  103.9797 C   0  0  2  0  0  0  0  0  0  0  0  0
   31.9636   -2.8180  107.2586 C   0  0  0  0  0  0  0  0  0  0  0  0
   29.7065   -3.9009  107.4779 N   0  0  0  0  0  0  0  0  0  0  0  0
   28.7556   -3.6481  102.4132 O   0  0  0  0  0  0  0  0  0  0  0  0
   28.8683   -2.2782  102.6508 C   0  0  0  0  0  0  0  0  0  0  0  0
   28.7971   -3.4510   99.8420 O   0  0  0  0  0  0  0  0  0  0  0  0
   31.3878   -1.0802  106.0835 C   0  0  0  0  0  0  0  0  0  0  0  0
   32.2860   -4.8981  108.3284 O   0  0  0  0  0  0  0  0  0  0  0  0
   32.7778   -3.8147  108.0229 C   0  0  0  0  0  0  0  0  0  0  0  0
   30.5967   -2.8856  107.0314 C   0  0  0  0  0  0  0  0  0  0  0  0
   29.1252   -5.6842  100.9871 O   0  5  0  0  0  0  0  0  0  0  0  0
   30.8592   -4.1712  101.1275 O   0  0  0  0  0  0  0  0  0  0  0  0
  1 17  1  0  0  0  0
  1 20  1  0  0  0  0
  2 15  1  6  0  0  0
  2  3  1  0  0  0  0
  2 11  1  0  0  0  0
  3  5  1  0  0  0  0
  4 16  1  6  0  0  0
  4 21  1  0  0  0  0
  4 22  2  0  0  0  0
  4 14  1  0  0  0  0
  5  1  1  6  0  0  0
  5  8  1  0  0  0  0
  6 17  2  0  0  0  0
  6 12  1  0  0  0  0
  8  7  1  1  0  0  0
  8 11  1  0  0  0  0
  9 19  1  0  0  0  0
 11 10  1  1  0  0  0
 12 20  2  0  0  0  0
 12 19  1  0  0  0  0
 13 20  1  0  0  0  0
 14 15  1  0  0  0  0
 18 19  2  0  0  0  0
M  CHG  1  21  -1
M  END
>  <CHROM.1>
122.06036945,66.66809492,-54.55883674,167.58363532,11.43567517,29.87806306
-2.64456887,104.57516764,0.91403974,-0.79175708,0.95839755

>  <Name>
ligand

>  <RI>
0

>  <Rbt.Current_Directory>
/home/itssahil/PROJECTS/Mol_Feturizer/New_Systems/rnas/4XW7

>  <Rbt.Executable>
rbdock ($Id: //depot/dev/client3/rdock/2013.1/src/exe/rbdock.cxx#4 $)

>  <Rbt.Library>
libRbt.so (2013.1, Build901 2013/11/27)

>  <Rbt.Parameter_File>
/export/apps/rDock/src/rDock_2013.1_src/data/scripts/dock_solv.prm

>  <Rbt.Receptor>
prm/pocket_docking_5.prm

>  <SCORE>
-9.23331

>  <SCORE.INTER>
-9.92513

>  <SCORE.INTER.CONST>
1

>  <SCORE.INTER.POLAR>
0

>  <SCORE.INTER.ROT>
5

>  <SCORE.INTER.SOLV>
18.4305

>  <SCORE.INTER.VDW>
-19.6936

>  <SCORE.INTER.norm>
-0.451142

>  <SCORE.INTRA>
0.691614

>  <SCORE.INTRA.DIHEDRAL>
-0.0464439

>  <SCORE.INTRA.DIHEDRAL.0>
2.61549

>  <SCORE.INTRA.POLAR>
0

>  <SCORE.INTRA.POLAR.0>
0

>  <SCORE.INTRA.REPUL>
0

>  <SCORE.INTRA.REPUL.0>
0

>  <SCORE.INTRA.SOLV>
-0.407785

>  <SCORE.INTRA.SOLV.lig_0>
-73.766

>  <SCORE.INTRA.VDW>
0.918729

>  <SCORE.INTRA.VDW.0>
-1.95055

>  <SCORE.INTRA.norm>
0.031437

>  <SCORE.RESTR>
0.000201881

>  <SCORE.RESTR.CAVITY>
0.000201881

>  <SCORE.RESTR.norm>
9.17642e-06

>  <SCORE.SYSTEM>
0

>  <SCORE.SYSTEM.CONST>
0

>  <SCORE.SYSTEM.DIHEDRAL>
0

>  <SCORE.SYSTEM.SOLV>
0

>  <SCORE.SYSTEM.norm>
0

>  <SCORE.heavy>
22

>  <SCORE.norm>
-0.419696

>  <RMSD>
5.301

$$$$
ligand
 OpenBabel11021811513D
libRbt.so/2013.1/901 2013/11/27
 22 23  0  0  0  0  0  0  0  0999 V2000
   30.3294   -1.5842  106.2243 N   0  0  0  0  0  0  0  0  0  0  0  0
   27.9903   -1.8949  103.7459 C   0  0  1  0  0  0  0  0  0  0  0  0
   28.5177   -2.4442  105.0034 O   0  0  0  0  0  0  0  0  0  0  0  0
   29.4816   -4.2356  101.1284 P   0  0  2  0  0  0  0  0  0  0  0  0
   29.0265   -1.3244  105.7865 C   0  0  2  0  0  0  0  0  0  0  0  0
   32.5062   -1.4536  106.4606 N   0  0  0  0  0  0  0  0  0  0  0  0
   28.6869    1.0380  105.6425 O   0  0  0  0  0  0  0  0  0  0  0  0
   29.0097   -0.1458  104.8978 C   0  0  2  0  0  0  0  0  0  0  0  0
   32.4948   -3.5841  109.4552 N   0  0  0  0  0  0  0  0  0  0  0  0
   26.6865   -0.0143  104.4196 O   0  0  0  0  0  0  0  0  0  0  0  0
   27.9693   -0.4342  103.9046 C   0  0  2  0  0  0  0  0  0  0  0  0
   32.0646   -2.4379  107.2675 C   0  0  0  0  0  0  0  0  0  0  0  0
   29.8230   -3.4429  107.7976 N   0  0  0  0  0  0  0  0  0  0  0  0
   28.8023   -3.6412  102.4049 O   0  0  0  0  0  0  0  0  0  0  0  0
   28.8837   -2.2656  102.6212 C   0  0  0  0  0  0  0  0  0  0  0  0
   31.0526   -4.0262  101.2052 O   0  0  0  0  0  0  0  0  0  0  0  0
   31.4263   -0.9387  105.8262 C   0  0  0  0  0  0  0  0  0  0  0  0
   33.9959   -3.7092  107.7466 O   0  0  0  0  0  0  0  0  0  0  0  0
   32.9186   -3.2855  108.1578 C   0  0  0  0  0  0  0  0  0  0  0  0
   30.6877   -2.5339  107.1276 C   0  0  0  0  0  0  0  0  0  0  0  0
   28.9222   -3.6389   99.8946 O   0  5  0  0  0  0  0  0  0  0  0  0
   29.1434   -5.6743  100.9549 O   0  0  0  0  0  0  0  0  0  0  0  0
  1 17  1  0  0  0  0
  1 20  1  0  0  0  0
  2 15  1  6  0  0  0
  2  3  1  0  0  0  0
  2 11  1  0  0  0  0
  3  5  1  0  0  0  0
  4 16  1  1  0  0  0
  4 21  1  0  0  0  0
  4 22  2  0  0  0  0
  4 14  1  0  0  0  0
  5  1  1  6  0  0  0
  5  8  1  0  0  0  0
  6 17  2  0  0  0  0
  6 12  1  0  0  0  0
  8  7  1  1  0  0  0
  8 11  1  0  0  0  0
  9 19  1  0  0  0  0
 11 10  1  1  0  0  0
 12 20  2  0  0  0  0
 12 19  1  0  0  0  0
 13 20  1  0  0  0  0
 14 15  1  0  0  0  0
 18 19  2  0  0  0  0
M  CHG  1  21  -1
M  END
>  <CHROM.1>
112.74413467,68.44241941,64.37150136,170.54344535,137.67252152,29.94064677
-2.48407908,104.57836252,0.98630158,-0.72395906,0.98194201

>  <Name>
ligand

>  <RI>
0

>  <Rbt.Current_Directory>
/home/itssahil/PROJECTS/Mol_Feturizer/New_Systems/rnas/4XW7

>  <Rbt.Executable>
rbdock ($Id: //depot/dev/client3/rdock/2013.1/src/exe/rbdock.cxx#4 $)

>  <Rbt.Library>
libRbt.so (2013.1, Build901 2013/11/27)

>  <Rbt.Parameter_File>
/export/apps/rDock/src/rDock_2013.1_src/data/scripts/dock_solv.prm

>  <Rbt.Receptor>
prm/pocket_docking_5.prm

>  <SCORE>
-10.9882

>  <SCORE.INTER>
-11.6008

>  <SCORE.INTER.CONST>
1

>  <SCORE.INTER.POLAR>
0

>  <SCORE.INTER.ROT>
5

>  <SCORE.INTER.SOLV>
12.8718

>  <SCORE.INTER.VDW>
-18.9578

>  <SCORE.INTER.norm>
-0.527311

>  <SCORE.INTRA>
0.607481

>  <SCORE.INTRA.DIHEDRAL>
-0.0815117

>  <SCORE.INTRA.DIHEDRAL.0>
2.61549

>  <SCORE.INTRA.POLAR>
0

>  <SCORE.INTRA.POLAR.0>
0

>  <SCORE.INTRA.REPUL>
0

>  <SCORE.INTRA.REPUL.0>
0

>  <SCORE.INTRA.SOLV>
-0.335821

>  <SCORE.INTRA.SOLV.lig_0>
-73.766

>  <SCORE.INTRA.VDW>
0.816147

>  <SCORE.INTRA.VDW.0>
-1.95055

>  <SCORE.INTRA.norm>
0.0276128

>  <SCORE.RESTR>
0.00514162

>  <SCORE.RESTR.CAVITY>
0.00514162

>  <SCORE.RESTR.norm>
0.00023371

>  <SCORE.SYSTEM>
0

>  <SCORE.SYSTEM.CONST>
0

>  <SCORE.SYSTEM.DIHEDRAL>
0

>  <SCORE.SYSTEM.SOLV>
0

>  <SCORE.SYSTEM.norm>
0

>  <SCORE.heavy>
22

>  <SCORE.norm>
-0.499465

>  <RMSD>
5.313

$$$$
ligand
 OpenBabel11021811513D
libRbt.so/2013.1/901 2013/11/27
 22 23  0  0  0  0  0  0  0  0999 V2000
   30.3199   -1.4167  106.1071 N   0  0  0  0  0  0  0  0  0  0  0  0
   27.7147   -2.2771  104.0620 C   0  0  1  0  0  0  0  0  0  0  0  0
   28.3870   -2.5121  105.3482 O   0  0  0  0  0  0  0  0  0  0  0  0
   28.2986   -3.5141  100.5008 P   0  0  2  0  0  0  0  0  0  0  0  0
   28.9735   -1.2452  105.7690 C   0  0  2  0  0  0  0  0  0  0  0  0
   32.5038   -1.2113  106.1084 N   0  0  0  0  0  0  0  0  0  0  0  0
   28.6014    1.0163  105.0876 O   0  0  0  0  0  0  0  0  0  0  0  0
   28.8458   -0.3205  104.6255 C   0  0  2  0  0  0  0  0  0  0  0  0
   33.1321   -2.5117  109.3560 N   0  0  0  0  0  0  0  0  0  0  0  0
   26.4821   -0.2621  104.3953 O   0  0  0  0  0  0  0  0  0  0  0  0
   27.7006   -0.8220  103.8578 C   0  0  2  0  0  0  0  0  0  0  0  0
   32.1737   -2.0853  107.0790 C   0  0  0  0  0  0  0  0  0  0  0  0
   30.0272   -3.0537  107.9567 N   0  0  0  0  0  0  0  0  0  0  0  0
   27.8088   -2.7296  101.7613 O   0  0  0  0  0  0  0  0  0  0  0  0
   28.4761   -2.9308  102.9696 C   0  0  0  0  0  0  0  0  0  0  0  0
   29.8456   -3.8408  100.6349 O   0  0  0  0  0  0  0  0  0  0  0  0
   31.3521   -0.8094  105.5204 C   0  0  0  0  0  0  0  0  0  0  0  0
   33.9338   -3.5961  107.5204 O   0  0  0  0  0  0  0  0  0  0  0  0
   33.1361   -2.7864  107.9861 C   0  0  0  0  0  0  0  0  0  0  0  0
   30.7937   -2.2271  107.0894 C   0  0  0  0  0  0  0  0  0  0  0  0
   28.0166   -2.7628   99.2569 O   0  5  0  0  0  0  0  0  0  0  0  0
   27.5071   -4.7573  100.2952 O   0  0  0  0  0  0  0  0  0  0  0  0
  1 17  1  0  0  0  0
  1 20  1  0  0  0  0
  2 15  1  6  0  0  0
  2  3  1  0  0  0  0
  2 11  1  0  0  0  0
  3  5  1  0  0  0  0
  4 16  1  1  0  0  0
  4 21  1  0  0  0  0
  4 22  2  0  0  0  0
  4 14  1  0  0  0  0
  5  1  1  6  0  0  0
  5  8  1  0  0  0  0
  6 17  2  0  0  0  0
  6 12  1  0  0  0  0
  8  7  1  1  0  0  0
  8 11  1  0  0  0  0
  9 19  1  0  0  0  0
 11 10  1  1  0  0  0
 12 20  2  0  0  0  0
 12 19  1  0  0  0  0
 13 20  1  0  0  0  0
 14 15  1  0  0  0  0
 18 19  2  0  0  0  0
M  CHG  1  21  -1
M  END
>  <CHROM.1>
119.58596586,178.46019268,-27.78627362,-170.51976660,114.15996502,29.57624581
-2.22254210,104.34575617,0.88023694,-0.60628880,0.99609398

>  <Name>
ligand

>  <RI>
0

>  <Rbt.Current_Directory>
/home/itssahil/PROJECTS/Mol_Feturizer/New_Systems/rnas/4XW7

>  <Rbt.Executable>
rbdock ($Id: //depot/dev/client3/rdock/2013.1/src/exe/rbdock.cxx#4 $)

>  <Rbt.Library>
libRbt.so (2013.1, Build901 2013/11/27)

>  <Rbt.Parameter_File>
/export/apps/rDock/src/rDock_2013.1_src/data/scripts/dock_solv.prm

>  <Rbt.Receptor>
prm/pocket_docking_6.prm

>  <SCORE>
-7.57531

>  <SCORE.INTER>
-8.92905

>  <SCORE.INTER.CONST>
1

>  <SCORE.INTER.POLAR>
0

>  <SCORE.INTER.ROT>
5

>  <SCORE.INTER.SOLV>
10.7504

>  <SCORE.INTER.VDW>
-16.4695

>  <SCORE.INTER.norm>
-0.405866

>  <SCORE.INTRA>
1.35374

>  <SCORE.INTRA.DIHEDRAL>
0.661812

>  <SCORE.INTRA.DIHEDRAL.0>
2.61549

>  <SCORE.INTRA.POLAR>
0

>  <SCORE.INTRA.POLAR.0>
0

>  <SCORE.INTRA.REPUL>
0

>  <SCORE.INTRA.REPUL.0>
0

>  <SCORE.INTRA.SOLV>
-0.473624

>  <SCORE.INTRA.SOLV.lig_0>
-73.766

>  <SCORE.INTRA.VDW>
1.25964

>  <SCORE.INTRA.VDW.0>
-1.95055

>  <SCORE.INTRA.norm>
0.0615335

>  <SCORE.RESTR>
0

>  <SCORE.RESTR.CAVITY>
0

>  <SCORE.RESTR.norm>
0

>  <SCORE.SYSTEM>
0

>  <SCORE.SYSTEM.CONST>
0

>  <SCORE.SYSTEM.DIHEDRAL>
0

>  <SCORE.SYSTEM.SOLV>
0

>  <SCORE.SYSTEM.norm>
0

>  <SCORE.heavy>
22

>  <SCORE.norm>
-0.344332

>  <RMSD>
5.315

$$$$
ligand
 OpenBabel11021811513D
libRbt.so/2013.1/901 2013/11/27
 22 23  0  0  0  0  0  0  0  0999 V2000
   30.2681   -1.7922  106.3152 N   0  0  0  0  0  0  0  0  0  0  0  0
   28.0007   -1.8984  103.7544 C   0  0  1  0  0  0  0  0  0  0  0  0
   28.4633   -2.5220  105.0028 O   0  0  0  0  0  0  0  0  0  0  0  0
   29.4820   -4.2194  101.1250 P   0  0  2  0  0  0  0  0  0  0  0  0
   28.9922   -1.4587  105.8489 C   0  0  2  0  0  0  0  0  0  0  0  0
   32.4278   -1.7164  106.6915 N   0  0  0  0  0  0  0  0  0  0  0  0
   28.7560    0.9201  105.7965 O   0  0  0  0  0  0  0  0  0  0  0  0
   29.0535   -0.2444  105.0118 C   0  0  2  0  0  0  0  0  0  0  0  0
   34.0949   -3.5403  108.3676 N   0  0  0  0  0  0  0  0  0  0  0  0
   26.7547    0.0066  104.4678 O   0  0  0  0  0  0  0  0  0  0  0  0
   28.0352   -0.4460  103.9752 C   0  0  2  0  0  0  0  0  0  0  0  0
   31.9414   -2.8080  107.3134 C   0  0  0  0  0  0  0  0  0  0  0  0
   29.6739   -3.8637  107.5572 N   0  0  0  0  0  0  0  0  0  0  0  0
   28.8660   -3.6389  102.4394 O   0  0  0  0  0  0  0  0  0  0  0  0
   28.9144   -2.2598  102.6430 C   0  0  0  0  0  0  0  0  0  0  0  0
   28.8610   -3.4812   99.8651 O   0  0  0  0  0  0  0  0  0  0  0  0
   31.3856   -1.1027  106.0824 C   0  0  0  0  0  0  0  0  0  0  0  0
   32.2122   -4.8118  108.5328 O   0  0  0  0  0  0  0  0  0  0  0  0
   32.7437   -3.7874  108.1118 C   0  0  0  0  0  0  0  0  0  0  0  0
   30.5748   -2.8706  107.0829 C   0  0  0  0  0  0  0  0  0  0  0  0
   29.2825   -5.6836  101.0389 O   0  5  0  0  0  0  0  0  0  0  0  0
   30.9661   -4.1109  101.1284 O   0  0  0  0  0  0  0  0  0  0  0  0
  1 17  1  0  0  0  0
  1 20  1  0  0  0  0
  2 15  1  6  0  0  0
  2  3  1  0  0  0  0
  2 11  1  0  0  0  0
  3  5  1  0  0  0  0
  4 16  1  6  0  0  0
  4 21  1  0  0  0  0
  4 22  2  0  0  0  0
  4 14  1  0  0  0  0
  5  1  1  6  0  0  0
  5  8  1  0  0  0  0
  6 17  2  0  0  0  0
  6 12  1  0  0  0  0
  8  7  1  1  0  0  0
  8 11  1  0  0  0  0
  9 19  1  0  0  0  0
 11 10  1  1  0  0  0
 12 20  2  0  0  0  0
 12 19  1  0  0  0  0
 13 20  1  0  0  0  0
 14 15  1  0  0  0  0
 18 19  2  0  0  0  0
M  CHG  1  21  -1
M  END
>  <CHROM.1>
119.56172977,63.53022029,-53.42813471,166.19619099,6.09951936,29.90470533
-2.63717832,104.60259535,0.94417394,-0.79327352,0.98798174

>  <Name>
ligand

>  <RI>
0

>  <Rbt.Current_Directory>
/home/itssahil/PROJECTS/Mol_Feturizer/New_Systems/rnas/4XW7

>  <Rbt.Executable>
rbdock ($Id: //depot/dev/client3/rdock/2013.1/src/exe/rbdock.cxx#4 $)

>  <Rbt.Library>
libRbt.so (2013.1, Build901 2013/11/27)

>  <Rbt.Parameter_File>
/export/apps/rDock/src/rDock_2013.1_src/data/scripts/dock_solv.prm

>  <Rbt.Receptor>
prm/pocket_docking_5.prm

>  <SCORE>
-9.21992

>  <SCORE.INTER>
-9.91897

>  <SCORE.INTER.CONST>
1

>  <SCORE.INTER.POLAR>
0

>  <SCORE.INTER.ROT>
5

>  <SCORE.INTER.SOLV>
18.1499

>  <SCORE.INTER.VDW>
-19.5959

>  <SCORE.INTER.norm>
-0.450862

>  <SCORE.INTRA>
0.699053

>  <SCORE.INTRA.DIHEDRAL>
-0.0776284

>  <SCORE.INTRA.DIHEDRAL.0>
2.61549

>  <SCORE.INTRA.POLAR>
0

>  <SCORE.INTRA.POLAR.0>
0

>  <SCORE.INTRA.REPUL>
0

>  <SCORE.INTRA.REPUL.0>
0

>  <SCORE.INTRA.SOLV>
-0.473252

>  <SCORE.INTRA.SOLV.lig_0>
-73.766

>  <SCORE.INTRA.VDW>
0.974493

>  <SCORE.INTRA.VDW.0>
-1.95055

>  <SCORE.INTRA.norm>
0.0317751

>  <SCORE.RESTR>
0

>  <SCORE.RESTR.CAVITY>
0

>  <SCORE.RESTR.norm>
0

>  <SCORE.SYSTEM>
0

>  <SCORE.SYSTEM.CONST>
0

>  <SCORE.SYSTEM.DIHEDRAL>
0

>  <SCORE.SYSTEM.SOLV>
0

>  <SCORE.SYSTEM.norm>
0

>  <SCORE.heavy>
22

>  <SCORE.norm>
-0.419087

>  <RMSD>
5.317

$$$$
ligand
 OpenBabel11021811513D
libRbt.so/2013.1/901 2013/11/27
 22 23  0  0  0  0  0  0  0  0999 V2000
   30.2503   -1.3715  106.1265 N   0  0  0  0  0  0  0  0  0  0  0  0
   27.6517   -2.1960  104.0584 C   0  0  1  0  0  0  0  0  0  0  0  0
   28.3074   -2.4378  105.3518 O   0  0  0  0  0  0  0  0  0  0  0  0
   28.2319   -3.4187  100.5000 P   0  0  2  0  0  0  0  0  0  0  0  0
   28.9102   -1.1793  105.7746 C   0  0  2  0  0  0  0  0  0  0  0  0
   32.4362   -1.1912  106.1578 N   0  0  0  0  0  0  0  0  0  0  0  0
   28.5815    1.0858  105.0829 O   0  0  0  0  0  0  0  0  0  0  0  0
   28.8088   -0.2562  104.6272 C   0  0  2  0  0  0  0  0  0  0  0  0
   32.9224   -2.6480  109.4030 N   0  0  0  0  0  0  0  0  0  0  0  0
   26.4487   -0.1603  104.3734 O   0  0  0  0  0  0  0  0  0  0  0  0
   27.6632   -0.7415  103.8497 C   0  0  2  0  0  0  0  0  0  0  0  0
   32.0842   -2.0763  107.1106 C   0  0  0  0  0  0  0  0  0  0  0  0
   29.9161   -3.0333  107.9467 N   0  0  0  0  0  0  0  0  0  0  0  0
   27.8183   -2.5729  101.7481 O   0  0  0  0  0  0  0  0  0  0  0  0
   28.4131   -2.8653  102.9754 C   0  0  0  0  0  0  0  0  0  0  0  0
   29.7647   -3.8164  100.6006 O   0  0  0  0  0  0  0  0  0  0  0  0
   31.2965   -0.7671  105.5620 C   0  0  0  0  0  0  0  0  0  0  0  0
   33.8975   -3.5260  107.5411 O   0  0  0  0  0  0  0  0  0  0  0  0
   33.0272   -2.8023  108.0183 C   0  0  0  0  0  0  0  0  0  0  0  0
   30.7026   -2.2024  107.1018 C   0  0  0  0  0  0  0  0  0  0  0  0
   27.9492   -2.6929   99.2412 O   0  5  0  0  0  0  0  0  0  0  0  0
   27.3758   -4.6274  100.3569 O   0  0  0  0  0  0  0  0  0  0  0  0
  1 17  1  0  0  0  0
  1 20  1  0  0  0  0
  2 15  1  6  0  0  0
  2  3  1  0  0  0  0
  2 11  1  0  0  0  0
  3  5  1  0  0  0  0
  4 16  1  1  0  0  0
  4 21  1  0  0  0  0
  4 22  2  0  0  0  0
  4 14  1  0  0  0  0
  5  1  1  6  0  0  0
  5  8  1  0  0  0  0
  6 17  2  0  0  0  0
  6 12  1  0  0  0  0
  8  7  1  1  0  0  0
  8 11  1  0  0  0  0
  9 19  1  0  0  0  0
 11 10  1  1  0  0  0
 12 20  2  0  0  0  0
 12 19  1  0  0  0  0
 13 20  1  0  0  0  0
 14 15  1  0  0  0  0
 18 19  2  0  0  0  0
M  CHG  1  21  -1
M  END
>  <CHROM.1>
120.69234134,-177.08013309,-34.37095628,-166.09531885,120.42786077,29.50589117
-2.16533307,104.35437113,0.87545487,-0.62372456,0.99813632

>  <Name>
ligand

>  <RI>
0

>  <Rbt.Current_Directory>
/home/itssahil/PROJECTS/Mol_Feturizer/New_Systems/rnas/4XW7

>  <Rbt.Executable>
rbdock ($Id: //depot/dev/client3/rdock/2013.1/src/exe/rbdock.cxx#4 $)

>  <Rbt.Library>
libRbt.so (2013.1, Build901 2013/11/27)

>  <Rbt.Parameter_File>
/export/apps/rDock/src/rDock_2013.1_src/data/scripts/dock_solv.prm

>  <Rbt.Receptor>
prm/pocket_docking_6.prm

>  <SCORE>
-7.49532

>  <SCORE.INTER>
-8.93258

>  <SCORE.INTER.CONST>
1

>  <SCORE.INTER.POLAR>
0

>  <SCORE.INTER.ROT>
5

>  <SCORE.INTER.SOLV>
9.82186

>  <SCORE.INTER.VDW>
-16.1623

>  <SCORE.INTER.norm>
-0.406026

>  <SCORE.INTRA>
1.43726

>  <SCORE.INTRA.DIHEDRAL>
0.722876

>  <SCORE.INTRA.DIHEDRAL.0>
2.61549

>  <SCORE.INTRA.POLAR>
0

>  <SCORE.INTRA.POLAR.0>
0

>  <SCORE.INTRA.REPUL>
0

>  <SCORE.INTRA.REPUL.0>
0

>  <SCORE.INTRA.SOLV>
-0.33119

>  <SCORE.INTRA.SOLV.lig_0>
-73.766

>  <SCORE.INTRA.VDW>
1.24141

>  <SCORE.INTRA.VDW.0>
-1.95055

>  <SCORE.INTRA.norm>
0.0653298

>  <SCORE.RESTR>
0

>  <SCORE.RESTR.CAVITY>
0

>  <SCORE.RESTR.norm>
0

>  <SCORE.SYSTEM>
0

>  <SCORE.SYSTEM.CONST>
0

>  <SCORE.SYSTEM.DIHEDRAL>
0

>  <SCORE.SYSTEM.SOLV>
0

>  <SCORE.SYSTEM.norm>
0

>  <SCORE.heavy>
22

>  <SCORE.norm>
-0.340696

>  <RMSD>
5.327

$$$$
ligand
 OpenBabel11021811513D
libRbt.so/2013.1/901 2013/11/27
 22 23  0  0  0  0  0  0  0  0999 V2000
   30.6450   -4.4101  107.8475 N   0  0  0  0  0  0  0  0  0  0  0  0
   27.6540   -3.7739  106.3117 C   0  0  1  0  0  0  0  0  0  0  0  0
   28.8783   -4.5876  106.3115 O   0  0  0  0  0  0  0  0  0  0  0  0
   29.4650   -0.4159  106.1315 P   0  0  2  0  0  0  0  0  0  0  0  0
   29.2950   -4.7451  107.6999 C   0  0  2  0  0  0  0  0  0  0  0  0
   32.5606   -3.3626  107.6356 N   0  0  0  0  0  0  0  0  0  0  0  0
   28.1578   -4.4193  109.7778 O   0  0  0  0  0  0  0  0  0  0  0  0
   28.4507   -3.8358  108.4995 C   0  0  2  0  0  0  0  0  0  0  0  0
   34.5145   -6.0821  109.0671 N   0  0  0  0  0  0  0  0  0  0  0  0
   26.3028   -4.7339  108.0272 O   0  0  0  0  0  0  0  0  0  0  0  0
   27.2241   -3.6665  107.7128 C   0  0  2  0  0  0  0  0  0  0  0  0
   32.7520   -4.4019  108.4712 C   0  0  0  0  0  0  0  0  0  0  0  0
   31.3058   -6.2320  109.4065 N   0  0  0  0  0  0  0  0  0  0  0  0
   28.8986   -1.8025  106.5796 O   0  0  0  0  0  0  0  0  0  0  0  0
   27.9470   -2.4240  105.7709 C   0  0  0  0  0  0  0  0  0  0  0  0
   30.4801   -0.6102  104.9275 O   0  0  0  0  0  0  0  0  0  0  0  0
   31.2593   -3.3819  107.2612 C   0  0  0  0  0  0  0  0  0  0  0  0
   34.6907   -3.9087  109.7255 O   0  0  0  0  0  0  0  0  0  0  0  0
   34.0468   -4.7669  109.1274 C   0  0  0  0  0  0  0  0  0  0  0  0
   31.5479   -5.0761  108.6140 C   0  0  0  0  0  0  0  0  0  0  0  0
   30.1055    0.2937  107.2618 O   0  5  0  0  0  0  0  0  0  0  0  0
   28.3708    0.5218  105.7603 O   0  0  0  0  0  0  0  0  0  0  0  0
  1 17  1  0  0  0  0
  1 20  1  0  0  0  0
  2 15  1  1  0  0  0
  2  3  1  0  0  0  0
  2 11  1  0  0  0  0
  3  5  1  0  0  0  0
  4 16  1  6  0  0  0
  4 21  1  0  0  0  0
  4 22  2  0  0  0  0
  4 14  1  0  0  0  0
  5  1  1  6  0  0  0
  5  8  1  0  0  0  0
  6 17  2  0  0  0  0
  6 12  1  0  0  0  0
  8  7  1  1  0  0  0
  8 11  1  0  0  0  0
  9 19  1  0  0  0  0
 11 10  1  1  0  0  0
 12 20  2  0  0  0  0
 12 19  1  0  0  0  0
 13 20  1  0  0  0  0
 14 15  1  0  0  0  0
 18 19  2  0  0  0  0
M  CHG  1  21  -1
M  END
>  <CHROM.1>
40.98579361,-60.83604724,-74.55139679,174.43940279,-130.33046250,30.10498442
-3.20973870,107.52234963,0.76181842,0.14832137,2.64932198

>  <Name>
ligand

>  <RI>
0

>  <Rbt.Current_Directory>
/home/itssahil/PROJECTS/Mol_Feturizer/New_Systems/rnas/4XW7

>  <Rbt.Executable>
rbdock ($Id: //depot/dev/client3/rdock/2013.1/src/exe/rbdock.cxx#4 $)

>  <Rbt.Library>
libRbt.so (2013.1, Build901 2013/11/27)

>  <Rbt.Parameter_File>
/export/apps/rDock/src/rDock_2013.1_src/data/scripts/dock_solv.prm

>  <Rbt.Receptor>
prm/pocket_docking_4.prm

>  <SCORE>
-6.25687

>  <SCORE.INTER>
-5.658

>  <SCORE.INTER.CONST>
1

>  <SCORE.INTER.POLAR>
0

>  <SCORE.INTER.ROT>
5

>  <SCORE.INTER.SOLV>
17.7309

>  <SCORE.INTER.VDW>
-16.6156

>  <SCORE.INTER.norm>
-0.257182

>  <SCORE.INTRA>
-0.598877

>  <SCORE.INTRA.DIHEDRAL>
-0.540415

>  <SCORE.INTRA.DIHEDRAL.0>
2.61549

>  <SCORE.INTRA.POLAR>
0

>  <SCORE.INTRA.POLAR.0>
0

>  <SCORE.INTRA.REPUL>
0

>  <SCORE.INTRA.REPUL.0>
0

>  <SCORE.INTRA.SOLV>
0.847739

>  <SCORE.INTRA.SOLV.lig_0>
-73.766

>  <SCORE.INTRA.VDW>
-0.752539

>  <SCORE.INTRA.VDW.0>
-1.95055

>  <SCORE.INTRA.norm>
-0.0272217

>  <SCORE.RESTR>
0

>  <SCORE.RESTR.CAVITY>
0

>  <SCORE.RESTR.norm>
0

>  <SCORE.SYSTEM>
0

>  <SCORE.SYSTEM.CONST>
0

>  <SCORE.SYSTEM.DIHEDRAL>
0

>  <SCORE.SYSTEM.SOLV>
0

>  <SCORE.SYSTEM.norm>
0

>  <SCORE.heavy>
22

>  <SCORE.norm>
-0.284403

>  <RMSD>
5.330

$$$$
ligand
 OpenBabel11021811513D
libRbt.so/2013.1/901 2013/11/27
 22 23  0  0  0  0  0  0  0  0999 V2000
   30.4050   -1.8160  106.3287 N   0  0  0  0  0  0  0  0  0  0  0  0
   28.0808   -1.9247  103.8195 C   0  0  1  0  0  0  0  0  0  0  0  0
   28.5775   -2.5530  105.0523 O   0  0  0  0  0  0  0  0  0  0  0  0
   29.5297   -4.1784  101.1001 P   0  0  2  0  0  0  0  0  0  0  0  0
   29.1158   -1.4910  105.8940 C   0  0  2  0  0  0  0  0  0  0  0  0
   32.5742   -1.7307  106.6437 N   0  0  0  0  0  0  0  0  0  0  0  0
   28.8566    0.8858  105.8649 O   0  0  0  0  0  0  0  0  0  0  0  0
   29.1468   -0.2701  105.0649 C   0  0  2  0  0  0  0  0  0  0  0  0
   32.4168   -5.0384  108.4099 N   0  0  0  0  0  0  0  0  0  0  0  0
   26.8340   -0.0367  104.5753 O   0  0  0  0  0  0  0  0  0  0  0  0
   28.1069   -0.4737  104.0503 C   0  0  2  0  0  0  0  0  0  0  0  0
   32.1081   -2.8157  107.2922 C   0  0  0  0  0  0  0  0  0  0  0  0
   29.8509   -3.8733  107.6119 N   0  0  0  0  0  0  0  0  0  0  0  0
   28.8226   -3.6220  102.3786 O   0  0  0  0  0  0  0  0  0  0  0  0
   28.9721   -2.2694  102.6848 C   0  0  0  0  0  0  0  0  0  0  0  0
   31.1023   -4.0188  101.2395 O   0  0  0  0  0  0  0  0  0  0  0  0
   31.5138   -1.1269  106.0564 C   0  0  0  0  0  0  0  0  0  0  0  0
   34.0653   -3.4668  108.4414 O   0  0  0  0  0  0  0  0  0  0  0  0
   32.9348   -3.7835  108.0797 C   0  0  0  0  0  0  0  0  0  0  0  0
   30.7358   -2.8842  107.1006 C   0  0  0  0  0  0  0  0  0  0  0  0
   29.0308   -3.5111   99.8766 O   0  5  0  0  0  0  0  0  0  0  0  0
   29.1580   -5.5974  100.8497 O   0  0  0  0  0  0  0  0  0  0  0  0
  1 17  1  0  0  0  0
  1 20  1  0  0  0  0
  2 15  1  6  0  0  0
  2  3  1  0  0  0  0
  2 11  1  0  0  0  0
  3  5  1  0  0  0  0
  4 16  1  1  0  0  0
  4 21  1  0  0  0  0
  4 22  2  0  0  0  0
  4 14  1  0  0  0  0
  5  1  1  6  0  0  0
  5  8  1  0  0  0  0
  6 17  2  0  0  0  0
  6 12  1  0  0  0  0
  8  7  1  1  0  0  0
  8 11  1  0  0  0  0
  9 19  1  0  0  0  0
 11 10  1  1  0  0  0
 12 20  2  0  0  0  0
 12 19  1  0  0  0  0
 13 20  1  0  0  0  0
 14 15  1  0  0  0  0
 18 19  2  0  0  0  0
M  CHG  1  21  -1
M  END
>  <CHROM.1>
118.33591321,69.88115240,62.22644194,172.50466132,-163.26373476,30.00912618
-2.63732018,104.61219310,0.93451931,-0.77107082,0.98778833

>  <Name>
ligand

>  <RI>
0

>  <Rbt.Current_Directory>
/home/itssahil/PROJECTS/Mol_Feturizer/New_Systems/rnas/4XW7

>  <Rbt.Executable>
rbdock ($Id: //depot/dev/client3/rdock/2013.1/src/exe/rbdock.cxx#4 $)

>  <Rbt.Library>
libRbt.so (2013.1, Build901 2013/11/27)

>  <Rbt.Parameter_File>
/export/apps/rDock/src/rDock_2013.1_src/data/scripts/dock_solv.prm

>  <Rbt.Receptor>
prm/pocket_docking_6.prm

>  <SCORE>
-10.013

>  <SCORE.INTER>
-11.2955

>  <SCORE.INTER.CONST>
1

>  <SCORE.INTER.POLAR>
0

>  <SCORE.INTER.ROT>
5

>  <SCORE.INTER.SOLV>
16.5581

>  <SCORE.INTER.VDW>
-19.983

>  <SCORE.INTER.norm>
-0.51343

>  <SCORE.INTRA>
1.27821

>  <SCORE.INTRA.DIHEDRAL>
0.849373

>  <SCORE.INTRA.DIHEDRAL.0>
2.61549

>  <SCORE.INTRA.POLAR>
0

>  <SCORE.INTRA.POLAR.0>
0

>  <SCORE.INTRA.REPUL>
0

>  <SCORE.INTRA.REPUL.0>
0

>  <SCORE.INTRA.SOLV>
-0.131182

>  <SCORE.INTRA.SOLV.lig_0>
-73.766

>  <SCORE.INTRA.VDW>
0.919114

>  <SCORE.INTRA.VDW.0>
-1.95055

>  <SCORE.INTRA.norm>
0.0581004

>  <SCORE.RESTR>
0.00424787

>  <SCORE.RESTR.CAVITY>
0.00424787

>  <SCORE.RESTR.norm>
0.000193085

>  <SCORE.SYSTEM>
0

>  <SCORE.SYSTEM.CONST>
0

>  <SCORE.SYSTEM.DIHEDRAL>
0

>  <SCORE.SYSTEM.SOLV>
0

>  <SCORE.SYSTEM.norm>
0

>  <SCORE.heavy>
22

>  <SCORE.norm>
-0.455136

>  <RMSD>
5.335

$$$$
ligand
 OpenBabel11021811513D
libRbt.so/2013.1/901 2013/11/27
 22 23  0  0  0  0  0  0  0  0999 V2000
   31.0776   -2.3241  107.4174 N   0  0  0  0  0  0  0  0  0  0  0  0
   28.6523   -1.1340  105.3171 C   0  0  1  0  0  0  0  0  0  0  0  0
   29.1615   -2.2953  106.0612 O   0  0  0  0  0  0  0  0  0  0  0  0
   28.0420   -2.3849  102.6055 P   0  0  2  0  0  0  0  0  0  0  0  0
   29.7926   -1.7903  107.2747 C   0  0  2  0  0  0  0  0  0  0  0  0
   33.2347   -2.6398  107.1743 N   0  0  0  0  0  0  0  0  0  0  0  0
   29.6681    0.3103  108.4102 O   0  0  0  0  0  0  0  0  0  0  0  0
   29.8598   -0.3222  107.1360 C   0  0  2  0  0  0  0  0  0  0  0  0
   33.0839   -5.8631  108.9834 N   0  0  0  0  0  0  0  0  0  0  0  0
   27.5462    0.1892  106.9652 O   0  0  0  0  0  0  0  0  0  0  0  0
   28.7702    0.0224  106.2161 C   0  0  2  0  0  0  0  0  0  0  0  0
   32.7834   -3.5537  108.0552 C   0  0  0  0  0  0  0  0  0  0  0  0
   30.5490   -4.1172  109.0581 N   0  0  0  0  0  0  0  0  0  0  0  0
   29.4059   -2.0440  103.2895 O   0  0  0  0  0  0  0  0  0  0  0  0
   29.4763   -0.9134  104.1035 C   0  0  0  0  0  0  0  0  0  0  0  0
   28.2758   -3.4048  101.4125 O   0  0  0  0  0  0  0  0  0  0  0  0
   32.1729   -1.8913  106.7918 C   0  0  0  0  0  0  0  0  0  0  0  0
   34.7634   -4.3276  109.0828 O   0  0  0  0  0  0  0  0  0  0  0  0
   33.6158   -4.5950  108.7357 C   0  0  0  0  0  0  0  0  0  0  0  0
   31.4183   -3.3675  108.2183 C   0  0  0  0  0  0  0  0  0  0  0  0
   27.3556   -1.1605  102.1355 O   0  5  0  0  0  0  0  0  0  0  0  0
   27.0645   -2.9279  103.5872 O   0  0  0  0  0  0  0  0  0  0  0  0
  1 17  1  0  0  0  0
  1 20  1  0  0  0  0
  2 15  1  6  0  0  0
  2  3  1  0  0  0  0
  2 11  1  0  0  0  0
  3  5  1  0  0  0  0
  4 16  1  6  0  0  0
  4 21  1  0  0  0  0
  4 22  2  0  0  0  0
  4 14  1  0  0  0  0
  5  1  1  6  0  0  0
  5  8  1  0  0  0  0
  6 17  2  0  0  0  0
  6 12  1  0  0  0  0
  8  7  1  1  0  0  0
  8 11  1  0  0  0  0
  9 19  1  0  0  0  0
 11 10  1  1  0  0  0
 12 20  2  0  0  0  0
 12 19  1  0  0  0  0
 13 20  1  0  0  0  0
 14 15  1  0  0  0  0
 18 19  2  0  0  0  0
M  CHG  1  21  -1
M  END
>  <CHROM.1>
80.41057287,60.39508429,162.84949049,67.66253903,-143.76757281,30.05183857
-2.27735261,105.98569684,0.44812552,-0.77167376,0.94720046

>  <Name>
ligand

>  <RI>
0

>  <Rbt.Current_Directory>
/home/itssahil/PROJECTS/Mol_Feturizer/New_Systems/rnas/4XW7

>  <Rbt.Executable>
rbdock ($Id: //depot/dev/client3/rdock/2013.1/src/exe/rbdock.cxx#4 $)

>  <Rbt.Library>
libRbt.so (2013.1, Build901 2013/11/27)

>  <Rbt.Parameter_File>
/export/apps/rDock/src/rDock_2013.1_src/data/scripts/dock_solv.prm

>  <Rbt.Receptor>
prm/pocket_docking_5.prm

>  <SCORE>
-7.58983

>  <SCORE.INTER>
-9.34579

>  <SCORE.INTER.CONST>
1

>  <SCORE.INTER.POLAR>
0

>  <SCORE.INTER.ROT>
5

>  <SCORE.INTER.SOLV>
12.416

>  <SCORE.INTER.VDW>
-17.3025

>  <SCORE.INTER.norm>
-0.424808

>  <SCORE.INTRA>
1.75596

>  <SCORE.INTRA.DIHEDRAL>
0.162833

>  <SCORE.INTRA.DIHEDRAL.0>
2.61549

>  <SCORE.INTRA.POLAR>
0

>  <SCORE.INTRA.POLAR.0>
0

>  <SCORE.INTRA.REPUL>
0

>  <SCORE.INTRA.REPUL.0>
0

>  <SCORE.INTRA.SOLV>
2.60324

>  <SCORE.INTRA.SOLV.lig_0>
-73.766

>  <SCORE.INTRA.VDW>
0.372926

>  <SCORE.INTRA.VDW.0>
-1.95055

>  <SCORE.INTRA.norm>
0.0798163

>  <SCORE.RESTR>
0

>  <SCORE.RESTR.CAVITY>
0

>  <SCORE.RESTR.norm>
0

>  <SCORE.SYSTEM>
0

>  <SCORE.SYSTEM.CONST>
0

>  <SCORE.SYSTEM.DIHEDRAL>
0

>  <SCORE.SYSTEM.SOLV>
0

>  <SCORE.SYSTEM.norm>
0

>  <SCORE.heavy>
22

>  <SCORE.norm>
-0.344992

>  <RMSD>
5.338

$$$$
ligand
 OpenBabel11021811513D
libRbt.so/2013.1/901 2013/11/27
 22 23  0  0  0  0  0  0  0  0999 V2000
   30.3758   -1.8440  106.3588 N   0  0  0  0  0  0  0  0  0  0  0  0
   28.0823   -1.9019  103.8198 C   0  0  1  0  0  0  0  0  0  0  0  0
   28.5492   -2.5408  105.0588 O   0  0  0  0  0  0  0  0  0  0  0  0
   29.4949   -4.1844  101.1084 P   0  0  2  0  0  0  0  0  0  0  0  0
   29.0998   -1.4908  105.9076 C   0  0  2  0  0  0  0  0  0  0  0  0
   32.5397   -1.7975  106.7154 N   0  0  0  0  0  0  0  0  0  0  0  0
   28.8932    0.8911  105.8755 O   0  0  0  0  0  0  0  0  0  0  0  0
   29.1683   -0.2709  105.0791 C   0  0  2  0  0  0  0  0  0  0  0  0
   34.1086   -3.5425  108.5979 N   0  0  0  0  0  0  0  0  0  0  0  0
   26.8677    0.0131  104.5598 O   0  0  0  0  0  0  0  0  0  0  0  0
   28.1374   -0.4518  104.0512 C   0  0  2  0  0  0  0  0  0  0  0  0
   32.0460   -2.8890  107.3317 C   0  0  0  0  0  0  0  0  0  0  0  0
   29.7683   -3.9198  107.5869 N   0  0  0  0  0  0  0  0  0  0  0  0
   28.8160   -3.6188  102.3981 O   0  0  0  0  0  0  0  0  0  0  0  0
   28.9804   -2.2662  102.6967 C   0  0  0  0  0  0  0  0  0  0  0  0
   31.0685   -4.0024  101.2019 O   0  0  0  0  0  0  0  0  0  0  0  0
   31.4993   -1.1657  106.1219 C   0  0  0  0  0  0  0  0  0  0  0  0
   32.3864   -5.0068  108.3187 O   0  0  0  0  0  0  0  0  0  0  0  0
   32.8439   -3.8855  108.1132 C   0  0  0  0  0  0  0  0  0  0  0  0
   30.6767   -2.9331  107.1134 C   0  0  0  0  0  0  0  0  0  0  0  0
   28.9537   -3.5412   99.8899 O   0  5  0  0  0  0  0  0  0  0  0  0
   29.1355   -5.6114  100.8883 O   0  0  0  0  0  0  0  0  0  0  0  0
  1 17  1  0  0  0  0
  1 20  1  0  0  0  0
  2 15  1  6  0  0  0
  2  3  1  0  0  0  0
  2 11  1  0  0  0  0
  3  5  1  0  0  0  0
  4 16  1  1  0  0  0
  4 21  1  0  0  0  0
  4 22  2  0  0  0  0
  4 14  1  0  0  0  0
  5  1  1  6  0  0  0
  5  8  1  0  0  0  0
  6 17  2  0  0  0  0
  6 12  1  0  0  0  0
  8  7  1  1  0  0  0
  8 11  1  0  0  0  0
  9 19  1  0  0  0  0
 11 10  1  1  0  0  0
 12 20  2  0  0  0  0
 12 19  1  0  0  0  0
 13 20  1  0  0  0  0
 14 15  1  0  0  0  0
 18 19  2  0  0  0  0
M  CHG  1  21  -1
M  END
>  <CHROM.1>
119.67389017,69.22911783,60.83578695,170.78525314,19.41873766,29.97879797
-2.66072851,104.62717360,0.92539918,-0.79661955,0.98050790

>  <Name>
ligand

>  <RI>
0

>  <Rbt.Current_Directory>
/home/itssahil/PROJECTS/Mol_Feturizer/New_Systems/rnas/4XW7

>  <Rbt.Executable>
rbdock ($Id: //depot/dev/client3/rdock/2013.1/src/exe/rbdock.cxx#4 $)

>  <Rbt.Library>
libRbt.so (2013.1, Build901 2013/11/27)

>  <Rbt.Parameter_File>
/export/apps/rDock/src/rDock_2013.1_src/data/scripts/dock_solv.prm

>  <Rbt.Receptor>
prm/pocket_docking_6.prm

>  <SCORE>
-10.3684

>  <SCORE.INTER>
-11.102

>  <SCORE.INTER.CONST>
1

>  <SCORE.INTER.POLAR>
0

>  <SCORE.INTER.ROT>
5

>  <SCORE.INTER.SOLV>
16.6954

>  <SCORE.INTER.VDW>
-19.8998

>  <SCORE.INTER.norm>
-0.504638

>  <SCORE.INTRA>
0.733696

>  <SCORE.INTRA.DIHEDRAL>
-0.0223769

>  <SCORE.INTRA.DIHEDRAL.0>
2.61549

>  <SCORE.INTRA.POLAR>
0

>  <SCORE.INTRA.POLAR.0>
0

>  <SCORE.INTRA.REPUL>
0

>  <SCORE.INTRA.REPUL.0>
0

>  <SCORE.INTRA.SOLV>
-0.400421

>  <SCORE.INTRA.SOLV.lig_0>
-73.766

>  <SCORE.INTRA.VDW>
0.945094

>  <SCORE.INTRA.VDW.0>
-1.95055

>  <SCORE.INTRA.norm>
0.0333498

>  <SCORE.RESTR>
0

>  <SCORE.RESTR.CAVITY>
0

>  <SCORE.RESTR.norm>
0

>  <SCORE.SYSTEM>
0

>  <SCORE.SYSTEM.CONST>
0

>  <SCORE.SYSTEM.DIHEDRAL>
0

>  <SCORE.SYSTEM.SOLV>
0

>  <SCORE.SYSTEM.norm>
0

>  <SCORE.heavy>
22

>  <SCORE.norm>
-0.471289

>  <RMSD>
5.338

$$$$
ligand
 OpenBabel11021811513D
libRbt.so/2013.1/901 2013/11/27
 22 23  0  0  0  0  0  0  0  0999 V2000
   30.5255   -1.5411  106.2185 N   0  0  0  0  0  0  0  0  0  0  0  0
   28.2270   -1.9929  103.7240 C   0  0  1  0  0  0  0  0  0  0  0  0
   28.8297   -2.5479  104.9447 O   0  0  0  0  0  0  0  0  0  0  0  0
   27.4278   -2.8239  100.8259 P   0  0  2  0  0  0  0  0  0  0  0  0
   29.1969   -1.4234  105.7972 C   0  0  2  0  0  0  0  0  0  0  0  0
   32.6958   -1.2519  106.3518 N   0  0  0  0  0  0  0  0  0  0  0  0
   28.5569    0.8804  105.8024 O   0  0  0  0  0  0  0  0  0  0  0  0
   29.0228   -0.2033  104.9847 C   0  0  2  0  0  0  0  0  0  0  0  0
   33.2542   -2.4187  109.6243 N   0  0  0  0  0  0  0  0  0  0  0  0
   26.6984   -0.3408  104.5142 O   0  0  0  0  0  0  0  0  0  0  0  0
   28.0205   -0.5598  103.9745 C   0  0  2  0  0  0  0  0  0  0  0  0
   32.3401   -2.1323  107.3076 C   0  0  0  0  0  0  0  0  0  0  0  0
   30.1820   -3.1772  108.0601 N   0  0  0  0  0  0  0  0  0  0  0  0
   28.4930   -1.8328  101.3979 O   0  0  0  0  0  0  0  0  0  0  0  0
   29.1521   -2.1749  102.5787 C   0  0  0  0  0  0  0  0  0  0  0  0
   26.2136   -2.9560  101.8389 O   0  0  0  0  0  0  0  0  0  0  0  0
   31.5680   -0.8981  105.6911 C   0  0  0  0  0  0  0  0  0  0  0  0
   34.0537   -3.6512  107.8835 O   0  0  0  0  0  0  0  0  0  0  0  0
   33.2708   -2.7906  108.2775 C   0  0  0  0  0  0  0  0  0  0  0  0
   30.9684   -2.3270  107.2346 C   0  0  0  0  0  0  0  0  0  0  0  0
   28.0262   -4.1458  100.5331 O   0  5  0  0  0  0  0  0  0  0  0  0
   26.9560   -2.3954   99.4813 O   0  0  0  0  0  0  0  0  0  0  0  0
  1 17  1  0  0  0  0
  1 20  1  0  0  0  0
  2 15  1  6  0  0  0
  2  3  1  0  0  0  0
  2 11  1  0  0  0  0
  3  5  1  0  0  0  0
  4 16  1  1  0  0  0
  4 21  1  0  0  0  0
  4 22  2  0  0  0  0
  4 14  1  0  0  0  0
  5  1  1  6  0  0  0
  5  8  1  0  0  0  0
  6 17  2  0  0  0  0
  6 12  1  0  0  0  0
  8  7  1  1  0  0  0
  8 11  1  0  0  0  0
  9 19  1  0  0  0  0
 11 10  1  1  0  0  0
 12 20  2  0  0  0  0
 12 19  1  0  0  0  0
 13 20  1  0  0  0  0
 14 15  1  0  0  0  0
 18 19  2  0  0  0  0
M  CHG  1  21  -1
M  END
>  <CHROM.1>
100.08369099,171.06849476,64.07694286,-74.54998173,108.33950308,29.49187494
-2.00392302,104.52956587,0.70631038,-0.65109607,0.92621013

>  <Name>
ligand

>  <RI>
0

>  <Rbt.Current_Directory>
/home/itssahil/PROJECTS/Mol_Feturizer/New_Systems/rnas/4XW7

>  <Rbt.Executable>
rbdock ($Id: //depot/dev/client3/rdock/2013.1/src/exe/rbdock.cxx#4 $)

>  <Rbt.Library>
libRbt.so (2013.1, Build901 2013/11/27)

>  <Rbt.Parameter_File>
/export/apps/rDock/src/rDock_2013.1_src/data/scripts/dock_solv.prm

>  <Rbt.Receptor>
prm/pocket_docking_5.prm

>  <SCORE>
-8.17402

>  <SCORE.INTER>
-9.14042

>  <SCORE.INTER.CONST>
1

>  <SCORE.INTER.POLAR>
0

>  <SCORE.INTER.ROT>
5

>  <SCORE.INTER.SOLV>
10.4778

>  <SCORE.INTER.VDW>
-16.5195

>  <SCORE.INTER.norm>
-0.415474

>  <SCORE.INTRA>
0.966401

>  <SCORE.INTRA.DIHEDRAL>
0.307766

>  <SCORE.INTRA.DIHEDRAL.0>
2.61549

>  <SCORE.INTRA.POLAR>
0

>  <SCORE.INTRA.POLAR.0>
0

>  <SCORE.INTRA.REPUL>
0

>  <SCORE.INTRA.REPUL.0>
0

>  <SCORE.INTRA.SOLV>
0.248885

>  <SCORE.INTRA.SOLV.lig_0>
-73.766

>  <SCORE.INTRA.VDW>
0.688075

>  <SCORE.INTRA.VDW.0>
-1.95055

>  <SCORE.INTRA.norm>
0.0439273

>  <SCORE.RESTR>
0

>  <SCORE.RESTR.CAVITY>
0

>  <SCORE.RESTR.norm>
0

>  <SCORE.SYSTEM>
0

>  <SCORE.SYSTEM.CONST>
0

>  <SCORE.SYSTEM.DIHEDRAL>
0

>  <SCORE.SYSTEM.SOLV>
0

>  <SCORE.SYSTEM.norm>
0

>  <SCORE.heavy>
22

>  <SCORE.norm>
-0.371546

>  <RMSD>
5.339

$$$$
ligand
 OpenBabel11021811513D
libRbt.so/2013.1/901 2013/11/27
 22 23  0  0  0  0  0  0  0  0999 V2000
   33.4901   -3.4485  109.0135 N   0  0  0  0  0  0  0  0  0  0  0  0
   30.3753   -2.5015  107.9593 C   0  0  1  0  0  0  0  0  0  0  0  0
   31.2607   -2.7190  109.1126 O   0  0  0  0  0  0  0  0  0  0  0  0
   28.6641   -5.9103  108.1693 P   0  0  2  0  0  0  0  0  0  0  0  0
   32.6183   -2.4059  108.6824 C   0  0  2  0  0  0  0  0  0  0  0  0
   34.5850   -5.3473  108.9273 N   0  0  0  0  0  0  0  0  0  0  0  0
   33.4850   -1.2034  106.8063 O   0  0  0  0  0  0  0  0  0  0  0  0
   32.5663   -2.2265  107.2182 C   0  0  2  0  0  0  0  0  0  0  0  0
   35.6449   -5.3709  112.3538 N   0  0  0  0  0  0  0  0  0  0  0  0
   31.0600   -0.3952  107.0733 O   0  0  0  0  0  0  0  0  0  0  0  0
   31.1835   -1.8278  106.9335 C   0  0  2  0  0  0  0  0  0  0  0  0
   34.9900   -4.6903  110.0316 C   0  0  0  0  0  0  0  0  0  0  0  0
   34.4294   -2.4894  111.1074 N   0  0  0  0  0  0  0  0  0  0  0  0
   29.1734   -4.4580  108.4441 O   0  0  0  0  0  0  0  0  0  0  0  0
   29.8927   -3.8057  107.4426 C   0  0  0  0  0  0  0  0  0  0  0  0
   29.8982   -6.8968  108.0217 O   0  0  0  0  0  0  0  0  0  0  0  0
   33.6624   -4.5698  108.3124 C   0  0  0  0  0  0  0  0  0  0  0  0
   37.1530   -5.4099  110.6472 O   0  0  0  0  0  0  0  0  0  0  0  0
   36.0038   -5.1820  111.0168 C   0  0  0  0  0  0  0  0  0  0  0  0
   34.3040   -3.4864  110.1008 C   0  0  0  0  0  0  0  0  0  0  0  0
   27.7955   -5.9576  106.9716 O   0  5  0  0  0  0  0  0  0  0  0  0
   27.7382   -6.3711  109.2390 O   0  0  0  0  0  0  0  0  0  0  0  0
  1 17  1  0  0  0  0
  1 20  1  0  0  0  0
  2 15  1  6  0  0  0
  2  3  1  0  0  0  0
  2 11  1  0  0  0  0
  3  5  1  0  0  0  0
  4 16  1  6  0  0  0
  4 21  1  0  0  0  0
  4 22  2  0  0  0  0
  4 14  1  0  0  0  0
  5  1  1  6  0  0  0
  5  8  1  0  0  0  0
  6 17  2  0  0  0  0
  6 12  1  0  0  0  0
  8  7  1  1  0  0  0
  8 11  1  0  0  0  0
  9 19  1  0  0  0  0
 11 10  1  1  0  0  0
 12 20  2  0  0  0  0
 12 19  1  0  0  0  0
 13 20  1  0  0  0  0
 14 15  1  0  0  0  0
 18 19  2  0  0  0  0
M  CHG  1  21  -1
M  END
>  <CHROM.1>
81.74092162,60.80574905,65.77791530,-175.01172249,-119.79777033,31.96836497
-4.05998240,108.72940422,-0.04821302,-0.37294123,-0.44670536

>  <Name>
ligand

>  <RI>
0

>  <Rbt.Current_Directory>
/home/itssahil/PROJECTS/Mol_Feturizer/New_Systems/rnas/4XW7

>  <Rbt.Executable>
rbdock ($Id: //depot/dev/client3/rdock/2013.1/src/exe/rbdock.cxx#4 $)

>  <Rbt.Library>
libRbt.so (2013.1, Build901 2013/11/27)

>  <Rbt.Parameter_File>
/export/apps/rDock/src/rDock_2013.1_src/data/scripts/dock_solv.prm

>  <Rbt.Receptor>
prm/pocket_docking_7.prm

>  <SCORE>
-8.23353

>  <SCORE.INTER>
-7.3933

>  <SCORE.INTER.CONST>
1

>  <SCORE.INTER.POLAR>
0

>  <SCORE.INTER.ROT>
5

>  <SCORE.INTER.SOLV>
13.6304

>  <SCORE.INTER.VDW>
-16.4057

>  <SCORE.INTER.norm>
-0.336059

>  <SCORE.INTRA>
-0.840231

>  <SCORE.INTRA.DIHEDRAL>
-0.954617

>  <SCORE.INTRA.DIHEDRAL.0>
2.61549

>  <SCORE.INTRA.POLAR>
0

>  <SCORE.INTRA.POLAR.0>
0

>  <SCORE.INTRA.REPUL>
0

>  <SCORE.INTRA.REPUL.0>
0

>  <SCORE.INTRA.SOLV>
-0.766006

>  <SCORE.INTRA.SOLV.lig_0>
-73.766

>  <SCORE.INTRA.VDW>
0.0200806

>  <SCORE.INTRA.VDW.0>
-1.95055

>  <SCORE.INTRA.norm>
-0.0381923

>  <SCORE.RESTR>
0

>  <SCORE.RESTR.CAVITY>
0

>  <SCORE.RESTR.norm>
0

>  <SCORE.SYSTEM>
0

>  <SCORE.SYSTEM.CONST>
0

>  <SCORE.SYSTEM.DIHEDRAL>
0

>  <SCORE.SYSTEM.SOLV>
0

>  <SCORE.SYSTEM.norm>
0

>  <SCORE.heavy>
22

>  <SCORE.norm>
-0.374251

>  <RMSD>
5.339

$$$$
ligand
 OpenBabel11021811513D
libRbt.so/2013.1/901 2013/11/27
 22 23  0  0  0  0  0  0  0  0999 V2000
   30.3823   -1.7326  106.2206 N   0  0  0  0  0  0  0  0  0  0  0  0
   28.1024   -2.1231  103.6988 C   0  0  1  0  0  0  0  0  0  0  0  0
   28.6410   -2.6678  104.9536 O   0  0  0  0  0  0  0  0  0  0  0  0
   29.7907   -4.3164  101.0673 P   0  0  2  0  0  0  0  0  0  0  0  0
   29.0736   -1.5376  105.7669 C   0  0  2  0  0  0  0  0  0  0  0  0
   32.5378   -1.4614  106.5239 N   0  0  0  0  0  0  0  0  0  0  0  0
   28.6028    0.8044  105.6644 O   0  0  0  0  0  0  0  0  0  0  0  0
   29.0034   -0.3436  104.9017 C   0  0  2  0  0  0  0  0  0  0  0  0
   32.6908   -3.6593  109.4212 N   0  0  0  0  0  0  0  0  0  0  0  0
   26.6840   -0.3334  104.3884 O   0  0  0  0  0  0  0  0  0  0  0  0
   27.9961   -0.6695  103.8861 C   0  0  2  0  0  0  0  0  0  0  0  0
   32.1531   -2.5299  107.2486 C   0  0  0  0  0  0  0  0  0  0  0  0
   29.9813   -3.7299  107.6476 N   0  0  0  0  0  0  0  0  0  0  0  0
   28.9956   -3.7861  102.3045 O   0  0  0  0  0  0  0  0  0  0  0  0
   29.0323   -2.4195  102.5816 C   0  0  0  0  0  0  0  0  0  0  0  0
   31.3365   -4.0049  101.2443 O   0  0  0  0  0  0  0  0  0  0  0  0
   31.4367   -0.9826  105.8977 C   0  0  0  0  0  0  0  0  0  0  0  0
   34.1004   -3.8072  107.6381 O   0  0  0  0  0  0  0  0  0  0  0  0
   33.0481   -3.3742  108.1009 C   0  0  0  0  0  0  0  0  0  0  0  0
   30.7904   -2.7154  107.0654 C   0  0  0  0  0  0  0  0  0  0  0  0
   29.2701   -3.7406   99.8068 O   0  5  0  0  0  0  0  0  0  0  0  0
   29.5606   -5.7716  100.8587 O   0  0  0  0  0  0  0  0  0  0  0  0
  1 17  1  0  0  0  0
  1 20  1  0  0  0  0
  2 15  1  6  0  0  0
  2  3  1  0  0  0  0
  2 11  1  0  0  0  0
  3  5  1  0  0  0  0
  4 16  1  1  0  0  0
  4 21  1  0  0  0  0
  4 22  2  0  0  0  0
  4 14  1  0  0  0  0
  5  1  1  6  0  0  0
  5  8  1  0  0  0  0
  6 17  2  0  0  0  0
  6 12  1  0  0  0  0
  8  7  1  1  0  0  0
  8 11  1  0  0  0  0
  9 19  1  0  0  0  0
 11 10  1  1  0  0  0
 12 20  2  0  0  0  0
 12 19  1  0  0  0  0
 13 20  1  0  0  0  0
 14 15  1  0  0  0  0
 18 19  2  0  0  0  0
M  CHG  1  21  -1
M  END
>  <CHROM.1>
115.79791552,70.58300989,60.88856828,174.04342332,129.93336545,30.08119614
-2.62788496,104.53991810,1.03961805,-0.68692182,1.03849041

>  <Name>
ligand

>  <RI>
0

>  <Rbt.Current_Directory>
/home/itssahil/PROJECTS/Mol_Feturizer/New_Systems/rnas/4XW7

>  <Rbt.Executable>
rbdock ($Id: //depot/dev/client3/rdock/2013.1/src/exe/rbdock.cxx#4 $)

>  <Rbt.Library>
libRbt.so (2013.1, Build901 2013/11/27)

>  <Rbt.Parameter_File>
/export/apps/rDock/src/rDock_2013.1_src/data/scripts/dock_solv.prm

>  <Rbt.Receptor>
prm/pocket_docking_7.prm

>  <SCORE>
-11.5068

>  <SCORE.INTER>
-11.9312

>  <SCORE.INTER.CONST>
1

>  <SCORE.INTER.POLAR>
0

>  <SCORE.INTER.ROT>
5

>  <SCORE.INTER.SOLV>
14.9188

>  <SCORE.INTER.VDW>
-19.8604

>  <SCORE.INTER.norm>
-0.542326

>  <SCORE.INTRA>
0.4229

>  <SCORE.INTRA.DIHEDRAL>
-0.44866

>  <SCORE.INTRA.DIHEDRAL.0>
2.61549

>  <SCORE.INTRA.POLAR>
0

>  <SCORE.INTRA.POLAR.0>
0

>  <SCORE.INTRA.REPUL>
0

>  <SCORE.INTRA.REPUL.0>
0

>  <SCORE.INTRA.SOLV>
-0.379121

>  <SCORE.INTRA.SOLV.lig_0>
-73.766

>  <SCORE.INTRA.VDW>
0.83679

>  <SCORE.INTRA.VDW.0>
-1.95055

>  <SCORE.INTRA.norm>
0.0192227

>  <SCORE.RESTR>
0.00143742

>  <SCORE.RESTR.CAVITY>
0.00143742

>  <SCORE.RESTR.norm>
6.53372e-05

>  <SCORE.SYSTEM>
0

>  <SCORE.SYSTEM.CONST>
0

>  <SCORE.SYSTEM.DIHEDRAL>
0

>  <SCORE.SYSTEM.SOLV>
0

>  <SCORE.SYSTEM.norm>
0

>  <SCORE.heavy>
22

>  <SCORE.norm>
-0.523038

>  <RMSD>
5.354

$$$$
ligand
 OpenBabel11021811513D
libRbt.so/2013.1/901 2013/11/27
 22 23  0  0  0  0  0  0  0  0999 V2000
   30.3711   -1.8405  106.3114 N   0  0  0  0  0  0  0  0  0  0  0  0
   28.0702   -1.9083  103.7795 C   0  0  1  0  0  0  0  0  0  0  0  0
   28.5516   -2.5529  105.0099 O   0  0  0  0  0  0  0  0  0  0  0  0
   29.5728   -4.1546  101.0813 P   0  0  2  0  0  0  0  0  0  0  0  0
   29.0879   -1.5033  105.8683 C   0  0  2  0  0  0  0  0  0  0  0  0
   32.5365   -1.7672  106.6541 N   0  0  0  0  0  0  0  0  0  0  0  0
   28.8424    0.8751  105.8630 O   0  0  0  0  0  0  0  0  0  0  0  0
   29.1337   -0.2736  105.0531 C   0  0  2  0  0  0  0  0  0  0  0  0
   34.2703   -3.8153  107.9788 N   0  0  0  0  0  0  0  0  0  0  0  0
   26.8270   -0.0215  104.5444 O   0  0  0  0  0  0  0  0  0  0  0  0
   28.1023   -0.4601  104.0266 C   0  0  2  0  0  0  0  0  0  0  0  0
   32.0603   -2.8643  107.2741 C   0  0  0  0  0  0  0  0  0  0  0  0
   29.7971   -3.9228  107.5447 N   0  0  0  0  0  0  0  0  0  0  0  0
   28.8297   -3.5983  102.3393 O   0  0  0  0  0  0  0  0  0  0  0  0
   28.9702   -2.2456  102.6495 C   0  0  0  0  0  0  0  0  0  0  0  0
   31.1352   -3.9196  101.2286 O   0  0  0  0  0  0  0  0  0  0  0  0
   31.4846   -1.1486  106.0669 C   0  0  0  0  0  0  0  0  0  0  0  0
   32.3134   -4.6945  108.7443 O   0  0  0  0  0  0  0  0  0  0  0  0
   32.8754   -3.8504  108.0511 C   0  0  0  0  0  0  0  0  0  0  0  0
   30.6902   -2.9254  107.0647 C   0  0  0  0  0  0  0  0  0  0  0  0
   29.0550   -3.5426   99.8369 O   0  5  0  0  0  0  0  0  0  0  0  0
   29.2684   -5.5950  100.8653 O   0  0  0  0  0  0  0  0  0  0  0  0
  1 17  1  0  0  0  0
  1 20  1  0  0  0  0
  2 15  1  6  0  0  0
  2  3  1  0  0  0  0
  2 11  1  0  0  0  0
  3  5  1  0  0  0  0
  4 16  1  1  0  0  0
  4 21  1  0  0  0  0
  4 22  2  0  0  0  0
  4 14  1  0  0  0  0
  5  1  1  6  0  0  0
  5  8  1  0  0  0  0
  6 17  2  0  0  0  0
  6 12  1  0  0  0  0
  8  7  1  1  0  0  0
  8 11  1  0  0  0  0
  9 19  1  0  0  0  0
 11 10  1  1  0  0  0
 12 20  2  0  0  0  0
 12 19  1  0  0  0  0
 13 20  1  0  0  0  0
 14 15  1  0  0  0  0
 18 19  2  0  0  0  0
M  CHG  1  21  -1
M  END
>  <CHROM.1>
118.95033346,69.05490113,59.01950028,173.81404721,-11.76367268,29.99879632
-2.64756420,104.58824694,0.95213987,-0.77236403,1.02032916

>  <Name>
ligand

>  <RI>
0

>  <Rbt.Current_Directory>
/home/itssahil/PROJECTS/Mol_Feturizer/New_Systems/rnas/4XW7

>  <Rbt.Executable>
rbdock ($Id: //depot/dev/client3/rdock/2013.1/src/exe/rbdock.cxx#4 $)

>  <Rbt.Library>
libRbt.so (2013.1, Build901 2013/11/27)

>  <Rbt.Parameter_File>
/export/apps/rDock/src/rDock_2013.1_src/data/scripts/dock_solv.prm

>  <Rbt.Receptor>
prm/pocket_docking_6.prm

>  <SCORE>
-10.6654

>  <SCORE.INTER>
-11.1913

>  <SCORE.INTER.CONST>
1

>  <SCORE.INTER.POLAR>
0

>  <SCORE.INTER.ROT>
5

>  <SCORE.INTER.SOLV>
17.6245

>  <SCORE.INTER.VDW>
-20.269

>  <SCORE.INTER.norm>
-0.508696

>  <SCORE.INTRA>
0.516058

>  <SCORE.INTRA.DIHEDRAL>
-0.499948

>  <SCORE.INTRA.DIHEDRAL.0>
2.61549

>  <SCORE.INTRA.POLAR>
0

>  <SCORE.INTRA.POLAR.0>
0

>  <SCORE.INTRA.REPUL>
0

>  <SCORE.INTRA.REPUL.0>
0

>  <SCORE.INTRA.SOLV>
-0.400409

>  <SCORE.INTRA.SOLV.lig_0>
-73.766

>  <SCORE.INTRA.VDW>
0.966237

>  <SCORE.INTRA.VDW.0>
-1.95055

>  <SCORE.INTRA.norm>
0.0234572

>  <SCORE.RESTR>
0.00982325

>  <SCORE.RESTR.CAVITY>
0.00982325

>  <SCORE.RESTR.norm>
0.000446511

>  <SCORE.SYSTEM>
0

>  <SCORE.SYSTEM.CONST>
0

>  <SCORE.SYSTEM.DIHEDRAL>
0

>  <SCORE.SYSTEM.SOLV>
0

>  <SCORE.SYSTEM.norm>
0

>  <SCORE.heavy>
22

>  <SCORE.norm>
-0.484792

>  <RMSD>
5.359

$$$$
ligand
 OpenBabel11021811513D
libRbt.so/2013.1/901 2013/11/27
 22 23  0  0  0  0  0  0  0  0999 V2000
   30.3636   -1.8353  106.3486 N   0  0  0  0  0  0  0  0  0  0  0  0
   28.0884   -1.9078  103.7935 C   0  0  1  0  0  0  0  0  0  0  0  0
   28.5549   -2.5478  105.0321 O   0  0  0  0  0  0  0  0  0  0  0  0
   29.5435   -4.1643  101.0868 P   0  0  2  0  0  0  0  0  0  0  0  0
   29.0862   -1.4958  105.8906 C   0  0  2  0  0  0  0  0  0  0  0  0
   32.5280   -1.7764  106.7000 N   0  0  0  0  0  0  0  0  0  0  0  0
   28.8494    0.8834  105.8707 O   0  0  0  0  0  0  0  0  0  0  0  0
   29.1448   -0.2705  105.0696 C   0  0  2  0  0  0  0  0  0  0  0  0
   34.1116   -3.4774  108.6064 N   0  0  0  0  0  0  0  0  0  0  0  0
   26.8443   -0.0127  104.5361 O   0  0  0  0  0  0  0  0  0  0  0  0
   28.1233   -0.4585  104.0336 C   0  0  2  0  0  0  0  0  0  0  0  0
   32.0370   -2.8523  107.3453 C   0  0  0  0  0  0  0  0  0  0  0  0
   29.7613   -3.8793  107.6314 N   0  0  0  0  0  0  0  0  0  0  0  0
   28.8810   -3.6151  102.3920 O   0  0  0  0  0  0  0  0  0  0  0  0
   28.9987   -2.2542  102.6746 C   0  0  0  0  0  0  0  0  0  0  0  0
   29.0441   -3.3280   99.8341 O   0  0  0  0  0  0  0  0  0  0  0  0
   31.4856   -1.1618  106.0921 C   0  0  0  0  0  0  0  0  0  0  0  0
   32.3744   -4.9365  108.4024 O   0  0  0  0  0  0  0  0  0  0  0  0
   32.8377   -3.8269  108.1511 C   0  0  0  0  0  0  0  0  0  0  0  0
   30.6674   -2.9040  107.1307 C   0  0  0  0  0  0  0  0  0  0  0  0
   29.2674   -5.6079  100.9104 O   0  5  0  0  0  0  0  0  0  0  0  0
   31.0282   -4.1447  101.1833 O   0  0  0  0  0  0  0  0  0  0  0  0
  1 17  1  0  0  0  0
  1 20  1  0  0  0  0
  2 15  1  6  0  0  0
  2  3  1  0  0  0  0
  2 11  1  0  0  0  0
  3  5  1  0  0  0  0
  4 16  1  6  0  0  0
  4 21  1  0  0  0  0
  4 22  2  0  0  0  0
  4 14  1  0  0  0  0
  5  1  1  6  0  0  0
  5  8  1  0  0  0  0
  6 17  2  0  0  0  0
  6 12  1  0  0  0  0
  8  7  1  1  0  0  0
  8 11  1  0  0  0  0
  9 19  1  0  0  0  0
 11 10  1  1  0  0  0
 12 20  2  0  0  0  0
 12 19  1  0  0  0  0
 13 20  1  0  0  0  0
 14 15  1  0  0  0  0
 18 19  2  0  0  0  0
M  CHG  1  21  -1
M  END
>  <CHROM.1>
117.68019062,67.57929874,-53.66086229,168.99921856,18.40027545,29.98822108
-2.64334126,104.62256869,0.94644173,-0.79357278,1.00224797

>  <Name>
ligand

>  <RI>
0

>  <Rbt.Current_Directory>
/home/itssahil/PROJECTS/Mol_Feturizer/New_Systems/rnas/4XW7

>  <Rbt.Executable>
rbdock ($Id: //depot/dev/client3/rdock/2013.1/src/exe/rbdock.cxx#4 $)

>  <Rbt.Library>
libRbt.so (2013.1, Build901 2013/11/27)

>  <Rbt.Parameter_File>
/export/apps/rDock/src/rDock_2013.1_src/data/scripts/dock_solv.prm

>  <Rbt.Receptor>
prm/pocket_docking_6.prm

>  <SCORE>
-9.40803

>  <SCORE.INTER>
-10.1089

>  <SCORE.INTER.CONST>
1

>  <SCORE.INTER.POLAR>
0

>  <SCORE.INTER.ROT>
5

>  <SCORE.INTER.SOLV>
18.3533

>  <SCORE.INTER.VDW>
-19.7904

>  <SCORE.INTER.norm>
-0.459495

>  <SCORE.INTRA>
0.700858

>  <SCORE.INTRA.DIHEDRAL>
0.0758559

>  <SCORE.INTRA.DIHEDRAL.0>
2.61549

>  <SCORE.INTRA.POLAR>
0

>  <SCORE.INTRA.POLAR.0>
0

>  <SCORE.INTRA.REPUL>
0

>  <SCORE.INTRA.REPUL.0>
0

>  <SCORE.INTRA.SOLV>
-0.55338

>  <SCORE.INTRA.SOLV.lig_0>
-73.766

>  <SCORE.INTRA.VDW>
0.93962

>  <SCORE.INTRA.VDW.0>
-1.95055

>  <SCORE.INTRA.norm>
0.0318572

>  <SCORE.RESTR>
0

>  <SCORE.RESTR.CAVITY>
0

>  <SCORE.RESTR.norm>
0

>  <SCORE.SYSTEM>
0

>  <SCORE.SYSTEM.CONST>
0

>  <SCORE.SYSTEM.DIHEDRAL>
0

>  <SCORE.SYSTEM.SOLV>
0

>  <SCORE.SYSTEM.norm>
0

>  <SCORE.heavy>
22

>  <SCORE.norm>
-0.427638

>  <RMSD>
5.362

$$$$
ligand
 OpenBabel11021811513D
libRbt.so/2013.1/901 2013/11/27
 22 23  0  0  0  0  0  0  0  0999 V2000
   30.3765   -1.7644  106.2199 N   0  0  0  0  0  0  0  0  0  0  0  0
   28.0676   -2.1698  103.7270 C   0  0  1  0  0  0  0  0  0  0  0  0
   28.6405   -2.7227  104.9628 O   0  0  0  0  0  0  0  0  0  0  0  0
   29.7285   -4.2612  100.9999 P   0  0  2  0  0  0  0  0  0  0  0  0
   29.0559   -1.5964  105.7904 C   0  0  2  0  0  0  0  0  0  0  0  0
   32.5387   -1.4756  106.4502 N   0  0  0  0  0  0  0  0  0  0  0  0
   28.5215    0.7336  105.7392 O   0  0  0  0  0  0  0  0  0  0  0  0
   28.9402   -0.3891  104.9489 C   0  0  2  0  0  0  0  0  0  0  0  0
   32.8058   -3.4462  109.4797 N   0  0  0  0  0  0  0  0  0  0  0  0
   26.6134   -0.4317  104.4720 O   0  0  0  0  0  0  0  0  0  0  0  0
   27.9258   -0.7232  103.9431 C   0  0  2  0  0  0  0  0  0  0  0  0
   32.1751   -2.5005  107.2453 C   0  0  0  0  0  0  0  0  0  0  0  0
   30.0167   -3.6761  107.7699 N   0  0  0  0  0  0  0  0  0  0  0  0
   28.9795   -3.7818  102.2858 O   0  0  0  0  0  0  0  0  0  0  0  0
   28.9870   -2.4205  102.5901 C   0  0  0  0  0  0  0  0  0  0  0  0
   29.2032   -3.4568   99.7370 O   0  0  0  0  0  0  0  0  0  0  0  0
   31.4206   -1.0341  105.8266 C   0  0  0  0  0  0  0  0  0  0  0  0
   34.1046   -3.8021  107.6427 O   0  0  0  0  0  0  0  0  0  0  0  0
   33.0937   -3.2939  108.1210 C   0  0  0  0  0  0  0  0  0  0  0  0
   30.8084   -2.6967  107.1091 C   0  0  0  0  0  0  0  0  0  0  0  0
   29.5797   -5.7209  100.8041 O   0  5  0  0  0  0  0  0  0  0  0  0
   31.2024   -4.1194  101.1470 O   0  0  0  0  0  0  0  0  0  0  0  0
  1 17  1  0  0  0  0
  1 20  1  0  0  0  0
  2 15  1  6  0  0  0
  2  3  1  0  0  0  0
  2 11  1  0  0  0  0
  3  5  1  0  0  0  0
  4 16  1  6  0  0  0
  4 21  1  0  0  0  0
  4 22  2  0  0  0  0
  4 14  1  0  0  0  0
  5  1  1  6  0  0  0
  5  8  1  0  0  0  0
  6 17  2  0  0  0  0
  6 12  1  0  0  0  0
  8  7  1  1  0  0  0
  8 11  1  0  0  0  0
  9 19  1  0  0  0  0
 11 10  1  1  0  0  0
 12 20  2  0  0  0  0
 12 19  1  0  0  0  0
 13 20  1  0  0  0  0
 14 15  1  0  0  0  0
 18 19  2  0  0  0  0
M  CHG  1  21  -1
M  END
>  <CHROM.1>
111.14375400,70.73911359,-54.39121771,172.05066748,126.74296379,30.05793722
-2.61837070,104.54094293,1.04838823,-0.65783387,1.06157754

>  <Name>
ligand

>  <RI>
0

>  <Rbt.Current_Directory>
/home/itssahil/PROJECTS/Mol_Feturizer/New_Systems/rnas/4XW7

>  <Rbt.Executable>
rbdock ($Id: //depot/dev/client3/rdock/2013.1/src/exe/rbdock.cxx#4 $)

>  <Rbt.Library>
libRbt.so (2013.1, Build901 2013/11/27)

>  <Rbt.Parameter_File>
/export/apps/rDock/src/rDock_2013.1_src/data/scripts/dock_solv.prm

>  <Rbt.Receptor>
prm/pocket_docking_6.prm

>  <SCORE>
-10.3334

>  <SCORE.INTER>
-10.7208

>  <SCORE.INTER.CONST>
1

>  <SCORE.INTER.POLAR>
0

>  <SCORE.INTER.ROT>
5

>  <SCORE.INTER.SOLV>
16.2263

>  <SCORE.INTER.VDW>
-19.4893

>  <SCORE.INTER.norm>
-0.487309

>  <SCORE.INTRA>
0.365537

>  <SCORE.INTRA.DIHEDRAL>
-0.312603

>  <SCORE.INTRA.DIHEDRAL.0>
2.61549

>  <SCORE.INTRA.POLAR>
0

>  <SCORE.INTRA.POLAR.0>
0

>  <SCORE.INTRA.REPUL>
0

>  <SCORE.INTRA.REPUL.0>
0

>  <SCORE.INTRA.SOLV>
-0.573654

>  <SCORE.INTRA.SOLV.lig_0>
-73.766

>  <SCORE.INTRA.VDW>
0.808666

>  <SCORE.INTRA.VDW.0>
-1.95055

>  <SCORE.INTRA.norm>
0.0166153

>  <SCORE.RESTR>
0.0218743

>  <SCORE.RESTR.CAVITY>
0.0218743

>  <SCORE.RESTR.norm>
0.000994287

>  <SCORE.SYSTEM>
0

>  <SCORE.SYSTEM.CONST>
0

>  <SCORE.SYSTEM.DIHEDRAL>
0

>  <SCORE.SYSTEM.SOLV>
0

>  <SCORE.SYSTEM.norm>
0

>  <SCORE.heavy>
22

>  <SCORE.norm>
-0.4697

>  <RMSD>
5.362

$$$$
ligand
 OpenBabel11021811513D
libRbt.so/2013.1/901 2013/11/27
 22 23  0  0  0  0  0  0  0  0999 V2000
   30.5035   -1.7090  106.3073 N   0  0  0  0  0  0  0  0  0  0  0  0
   28.1393   -2.0136  103.8522 C   0  0  1  0  0  0  0  0  0  0  0  0
   28.7075   -2.5910  105.0790 O   0  0  0  0  0  0  0  0  0  0  0  0
   29.6315   -4.1662  101.0774 P   0  0  2  0  0  0  0  0  0  0  0  0
   29.1847   -1.4837  105.8990 C   0  0  2  0  0  0  0  0  0  0  0  0
   32.6798   -1.5154  106.5015 N   0  0  0  0  0  0  0  0  0  0  0  0
   28.7514    0.8673  105.8547 O   0  0  0  0  0  0  0  0  0  0  0  0
   29.1081   -0.2726  105.0586 C   0  0  2  0  0  0  0  0  0  0  0  0
   32.9319   -3.4588  109.5384 N   0  0  0  0  0  0  0  0  0  0  0  0
   26.7742   -0.2140  104.6192 O   0  0  0  0  0  0  0  0  0  0  0  0
   28.0640   -0.5623  104.0696 C   0  0  2  0  0  0  0  0  0  0  0  0
   32.2845   -2.5218  107.3051 C   0  0  0  0  0  0  0  0  0  0  0  0
   30.0854   -3.6001  107.8679 N   0  0  0  0  0  0  0  0  0  0  0  0
   28.9463   -3.6611  102.3887 O   0  0  0  0  0  0  0  0  0  0  0  0
   29.0285   -2.3041  102.7008 C   0  0  0  0  0  0  0  0  0  0  0  0
   31.2072   -4.0282  101.2032 O   0  0  0  0  0  0  0  0  0  0  0  0
   31.5722   -1.0261  105.8952 C   0  0  0  0  0  0  0  0  0  0  0  0
   34.1416   -3.9343  107.6678 O   0  0  0  0  0  0  0  0  0  0  0  0
   33.1816   -3.3533  108.1678 C   0  0  0  0  0  0  0  0  0  0  0  0
   30.9085   -2.6578  107.1917 C   0  0  0  0  0  0  0  0  0  0  0  0
   29.1240   -3.4397   99.8917 O   0  5  0  0  0  0  0  0  0  0  0  0
   29.2422   -5.5688  100.7684 O   0  0  0  0  0  0  0  0  0  0  0  0
  1 17  1  0  0  0  0
  1 20  1  0  0  0  0
  2 15  1  6  0  0  0
  2  3  1  0  0  0  0
  2 11  1  0  0  0  0
  3  5  1  0  0  0  0
  4 16  1  1  0  0  0
  4 21  1  0  0  0  0
  4 22  2  0  0  0  0
  4 14  1  0  0  0  0
  5  1  1  6  0  0  0
  5  8  1  0  0  0  0
  6 17  2  0  0  0  0
  6 12  1  0  0  0  0
  8  7  1  1  0  0  0
  8 11  1  0  0  0  0
  9 19  1  0  0  0  0
 11 10  1  1  0  0  0
 12 20  2  0  0  0  0
 12 19  1  0  0  0  0
 13 20  1  0  0  0  0
 14 15  1  0  0  0  0
 18 19  2  0  0  0  0
M  CHG  1  21  -1
M  END
>  <CHROM.1>
111.03068271,71.35141114,67.00021359,171.06259087,124.88387629,30.10911176
-2.54513816,104.62668858,1.00111560,-0.68280712,1.03075023

>  <Name>
ligand

>  <RI>
0

>  <Rbt.Current_Directory>
/home/itssahil/PROJECTS/Mol_Feturizer/New_Systems/rnas/4XW7

>  <Rbt.Executable>
rbdock ($Id: //depot/dev/client3/rdock/2013.1/src/exe/rbdock.cxx#4 $)

>  <Rbt.Library>
libRbt.so (2013.1, Build901 2013/11/27)

>  <Rbt.Parameter_File>
/export/apps/rDock/src/rDock_2013.1_src/data/scripts/dock_solv.prm

>  <Rbt.Receptor>
prm/pocket_docking_6.prm

>  <SCORE>
-11.1934

>  <SCORE.INTER>
-11.7017

>  <SCORE.INTER.CONST>
1

>  <SCORE.INTER.POLAR>
0

>  <SCORE.INTER.ROT>
5

>  <SCORE.INTER.SOLV>
14.1614

>  <SCORE.INTER.VDW>
-19.4549

>  <SCORE.INTER.norm>
-0.531893

>  <SCORE.INTRA>
0.501263

>  <SCORE.INTRA.DIHEDRAL>
-0.183157

>  <SCORE.INTRA.DIHEDRAL.0>
2.61549

>  <SCORE.INTRA.POLAR>
0

>  <SCORE.INTRA.POLAR.0>
0

>  <SCORE.INTRA.REPUL>
0

>  <SCORE.INTRA.REPUL.0>
0

>  <SCORE.INTRA.SOLV>
-0.435848

>  <SCORE.INTRA.SOLV.lig_0>
-73.766

>  <SCORE.INTRA.VDW>
0.810765

>  <SCORE.INTRA.VDW.0>
-1.95055

>  <SCORE.INTRA.norm>
0.0227847

>  <SCORE.RESTR>
0.00700998

>  <SCORE.RESTR.CAVITY>
0.00700998

>  <SCORE.RESTR.norm>
0.000318636

>  <SCORE.SYSTEM>
0

>  <SCORE.SYSTEM.CONST>
0

>  <SCORE.SYSTEM.DIHEDRAL>
0

>  <SCORE.SYSTEM.SOLV>
0

>  <SCORE.SYSTEM.norm>
0

>  <SCORE.heavy>
22

>  <SCORE.norm>
-0.50879

>  <RMSD>
5.366

$$$$
ligand
 OpenBabel11021811513D
libRbt.so/2013.1/901 2013/11/27
 22 23  0  0  0  0  0  0  0  0999 V2000
   30.5127   -1.6896  106.2722 N   0  0  0  0  0  0  0  0  0  0  0  0
   28.1471   -1.9746  103.8160 C   0  0  1  0  0  0  0  0  0  0  0  0
   28.7006   -2.5485  105.0512 O   0  0  0  0  0  0  0  0  0  0  0  0
   29.5655   -4.1900  101.0567 P   0  0  2  0  0  0  0  0  0  0  0  0
   29.1998   -1.4414  105.8583 C   0  0  2  0  0  0  0  0  0  0  0  0
   32.6852   -1.5042  106.5127 N   0  0  0  0  0  0  0  0  0  0  0  0
   28.8167    0.9175  105.7837 O   0  0  0  0  0  0  0  0  0  0  0  0
   29.1505   -0.2395  105.0027 C   0  0  2  0  0  0  0  0  0  0  0  0
   32.7994   -3.7820  109.3710 N   0  0  0  0  0  0  0  0  0  0  0  0
   26.8193   -0.1369  104.5577 O   0  0  0  0  0  0  0  0  0  0  0  0
   28.1024   -0.5193  104.0151 C   0  0  2  0  0  0  0  0  0  0  0  0
   32.2805   -2.5607  107.2441 C   0  0  0  0  0  0  0  0  0  0  0  0
   30.0761   -3.6772  107.7023 N   0  0  0  0  0  0  0  0  0  0  0  0
   28.9327   -3.6600  102.3844 O   0  0  0  0  0  0  0  0  0  0  0  0
   29.0321   -2.2983  102.6703 C   0  0  0  0  0  0  0  0  0  0  0  0
   28.9980   -3.3697   99.8225 O   0  0  0  0  0  0  0  0  0  0  0  0
   31.5857   -0.9796  105.9213 C   0  0  0  0  0  0  0  0  0  0  0  0
   34.2201   -3.8614  107.5923 O   0  0  0  0  0  0  0  0  0  0  0  0
   33.1665   -3.4436  108.0661 C   0  0  0  0  0  0  0  0  0  0  0  0
   30.9068   -2.6919  107.1006 C   0  0  0  0  0  0  0  0  0  0  0  0
   29.3268   -5.6413  100.8894 O   0  5  0  0  0  0  0  0  0  0  0  0
   31.0514   -4.1259  101.1014 O   0  0  0  0  0  0  0  0  0  0  0  0
  1 17  1  0  0  0  0
  1 20  1  0  0  0  0
  2 15  1  6  0  0  0
  2  3  1  0  0  0  0
  2 11  1  0  0  0  0
  3  5  1  0  0  0  0
  4 16  1  6  0  0  0
  4 21  1  0  0  0  0
  4 22  2  0  0  0  0
  4 14  1  0  0  0  0
  5  1  1  6  0  0  0
  5  8  1  0  0  0  0
  6 17  2  0  0  0  0
  6 12  1  0  0  0  0
  8  7  1  1  0  0  0
  8 11  1  0  0  0  0
  9 19  1  0  0  0  0
 11 10  1  1  0  0  0
 12 20  2  0  0  0  0
 12 19  1  0  0  0  0
 13 20  1  0  0  0  0
 14 15  1  0  0  0  0
 18 19  2  0  0  0  0
M  CHG  1  21  -1
M  END
>  <CHROM.1>
115.67858281,70.70493014,-54.34731216,168.84618886,133.50756431,30.10008080
-2.55392545,104.57842179,0.96938145,-0.71079376,1.00171315

>  <Name>
ligand

>  <RI>
0

>  <Rbt.Current_Directory>
/home/itssahil/PROJECTS/Mol_Feturizer/New_Systems/rnas/4XW7

>  <Rbt.Executable>
rbdock ($Id: //depot/dev/client3/rdock/2013.1/src/exe/rbdock.cxx#4 $)

>  <Rbt.Library>
libRbt.so (2013.1, Build901 2013/11/27)

>  <Rbt.Parameter_File>
/export/apps/rDock/src/rDock_2013.1_src/data/scripts/dock_solv.prm

>  <Rbt.Receptor>
prm/pocket_docking_7.prm

>  <SCORE>
-10.4862

>  <SCORE.INTER>
-11.1556

>  <SCORE.INTER.CONST>
1

>  <SCORE.INTER.POLAR>
0

>  <SCORE.INTER.ROT>
5

>  <SCORE.INTER.SOLV>
17.0919

>  <SCORE.INTER.VDW>
-20.0677

>  <SCORE.INTER.norm>
-0.507072

>  <SCORE.INTRA>
0.669375

>  <SCORE.INTRA.DIHEDRAL>
0.121947

>  <SCORE.INTRA.DIHEDRAL.0>
2.61549

>  <SCORE.INTRA.POLAR>
0

>  <SCORE.INTRA.POLAR.0>
0

>  <SCORE.INTRA.REPUL>
0

>  <SCORE.INTRA.REPUL.0>
0

>  <SCORE.INTRA.SOLV>
-0.477667

>  <SCORE.INTRA.SOLV.lig_0>
-73.766

>  <SCORE.INTRA.VDW>
0.847235

>  <SCORE.INTRA.VDW.0>
-1.95055

>  <SCORE.INTRA.norm>
0.0304261

>  <SCORE.RESTR>
0

>  <SCORE.RESTR.CAVITY>
0

>  <SCORE.RESTR.norm>
0

>  <SCORE.SYSTEM>
0

>  <SCORE.SYSTEM.CONST>
0

>  <SCORE.SYSTEM.DIHEDRAL>
0

>  <SCORE.SYSTEM.SOLV>
0

>  <SCORE.SYSTEM.norm>
0

>  <SCORE.heavy>
22

>  <SCORE.norm>
-0.476646

>  <RMSD>
5.372

$$$$
ligand
 OpenBabel11021811513D
libRbt.so/2013.1/901 2013/11/27
 22 23  0  0  0  0  0  0  0  0999 V2000
   30.4426   -1.7617  106.2662 N   0  0  0  0  0  0  0  0  0  0  0  0
   28.1344   -1.9091  103.7442 C   0  0  1  0  0  0  0  0  0  0  0  0
   28.6227   -2.5179  104.9901 O   0  0  0  0  0  0  0  0  0  0  0  0
   29.6065   -4.2126  101.0802 P   0  0  2  0  0  0  0  0  0  0  0  0
   29.1564   -1.4428  105.8181 C   0  0  2  0  0  0  0  0  0  0  0  0
   32.6083   -1.6673  106.6017 N   0  0  0  0  0  0  0  0  0  0  0  0
   28.8992    0.9333  105.7492 O   0  0  0  0  0  0  0  0  0  0  0  0
   29.1937   -0.2354  104.9697 C   0  0  2  0  0  0  0  0  0  0  0  0
   34.3564   -3.6881  107.9534 N   0  0  0  0  0  0  0  0  0  0  0  0
   26.8842   -0.0084  104.4617 O   0  0  0  0  0  0  0  0  0  0  0  0
   28.1601   -0.4547  103.9519 C   0  0  2  0  0  0  0  0  0  0  0  0
   32.1400   -2.7520  107.2492 C   0  0  0  0  0  0  0  0  0  0  0  0
   29.8838   -3.8169  107.5507 N   0  0  0  0  0  0  0  0  0  0  0  0
   28.8980   -3.6339  102.3481 O   0  0  0  0  0  0  0  0  0  0  0  0
   29.0326   -2.2726  102.6210 C   0  0  0  0  0  0  0  0  0  0  0  0
   31.1755   -4.0065  101.1965 O   0  0  0  0  0  0  0  0  0  0  0  0
   31.5514   -1.0693  106.0023 C   0  0  0  0  0  0  0  0  0  0  0  0
   32.4078   -4.5310  108.7784 O   0  0  0  0  0  0  0  0  0  0  0  0
   32.9627   -3.7141  108.0478 C   0  0  0  0  0  0  0  0  0  0  0  0
   30.7698   -2.8261  107.0446 C   0  0  0  0  0  0  0  0  0  0  0  0
   29.0769   -3.5990   99.8415 O   0  5  0  0  0  0  0  0  0  0  0  0
   29.2708   -5.6483  100.8800 O   0  0  0  0  0  0  0  0  0  0  0  0
  1 17  1  0  0  0  0
  1 20  1  0  0  0  0
  2 15  1  6  0  0  0
  2  3  1  0  0  0  0
  2 11  1  0  0  0  0
  3  5  1  0  0  0  0
  4 16  1  1  0  0  0
  4 21  1  0  0  0  0
  4 22  2  0  0  0  0
  4 14  1  0  0  0  0
  5  1  1  6  0  0  0
  5  8  1  0  0  0  0
  6 17  2  0  0  0  0
  6 12  1  0  0  0  0
  8  7  1  1  0  0  0
  8 11  1  0  0  0  0
  9 19  1  0  0  0  0
 11 10  1  1  0  0  0
 12 20  2  0  0  0  0
 12 19  1  0  0  0  0
 13 20  1  0  0  0  0
 14 15  1  0  0  0  0
 18 19  2  0  0  0  0
M  CHG  1  21  -1
M  END
>  <CHROM.1>
119.13545022,69.04629708,61.17089881,172.08187204,-12.89010438,30.05946960
-2.61515129,104.55913314,0.94882141,-0.76708062,0.99097273

>  <Name>
ligand

>  <RI>
0

>  <Rbt.Current_Directory>
/home/itssahil/PROJECTS/Mol_Feturizer/New_Systems/rnas/4XW7

>  <Rbt.Executable>
rbdock ($Id: //depot/dev/client3/rdock/2013.1/src/exe/rbdock.cxx#4 $)

>  <Rbt.Library>
libRbt.so (2013.1, Build901 2013/11/27)

>  <Rbt.Parameter_File>
/export/apps/rDock/src/rDock_2013.1_src/data/scripts/dock_solv.prm

>  <Rbt.Receptor>
prm/pocket_docking_7.prm

>  <SCORE>
-10.9932

>  <SCORE.INTER>
-11.5891

>  <SCORE.INTER.CONST>
1

>  <SCORE.INTER.POLAR>
0

>  <SCORE.INTER.ROT>
5

>  <SCORE.INTER.SOLV>
17.7852

>  <SCORE.INTER.VDW>
-20.5878

>  <SCORE.INTER.norm>
-0.526776

>  <SCORE.INTRA>
0.595926

>  <SCORE.INTRA.DIHEDRAL>
-0.353357

>  <SCORE.INTRA.DIHEDRAL.0>
2.61549

>  <SCORE.INTRA.POLAR>
0

>  <SCORE.INTRA.POLAR.0>
0

>  <SCORE.INTRA.REPUL>
0

>  <SCORE.INTRA.REPUL.0>
0

>  <SCORE.INTRA.SOLV>
-0.382038

>  <SCORE.INTRA.SOLV.lig_0>
-73.766

>  <SCORE.INTRA.VDW>
0.963624

>  <SCORE.INTRA.VDW.0>
-1.95055

>  <SCORE.INTRA.norm>
0.0270876

>  <SCORE.RESTR>
0

>  <SCORE.RESTR.CAVITY>
0

>  <SCORE.RESTR.norm>
0

>  <SCORE.SYSTEM>
0

>  <SCORE.SYSTEM.CONST>
0

>  <SCORE.SYSTEM.DIHEDRAL>
0

>  <SCORE.SYSTEM.SOLV>
0

>  <SCORE.SYSTEM.norm>
0

>  <SCORE.heavy>
22

>  <SCORE.norm>
-0.499689

>  <RMSD>
5.373

$$$$
ligand
 OpenBabel11021811513D
libRbt.so/2013.1/901 2013/11/27
 22 23  0  0  0  0  0  0  0  0999 V2000
   30.4429   -1.7626  106.2721 N   0  0  0  0  0  0  0  0  0  0  0  0
   28.1356   -1.9044  103.7489 C   0  0  1  0  0  0  0  0  0  0  0  0
   28.6219   -2.5144  104.9950 O   0  0  0  0  0  0  0  0  0  0  0  0
   29.6095   -4.2103  101.0868 P   0  0  2  0  0  0  0  0  0  0  0  0
   29.1577   -1.4407  105.8234 C   0  0  2  0  0  0  0  0  0  0  0  0
   32.6077   -1.6699  106.6139 N   0  0  0  0  0  0  0  0  0  0  0  0
   28.9059    0.9360  105.7547 O   0  0  0  0  0  0  0  0  0  0  0  0
   29.1981   -0.2333  104.9752 C   0  0  2  0  0  0  0  0  0  0  0  0
   34.3541   -3.6869  107.9696 N   0  0  0  0  0  0  0  0  0  0  0  0
   26.8894   -0.0009  104.4661 O   0  0  0  0  0  0  0  0  0  0  0  0
   28.1646   -0.4500  103.9568 C   0  0  2  0  0  0  0  0  0  0  0  0
   32.1383   -2.7601  107.2512 C   0  0  0  0  0  0  0  0  0  0  0  0
   29.8819   -3.8287  107.5382 N   0  0  0  0  0  0  0  0  0  0  0  0
   28.8881   -3.6285  102.3459 O   0  0  0  0  0  0  0  0  0  0  0  0
   29.0336   -2.2698  102.6261 C   0  0  0  0  0  0  0  0  0  0  0  0
   31.1807   -4.0534  101.2436 O   0  0  0  0  0  0  0  0  0  0  0  0
   31.5520   -1.0675  106.0168 C   0  0  0  0  0  0  0  0  0  0  0  0
   32.4028   -4.5638  108.7518 O   0  0  0  0  0  0  0  0  0  0  0  0
   32.9595   -3.7284  108.0439 C   0  0  0  0  0  0  0  0  0  0  0  0
   30.7687   -2.8333  107.0425 C   0  0  0  0  0  0  0  0  0  0  0  0
   29.1288   -3.5636   99.8452 O   0  5  0  0  0  0  0  0  0  0  0  0
   29.2360   -5.6323  100.8574 O   0  0  0  0  0  0  0  0  0  0  0  0
  1 17  1  0  0  0  0
  1 20  1  0  0  0  0
  2 15  1  6  0  0  0
  2  3  1  0  0  0  0
  2 11  1  0  0  0  0
  3  5  1  0  0  0  0
  4 16  1  1  0  0  0
  4 21  1  0  0  0  0
  4 22  2  0  0  0  0
  4 14  1  0  0  0  0
  5  1  1  6  0  0  0
  5  8  1  0  0  0  0
  6 17  2  0  0  0  0
  6 12  1  0  0  0  0
  8  7  1  1  0  0  0
  8 11  1  0  0  0  0
  9 19  1  0  0  0  0
 11 10  1  1  0  0  0
 12 20  2  0  0  0  0
 12 19  1  0  0  0  0
 13 20  1  0  0  0  0
 14 15  1  0  0  0  0
 18 19  2  0  0  0  0
M  CHG  1  21  -1
M  END
>  <CHROM.1>
119.64100779,69.51382605,62.51761220,172.83785945,-11.86946555,30.06076353
-2.61634546,104.56279336,0.94639194,-0.76947675,0.98979021

>  <Name>
ligand

>  <RI>
0

>  <Rbt.Current_Directory>
/home/itssahil/PROJECTS/Mol_Feturizer/New_Systems/rnas/4XW7

>  <Rbt.Executable>
rbdock ($Id: //depot/dev/client3/rdock/2013.1/src/exe/rbdock.cxx#4 $)

>  <Rbt.Library>
libRbt.so (2013.1, Build901 2013/11/27)

>  <Rbt.Parameter_File>
/export/apps/rDock/src/rDock_2013.1_src/data/scripts/dock_solv.prm

>  <Rbt.Receptor>
prm/pocket_docking_7.prm

>  <SCORE>
-11.0166

>  <SCORE.INTER>
-11.6055

>  <SCORE.INTER.CONST>
1

>  <SCORE.INTER.POLAR>
0

>  <SCORE.INTER.ROT>
5

>  <SCORE.INTER.SOLV>
17.8962

>  <SCORE.INTER.VDW>
-20.6358

>  <SCORE.INTER.norm>
-0.527525

>  <SCORE.INTRA>
0.588969

>  <SCORE.INTRA.DIHEDRAL>
-0.396705

>  <SCORE.INTRA.DIHEDRAL.0>
2.61549

>  <SCORE.INTRA.POLAR>
0

>  <SCORE.INTRA.POLAR.0>
0

>  <SCORE.INTRA.REPUL>
0

>  <SCORE.INTRA.REPUL.0>
0

>  <SCORE.INTRA.SOLV>
-0.358721

>  <SCORE.INTRA.SOLV.lig_0>
-73.766

>  <SCORE.INTRA.VDW>
0.966682

>  <SCORE.INTRA.VDW.0>
-1.95055

>  <SCORE.INTRA.norm>
0.0267713

>  <SCORE.RESTR>
0

>  <SCORE.RESTR.CAVITY>
0

>  <SCORE.RESTR.norm>
0

>  <SCORE.SYSTEM>
0

>  <SCORE.SYSTEM.CONST>
0

>  <SCORE.SYSTEM.DIHEDRAL>
0

>  <SCORE.SYSTEM.SOLV>
0

>  <SCORE.SYSTEM.norm>
0

>  <SCORE.heavy>
22

>  <SCORE.norm>
-0.500753

>  <RMSD>
5.374

$$$$
ligand
 OpenBabel11021811513D
libRbt.so/2013.1/901 2013/11/27
 22 23  0  0  0  0  0  0  0  0999 V2000
   30.4253   -1.6649  106.1485 N   0  0  0  0  0  0  0  0  0  0  0  0
   28.1114   -2.1063  103.6664 C   0  0  1  0  0  0  0  0  0  0  0  0
   28.6744   -2.6315  104.9188 O   0  0  0  0  0  0  0  0  0  0  0  0
   29.7960   -4.3133  101.0426 P   0  0  2  0  0  0  0  0  0  0  0  0
   29.1079   -1.4880  105.7128 C   0  0  2  0  0  0  0  0  0  0  0  0
   32.5862   -1.3828  106.3983 N   0  0  0  0  0  0  0  0  0  0  0  0
   28.6121    0.8480  105.5915 O   0  0  0  0  0  0  0  0  0  0  0  0
   29.0126   -0.3046  104.8355 C   0  0  2  0  0  0  0  0  0  0  0  0
   32.8298   -3.4038  109.3967 N   0  0  0  0  0  0  0  0  0  0  0  0
   26.6857   -0.3231  104.3576 O   0  0  0  0  0  0  0  0  0  0  0  0
   27.9934   -0.6518  103.8391 C   0  0  2  0  0  0  0  0  0  0  0  0
   32.2159   -2.4202  107.1740 C   0  0  0  0  0  0  0  0  0  0  0  0
   30.0525   -3.6013  107.6644 N   0  0  0  0  0  0  0  0  0  0  0  0
   28.9923   -3.7745  102.2706 O   0  0  0  0  0  0  0  0  0  0  0  0
   29.0272   -2.4060  102.5385 C   0  0  0  0  0  0  0  0  0  0  0  0
   31.3464   -4.0493  101.2534 O   0  0  0  0  0  0  0  0  0  0  0  0
   31.4730   -0.9296  105.7745 C   0  0  0  0  0  0  0  0  0  0  0  0
   34.1412   -3.7305  107.5632 O   0  0  0  0  0  0  0  0  0  0  0  0
   33.1275   -3.2292  108.0428 C   0  0  0  0  0  0  0  0  0  0  0  0
   30.8499   -2.6122  107.0252 C   0  0  0  0  0  0  0  0  0  0  0  0
   29.3174   -3.7079   99.7794 O   0  5  0  0  0  0  0  0  0  0  0  0
   29.5279   -5.7587  100.8117 O   0  0  0  0  0  0  0  0  0  0  0  0
  1 17  1  0  0  0  0
  1 20  1  0  0  0  0
  2 15  1  6  0  0  0
  2  3  1  0  0  0  0
  2 11  1  0  0  0  0
  3  5  1  0  0  0  0
  4 16  1  1  0  0  0
  4 21  1  0  0  0  0
  4 22  2  0  0  0  0
  4 14  1  0  0  0  0
  5  1  1  6  0  0  0
  5  8  1  0  0  0  0
  6 17  2  0  0  0  0
  6 12  1  0  0  0  0
  8  7  1  1  0  0  0
  8 11  1  0  0  0  0
  9 19  1  0  0  0  0
 11 10  1  1  0  0  0
 12 20  2  0  0  0  0
 12 19  1  0  0  0  0
 13 20  1  0  0  0  0
 14 15  1  0  0  0  0
 18 19  2  0  0  0  0
M  CHG  1  21  -1
M  END
>  <CHROM.1>
113.95758393,71.03085815,63.00365251,175.25190040,126.76647096,30.11012779
-2.57586013,104.49312089,1.03644412,-0.66907699,1.02451028

>  <Name>
ligand

>  <RI>
0

>  <Rbt.Current_Directory>
/home/itssahil/PROJECTS/Mol_Feturizer/New_Systems/rnas/4XW7

>  <Rbt.Executable>
rbdock ($Id: //depot/dev/client3/rdock/2013.1/src/exe/rbdock.cxx#4 $)

>  <Rbt.Library>
libRbt.so (2013.1, Build901 2013/11/27)

>  <Rbt.Parameter_File>
/export/apps/rDock/src/rDock_2013.1_src/data/scripts/dock_solv.prm

>  <Rbt.Receptor>
prm/pocket_docking_8.prm

>  <SCORE>
-11.7731

>  <SCORE.INTER>
-12.1297

>  <SCORE.INTER.CONST>
1

>  <SCORE.INTER.POLAR>
0

>  <SCORE.INTER.ROT>
5

>  <SCORE.INTER.SOLV>
15.1007

>  <SCORE.INTER.VDW>
-20.0534

>  <SCORE.INTER.norm>
-0.55135

>  <SCORE.INTRA>
0.356634

>  <SCORE.INTRA.DIHEDRAL>
-0.52338

>  <SCORE.INTRA.DIHEDRAL.0>
2.61549

>  <SCORE.INTRA.POLAR>
0

>  <SCORE.INTRA.POLAR.0>
0

>  <SCORE.INTRA.REPUL>
0

>  <SCORE.INTRA.REPUL.0>
0

>  <SCORE.INTRA.SOLV>
-0.414563

>  <SCORE.INTRA.SOLV.lig_0>
-73.766

>  <SCORE.INTRA.VDW>
0.825606

>  <SCORE.INTRA.VDW.0>
-1.95055

>  <SCORE.INTRA.norm>
0.0162106

>  <SCORE.RESTR>
0

>  <SCORE.RESTR.CAVITY>
0

>  <SCORE.RESTR.norm>
0

>  <SCORE.SYSTEM>
0

>  <SCORE.SYSTEM.CONST>
0

>  <SCORE.SYSTEM.DIHEDRAL>
0

>  <SCORE.SYSTEM.SOLV>
0

>  <SCORE.SYSTEM.norm>
0

>  <SCORE.heavy>
22

>  <SCORE.norm>
-0.535139

>  <RMSD>
5.375

$$$$
ligand
 OpenBabel11021811513D
libRbt.so/2013.1/901 2013/11/27
 22 23  0  0  0  0  0  0  0  0999 V2000
   30.2473   -1.4818  105.9014 N   0  0  0  0  0  0  0  0  0  0  0  0
   28.0660   -2.2811  103.3889 C   0  0  1  0  0  0  0  0  0  0  0  0
   28.6355   -2.6790  104.6845 O   0  0  0  0  0  0  0  0  0  0  0  0
   30.0426   -4.4615  100.9536 P   0  0  2  0  0  0  0  0  0  0  0  0
   28.9338   -1.4566  105.4212 C   0  0  2  0  0  0  0  0  0  0  0  0
   32.3867   -1.0512  106.1230 N   0  0  0  0  0  0  0  0  0  0  0  0
   28.2244    0.8106  105.1498 O   0  0  0  0  0  0  0  0  0  0  0  0
   28.7557   -0.3387  104.4738 C   0  0  2  0  0  0  0  0  0  0  0  0
   33.4786   -3.8113  107.9287 N   0  0  0  0  0  0  0  0  0  0  0  0
   26.4573   -0.6068  103.9361 O   0  0  0  0  0  0  0  0  0  0  0  0
   27.8061   -0.8372  103.4727 C   0  0  2  0  0  0  0  0  0  0  0  0
   32.0460   -1.9380  107.0782 C   0  0  0  0  0  0  0  0  0  0  0  0
   29.9279   -3.1085  107.7557 N   0  0  0  0  0  0  0  0  0  0  0  0
   29.1560   -3.9330  102.1279 O   0  0  0  0  0  0  0  0  0  0  0  0
   29.0416   -2.5542  102.3052 C   0  0  0  0  0  0  0  0  0  0  0  0
   31.5581   -4.0596  101.1975 O   0  0  0  0  0  0  0  0  0  0  0  0
   31.2689   -0.7810  105.4079 C   0  0  0  0  0  0  0  0  0  0  0  0
   33.2798   -1.8618  109.0899 O   0  0  0  0  0  0  0  0  0  0  0  0
   32.9731   -2.5199  108.0991 C   0  0  0  0  0  0  0  0  0  0  0  0
   30.6941   -2.2219  106.9497 C   0  0  0  0  0  0  0  0  0  0  0  0
   29.5597   -3.9594   99.6475 O   0  5  0  0  0  0  0  0  0  0  0  0
   29.9014   -5.9336  100.7884 O   0  0  0  0  0  0  0  0  0  0  0  0
  1 17  1  0  0  0  0
  1 20  1  0  0  0  0
  2 15  1  6  0  0  0
  2  3  1  0  0  0  0
  2 11  1  0  0  0  0
  3  5  1  0  0  0  0
  4 16  1  1  0  0  0
  4 21  1  0  0  0  0
  4 22  2  0  0  0  0
  4 14  1  0  0  0  0
  5  1  1  6  0  0  0
  5  8  1  0  0  0  0
  6 17  2  0  0  0  0
  6 12  1  0  0  0  0
  8  7  1  1  0  0  0
  8 11  1  0  0  0  0
  9 19  1  0  0  0  0
 11 10  1  1  0  0  0
 12 20  2  0  0  0  0
 12 19  1  0  0  0  0
 13 20  1  0  0  0  0
 14 15  1  0  0  0  0
 18 19  2  0  0  0  0
M  CHG  1  21  -1
M  END
>  <CHROM.1>
105.70929262,70.34486172,64.66708676,174.97858392,-101.37875395,30.06343823
-2.47781454,104.32877846,1.14363041,-0.60973573,1.01237053

>  <Name>
ligand

>  <RI>
0

>  <Rbt.Current_Directory>
/home/itssahil/PROJECTS/Mol_Feturizer/New_Systems/rnas/4XW7

>  <Rbt.Executable>
rbdock ($Id: //depot/dev/client3/rdock/2013.1/src/exe/rbdock.cxx#4 $)

>  <Rbt.Library>
libRbt.so (2013.1, Build901 2013/11/27)

>  <Rbt.Parameter_File>
/export/apps/rDock/src/rDock_2013.1_src/data/scripts/dock_solv.prm

>  <Rbt.Receptor>
prm/pocket_docking_6.prm

>  <SCORE>
-11.1292

>  <SCORE.INTER>
-11.4223

>  <SCORE.INTER.CONST>
1

>  <SCORE.INTER.POLAR>
0

>  <SCORE.INTER.ROT>
5

>  <SCORE.INTER.SOLV>
14.6857

>  <SCORE.INTER.VDW>
-19.4434

>  <SCORE.INTER.norm>
-0.519196

>  <SCORE.INTRA>
0.293137

>  <SCORE.INTRA.DIHEDRAL>
-0.226295

>  <SCORE.INTRA.DIHEDRAL.0>
2.61549

>  <SCORE.INTRA.POLAR>
0

>  <SCORE.INTRA.POLAR.0>
0

>  <SCORE.INTRA.REPUL>
0

>  <SCORE.INTRA.REPUL.0>
0

>  <SCORE.INTRA.SOLV>
-0.653248

>  <SCORE.INTRA.SOLV.lig_0>
-73.766

>  <SCORE.INTRA.VDW>
0.732908

>  <SCORE.INTRA.VDW.0>
-1.95055

>  <SCORE.INTRA.norm>
0.0133244

>  <SCORE.RESTR>
0

>  <SCORE.RESTR.CAVITY>
0

>  <SCORE.RESTR.norm>
0

>  <SCORE.SYSTEM>
0

>  <SCORE.SYSTEM.CONST>
0

>  <SCORE.SYSTEM.DIHEDRAL>
0

>  <SCORE.SYSTEM.SOLV>
0

>  <SCORE.SYSTEM.norm>
0

>  <SCORE.heavy>
22

>  <SCORE.norm>
-0.505872

>  <RMSD>
5.398

$$$$
ligand
 OpenBabel11021811513D
libRbt.so/2013.1/901 2013/11/27
 22 23  0  0  0  0  0  0  0  0999 V2000
   30.2919   -1.5416  105.9021 N   0  0  0  0  0  0  0  0  0  0  0  0
   28.0579   -2.2675  103.4137 C   0  0  1  0  0  0  0  0  0  0  0  0
   28.6273   -2.6839  104.7036 O   0  0  0  0  0  0  0  0  0  0  0  0
   29.8207   -4.5024  100.8722 P   0  0  2  0  0  0  0  0  0  0  0  0
   28.9749   -1.4718  105.4358 C   0  0  2  0  0  0  0  0  0  0  0  0
   32.4335   -1.1346  106.1460 N   0  0  0  0  0  0  0  0  0  0  0  0
   28.3406    0.8181  105.1696 O   0  0  0  0  0  0  0  0  0  0  0  0
   28.8250   -0.3492  104.4892 C   0  0  2  0  0  0  0  0  0  0  0  0
   32.8125   -2.6787  109.3527 N   0  0  0  0  0  0  0  0  0  0  0  0
   26.5133   -0.5389  103.9762 O   0  0  0  0  0  0  0  0  0  0  0  0
   27.8484   -0.8156  103.4988 C   0  0  2  0  0  0  0  0  0  0  0  0
   32.0984   -2.1041  107.0193 C   0  0  0  0  0  0  0  0  0  0  0  0
   29.9835   -3.3295  107.6035 N   0  0  0  0  0  0  0  0  0  0  0  0
   29.0441   -3.9537  102.1131 O   0  0  0  0  0  0  0  0  0  0  0  0
   29.0119   -2.5746  102.3200 C   0  0  0  0  0  0  0  0  0  0  0  0
   29.2840   -3.8097   99.5492 O   0  0  0  0  0  0  0  0  0  0  0  0
   31.3109   -0.7997  105.4666 C   0  0  0  0  0  0  0  0  0  0  0  0
   33.9951   -3.4075  107.5475 O   0  0  0  0  0  0  0  0  0  0  0  0
   33.0320   -2.7770  107.9764 C   0  0  0  0  0  0  0  0  0  0  0  0
   30.7452   -2.3741  106.8756 C   0  0  0  0  0  0  0  0  0  0  0  0
   29.7190   -5.9764  100.7831 O   0  5  0  0  0  0  0  0  0  0  0  0
   31.2880   -4.3039  101.0203 O   0  0  0  0  0  0  0  0  0  0  0  0
  1 17  1  0  0  0  0
  1 20  1  0  0  0  0
  2 15  1  6  0  0  0
  2  3  1  0  0  0  0
  2 11  1  0  0  0  0
  3  5  1  0  0  0  0
  4 16  1  6  0  0  0
  4 21  1  0  0  0  0
  4 22  2  0  0  0  0
  4 14  1  0  0  0  0
  5  1  1  6  0  0  0
  5  8  1  0  0  0  0
  6 17  2  0  0  0  0
  6 12  1  0  0  0  0
  8  7  1  1  0  0  0
  8 11  1  0  0  0  0
  9 19  1  0  0  0  0
 11 10  1  1  0  0  0
 12 20  2  0  0  0  0
 12 19  1  0  0  0  0
 13 20  1  0  0  0  0
 14 15  1  0  0  0  0
 18 19  2  0  0  0  0
M  CHG  1  21  -1
M  END
>  <CHROM.1>
111.29651629,72.28838065,-54.69312387,171.23169167,118.47078592,30.03429007
-2.55051717,104.28737248,1.09481273,-0.63245272,1.00050509

>  <Name>
ligand

>  <RI>
0

>  <Rbt.Current_Directory>
/home/itssahil/PROJECTS/Mol_Feturizer/New_Systems/rnas/4XW7

>  <Rbt.Executable>
rbdock ($Id: //depot/dev/client3/rdock/2013.1/src/exe/rbdock.cxx#4 $)

>  <Rbt.Library>
libRbt.so (2013.1, Build901 2013/11/27)

>  <Rbt.Parameter_File>
/export/apps/rDock/src/rDock_2013.1_src/data/scripts/dock_solv.prm

>  <Rbt.Receptor>
prm/pocket_docking_6.prm

>  <SCORE>
-10.2037

>  <SCORE.INTER>
-10.6102

>  <SCORE.INTER.CONST>
1

>  <SCORE.INTER.POLAR>
0

>  <SCORE.INTER.ROT>
5

>  <SCORE.INTER.SOLV>
16.158

>  <SCORE.INTER.VDW>
-19.3928

>  <SCORE.INTER.norm>
-0.482282

>  <SCORE.INTRA>
0.398598

>  <SCORE.INTRA.DIHEDRAL>
-0.180368

>  <SCORE.INTRA.DIHEDRAL.0>
2.61549

>  <SCORE.INTRA.POLAR>
0

>  <SCORE.INTRA.POLAR.0>
0

>  <SCORE.INTRA.REPUL>
0

>  <SCORE.INTRA.REPUL.0>
0

>  <SCORE.INTRA.SOLV>
-0.631886

>  <SCORE.INTRA.SOLV.lig_0>
-73.766

>  <SCORE.INTRA.VDW>
0.804726

>  <SCORE.INTRA.VDW.0>
-1.95055

>  <SCORE.INTRA.norm>
0.0181181

>  <SCORE.RESTR>
0.00790576

>  <SCORE.RESTR.CAVITY>
0.00790576

>  <SCORE.RESTR.norm>
0.000359353

>  <SCORE.SYSTEM>
0

>  <SCORE.SYSTEM.CONST>
0

>  <SCORE.SYSTEM.DIHEDRAL>
0

>  <SCORE.SYSTEM.SOLV>
0

>  <SCORE.SYSTEM.norm>
0

>  <SCORE.heavy>
22

>  <SCORE.norm>
-0.463804

>  <RMSD>
5.403

$$$$
ligand
 OpenBabel11021811513D
libRbt.so/2013.1/901 2013/11/27
 22 23  0  0  0  0  0  0  0  0999 V2000
   30.0354   -1.3997  105.9712 N   0  0  0  0  0  0  0  0  0  0  0  0
   27.5846   -2.3091  103.7628 C   0  0  1  0  0  0  0  0  0  0  0  0
   28.1768   -2.5316  105.0899 O   0  0  0  0  0  0  0  0  0  0  0  0
   28.4157   -3.5369  100.2486 P   0  0  2  0  0  0  0  0  0  0  0  0
   28.7106   -1.2538  105.5466 C   0  0  2  0  0  0  0  0  0  0  0  0
   32.2117   -1.1610  106.1062 N   0  0  0  0  0  0  0  0  0  0  0  0
   28.3402    1.0003  104.8404 O   0  0  0  0  0  0  0  0  0  0  0  0
   28.6395   -0.3314  104.3964 C   0  0  2  0  0  0  0  0  0  0  0  0
   32.5913   -2.4750  109.4150 N   0  0  0  0  0  0  0  0  0  0  0  0
   26.2949   -0.3181  104.0138 O   0  0  0  0  0  0  0  0  0  0  0  0
   27.5561   -0.8544  103.5567 C   0  0  2  0  0  0  0  0  0  0  0  0
   31.8337   -2.0254  107.0679 C   0  0  0  0  0  0  0  0  0  0  0  0
   29.6502   -3.0132  107.8245 N   0  0  0  0  0  0  0  0  0  0  0  0
   27.8393   -2.7533  101.4726 O   0  0  0  0  0  0  0  0  0  0  0  0
   28.4274   -2.9478  102.7224 C   0  0  0  0  0  0  0  0  0  0  0  0
   29.9162   -3.9639  100.5384 O   0  0  0  0  0  0  0  0  0  0  0  0
   31.0937   -0.7856  105.4407 C   0  0  0  0  0  0  0  0  0  0  0  0
   33.6378   -3.4387  107.6361 O   0  0  0  0  0  0  0  0  0  0  0  0
   32.7470   -2.6980  108.0445 C   0  0  0  0  0  0  0  0  0  0  0  0
   30.4579   -2.1881  106.9940 C   0  0  0  0  0  0  0  0  0  0  0  0
   28.3171   -2.7396   99.0054 O   0  5  0  0  0  0  0  0  0  0  0  0
   27.5779   -4.7221   99.9211 O   0  0  0  0  0  0  0  0  0  0  0  0
  1 17  1  0  0  0  0
  1 20  1  0  0  0  0
  2 15  1  6  0  0  0
  2  3  1  0  0  0  0
  2 11  1  0  0  0  0
  3  5  1  0  0  0  0
  4 16  1  1  0  0  0
  4 21  1  0  0  0  0
  4 22  2  0  0  0  0
  4 14  1  0  0  0  0
  5  1  1  6  0  0  0
  5  8  1  0  0  0  0
  6 17  2  0  0  0  0
  6 12  1  0  0  0  0
  8  7  1  1  0  0  0
  8 11  1  0  0  0  0
  9 19  1  0  0  0  0
 11 10  1  1  0  0  0
 12 20  2  0  0  0  0
 12 19  1  0  0  0  0
 13 20  1  0  0  0  0
 14 15  1  0  0  0  0
 18 19  2  0  0  0  0
M  CHG  1  21  -1
M  END
>  <CHROM.1>
118.68070246,178.75215883,-22.84320716,-169.95037680,118.65957854,29.42043825
-2.21597401,104.16960647,0.96267152,-0.62053270,1.04434288

>  <Name>
ligand

>  <RI>
0

>  <Rbt.Current_Directory>
/home/itssahil/PROJECTS/Mol_Feturizer/New_Systems/rnas/4XW7

>  <Rbt.Executable>
rbdock ($Id: //depot/dev/client3/rdock/2013.1/src/exe/rbdock.cxx#4 $)

>  <Rbt.Library>
libRbt.so (2013.1, Build901 2013/11/27)

>  <Rbt.Parameter_File>
/export/apps/rDock/src/rDock_2013.1_src/data/scripts/dock_solv.prm

>  <Rbt.Receptor>
prm/pocket_docking_7.prm

>  <SCORE>
-6.96422

>  <SCORE.INTER>
-8.55079

>  <SCORE.INTER.CONST>
1

>  <SCORE.INTER.POLAR>
0

>  <SCORE.INTER.ROT>
5

>  <SCORE.INTER.SOLV>
10.2109

>  <SCORE.INTER.VDW>
-16.0375

>  <SCORE.INTER.norm>
-0.388672

>  <SCORE.INTRA>
1.57349

>  <SCORE.INTRA.DIHEDRAL>
0.973623

>  <SCORE.INTRA.DIHEDRAL.0>
2.61549

>  <SCORE.INTRA.POLAR>
0

>  <SCORE.INTRA.POLAR.0>
0

>  <SCORE.INTRA.REPUL>
0

>  <SCORE.INTRA.REPUL.0>
0

>  <SCORE.INTRA.SOLV>
-0.489221

>  <SCORE.INTRA.SOLV.lig_0>
-73.766

>  <SCORE.INTRA.VDW>
1.33129

>  <SCORE.INTRA.VDW.0>
-1.95055

>  <SCORE.INTRA.norm>
0.0715225

>  <SCORE.RESTR>
0.0130685

>  <SCORE.RESTR.CAVITY>
0.0130685

>  <SCORE.RESTR.norm>
0.000594022

>  <SCORE.SYSTEM>
0

>  <SCORE.SYSTEM.CONST>
0

>  <SCORE.SYSTEM.DIHEDRAL>
0

>  <SCORE.SYSTEM.SOLV>
0

>  <SCORE.SYSTEM.norm>
0

>  <SCORE.heavy>
22

>  <SCORE.norm>
-0.316556

>  <RMSD>
5.406

$$$$
ligand
 OpenBabel11021811513D
libRbt.so/2013.1/901 2013/11/27
 22 23  0  0  0  0  0  0  0  0999 V2000
   30.2732   -1.5630  105.9176 N   0  0  0  0  0  0  0  0  0  0  0  0
   28.0788   -2.2982  103.3969 C   0  0  1  0  0  0  0  0  0  0  0  0
   28.6394   -2.7181  104.6895 O   0  0  0  0  0  0  0  0  0  0  0  0
   30.0342   -4.4996  100.9634 P   0  0  2  0  0  0  0  0  0  0  0  0
   28.9608   -1.5080  105.4367 C   0  0  2  0  0  0  0  0  0  0  0  0
   32.4107   -1.1425  106.1747 N   0  0  0  0  0  0  0  0  0  0  0  0
   28.2963    0.7749  105.1839 O   0  0  0  0  0  0  0  0  0  0  0  0
   28.8055   -0.3789  104.4986 C   0  0  2  0  0  0  0  0  0  0  0  0
   32.7757   -2.6004  109.4164 N   0  0  0  0  0  0  0  0  0  0  0  0
   26.5028   -0.5974  103.9571 O   0  0  0  0  0  0  0  0  0  0  0  0
   27.8472   -0.8502  103.4927 C   0  0  2  0  0  0  0  0  0  0  0  0
   32.0704   -2.0953  107.0643 C   0  0  0  0  0  0  0  0  0  0  0  0
   29.9543   -3.3169  107.6520 N   0  0  0  0  0  0  0  0  0  0  0  0
   29.1551   -3.9614  102.1390 O   0  0  0  0  0  0  0  0  0  0  0  0
   29.0498   -2.5813  102.3117 C   0  0  0  0  0  0  0  0  0  0  0  0
   31.5556   -4.1220  101.2095 O   0  0  0  0  0  0  0  0  0  0  0  0
   31.2938   -0.8261  105.4774 C   0  0  0  0  0  0  0  0  0  0  0  0
   33.9552   -3.3968  107.6379 O   0  0  0  0  0  0  0  0  0  0  0  0
   32.9967   -2.7448  108.0443 C   0  0  0  0  0  0  0  0  0  0  0  0
   30.7198   -2.3736  106.9125 C   0  0  0  0  0  0  0  0  0  0  0  0
   29.5599   -3.9856   99.6588 O   0  5  0  0  0  0  0  0  0  0  0  0
   29.8703   -5.9687  100.7931 O   0  0  0  0  0  0  0  0  0  0  0  0
  1 17  1  0  0  0  0
  1 20  1  0  0  0  0
  2 15  1  6  0  0  0
  2  3  1  0  0  0  0
  2 11  1  0  0  0  0
  3  5  1  0  0  0  0
  4 16  1  1  0  0  0
  4 21  1  0  0  0  0
  4 22  2  0  0  0  0
  4 14  1  0  0  0  0
  5  1  1  6  0  0  0
  5  8  1  0  0  0  0
  6 17  2  0  0  0  0
  6 12  1  0  0  0  0
  8  7  1  1  0  0  0
  8 11  1  0  0  0  0
  9 19  1  0  0  0  0
 11 10  1  1  0  0  0
 12 20  2  0  0  0  0
 12 19  1  0  0  0  0
 13 20  1  0  0  0  0
 14 15  1  0  0  0  0
 18 19  2  0  0  0  0
M  CHG  1  21  -1
M  END
>  <CHROM.1>
109.49156069,69.29584903,65.38556632,174.91902719,117.38775819,30.08215249
-2.55835085,104.32736890,1.13159176,-0.61745125,1.02676815

>  <Name>
ligand

>  <RI>
0

>  <Rbt.Current_Directory>
/home/itssahil/PROJECTS/Mol_Feturizer/New_Systems/rnas/4XW7

>  <Rbt.Executable>
rbdock ($Id: //depot/dev/client3/rdock/2013.1/src/exe/rbdock.cxx#4 $)

>  <Rbt.Library>
libRbt.so (2013.1, Build901 2013/11/27)

>  <Rbt.Parameter_File>
/export/apps/rDock/src/rDock_2013.1_src/data/scripts/dock_solv.prm

>  <Rbt.Receptor>
prm/pocket_docking_6.prm

>  <SCORE>
-11.3327

>  <SCORE.INTER>
-11.5438

>  <SCORE.INTER.CONST>
1

>  <SCORE.INTER.POLAR>
0

>  <SCORE.INTER.ROT>
5

>  <SCORE.INTER.SOLV>
14.3077

>  <SCORE.INTER.VDW>
-19.3984

>  <SCORE.INTER.norm>
-0.524718

>  <SCORE.INTRA>
0.209967

>  <SCORE.INTRA.DIHEDRAL>
-0.641689

>  <SCORE.INTRA.DIHEDRAL.0>
2.61549

>  <SCORE.INTRA.POLAR>
0

>  <SCORE.INTRA.POLAR.0>
0

>  <SCORE.INTRA.REPUL>
0

>  <SCORE.INTRA.REPUL.0>
0

>  <SCORE.INTRA.SOLV>
-0.51387

>  <SCORE.INTRA.SOLV.lig_0>
-73.766

>  <SCORE.INTRA.VDW>
0.787746

>  <SCORE.INTRA.VDW.0>
-1.95055

>  <SCORE.INTRA.norm>
0.00954393

>  <SCORE.RESTR>
0.00111775

>  <SCORE.RESTR.CAVITY>
0.00111775

>  <SCORE.RESTR.norm>
5.08068e-05

>  <SCORE.SYSTEM>
0

>  <SCORE.SYSTEM.CONST>
0

>  <SCORE.SYSTEM.DIHEDRAL>
0

>  <SCORE.SYSTEM.SOLV>
0

>  <SCORE.SYSTEM.norm>
0

>  <SCORE.heavy>
22

>  <SCORE.norm>
-0.515124

>  <RMSD>
5.408

$$$$
ligand
 OpenBabel11021811513D
libRbt.so/2013.1/901 2013/11/27
 22 23  0  0  0  0  0  0  0  0999 V2000
   30.2797   -1.5635  105.8870 N   0  0  0  0  0  0  0  0  0  0  0  0
   28.0678   -2.2869  103.3782 C   0  0  1  0  0  0  0  0  0  0  0  0
   28.6346   -2.7109  104.6667 O   0  0  0  0  0  0  0  0  0  0  0  0
   30.0414   -4.4947  100.9645 P   0  0  2  0  0  0  0  0  0  0  0  0
   28.9647   -1.5032  105.4140 C   0  0  2  0  0  0  0  0  0  0  0  0
   32.4159   -1.1373  106.1458 N   0  0  0  0  0  0  0  0  0  0  0  0
   28.3066    0.7824  105.1689 O   0  0  0  0  0  0  0  0  0  0  0  0
   28.8077   -0.3720  104.4786 C   0  0  2  0  0  0  0  0  0  0  0  0
   32.8405   -2.6335  109.3440 N   0  0  0  0  0  0  0  0  0  0  0  0
   26.5011   -0.5816  103.9505 O   0  0  0  0  0  0  0  0  0  0  0  0
   27.8418   -0.8384  103.4777 C   0  0  2  0  0  0  0  0  0  0  0  0
   32.0856   -2.1167  107.0099 C   0  0  0  0  0  0  0  0  0  0  0  0
   29.9798   -3.3672  107.5732 N   0  0  0  0  0  0  0  0  0  0  0  0
   29.1548   -3.9525  102.1324 O   0  0  0  0  0  0  0  0  0  0  0  0
   29.0314   -2.5716  102.2868 C   0  0  0  0  0  0  0  0  0  0  0  0
   31.5609   -4.1145  101.2181 O   0  0  0  0  0  0  0  0  0  0  0  0
   31.2937   -0.8083  105.4628 C   0  0  0  0  0  0  0  0  0  0  0  0
   33.9503   -3.4657  107.5373 O   0  0  0  0  0  0  0  0  0  0  0  0
   33.0206   -2.7876  107.9671 C   0  0  0  0  0  0  0  0  0  0  0  0
   30.7359   -2.3988  106.8567 C   0  0  0  0  0  0  0  0  0  0  0  0
   29.5745   -3.9868   99.6548 O   0  5  0  0  0  0  0  0  0  0  0  0
   29.8800   -5.9647  100.7995 O   0  0  0  0  0  0  0  0  0  0  0  0
  1 17  1  0  0  0  0
  1 20  1  0  0  0  0
  2 15  1  6  0  0  0
  2  3  1  0  0  0  0
  2 11  1  0  0  0  0
  3  5  1  0  0  0  0
  4 16  1  1  0  0  0
  4 21  1  0  0  0  0
  4 22  2  0  0  0  0
  4 14  1  0  0  0  0
  5  1  1  6  0  0  0
  5  8  1  0  0  0  0
  6 17  2  0  0  0  0
  6 12  1  0  0  0  0
  8  7  1  1  0  0  0
  8 11  1  0  0  0  0
  9 19  1  0  0  0  0
 11 10  1  1  0  0  0
 12 20  2  0  0  0  0
 12 19  1  0  0  0  0
 13 20  1  0  0  0  0
 14 15  1  0  0  0  0
 18 19  2  0  0  0  0
M  CHG  1  21  -1
M  END
>  <CHROM.1>
111.09945829,67.90774560,66.29963918,175.55894537,114.51607486,30.08937020
-2.56300360,104.30021882,1.12143135,-0.61938507,1.02240305

>  <Name>
ligand

>  <RI>
0

>  <Rbt.Current_Directory>
/home/itssahil/PROJECTS/Mol_Feturizer/New_Systems/rnas/4XW7

>  <Rbt.Executable>
rbdock ($Id: //depot/dev/client3/rdock/2013.1/src/exe/rbdock.cxx#4 $)

>  <Rbt.Library>
libRbt.so (2013.1, Build901 2013/11/27)

>  <Rbt.Parameter_File>
/export/apps/rDock/src/rDock_2013.1_src/data/scripts/dock_solv.prm

>  <Rbt.Receptor>
prm/pocket_docking_6.prm

>  <SCORE>
-11.3314

>  <SCORE.INTER>
-11.5182

>  <SCORE.INTER.CONST>
1

>  <SCORE.INTER.POLAR>
0

>  <SCORE.INTER.ROT>
5

>  <SCORE.INTER.SOLV>
14.9999

>  <SCORE.INTER.VDW>
-19.6121

>  <SCORE.INTER.norm>
-0.523556

>  <SCORE.INTRA>
0.186804

>  <SCORE.INTRA.DIHEDRAL>
-0.713204

>  <SCORE.INTRA.DIHEDRAL.0>
2.61549

>  <SCORE.INTRA.POLAR>
0

>  <SCORE.INTRA.POLAR.0>
0

>  <SCORE.INTRA.REPUL>
0

>  <SCORE.INTRA.REPUL.0>
0

>  <SCORE.INTRA.SOLV>
-0.495195

>  <SCORE.INTRA.SOLV.lig_0>
-73.766

>  <SCORE.INTRA.VDW>
0.791004

>  <SCORE.INTRA.VDW.0>
-1.95055

>  <SCORE.INTRA.norm>
0.00849111

>  <SCORE.RESTR>
0

>  <SCORE.RESTR.CAVITY>
0

>  <SCORE.RESTR.norm>
0

>  <SCORE.SYSTEM>
0

>  <SCORE.SYSTEM.CONST>
0

>  <SCORE.SYSTEM.DIHEDRAL>
0

>  <SCORE.SYSTEM.SOLV>
0

>  <SCORE.SYSTEM.norm>
0

>  <SCORE.heavy>
22

>  <SCORE.norm>
-0.515065

>  <RMSD>
5.414

$$$$
ligand
 OpenBabel11021811513D
libRbt.so/2013.1/901 2013/11/27
 22 23  0  0  0  0  0  0  0  0999 V2000
   30.5284   -1.5360  106.2054 N   0  0  0  0  0  0  0  0  0  0  0  0
   28.2821   -1.9394  103.6556 C   0  0  1  0  0  0  0  0  0  0  0  0
   28.8938   -2.5385  104.8507 O   0  0  0  0  0  0  0  0  0  0  0  0
   27.7796   -2.9027  100.6235 P   0  0  2  0  0  0  0  0  0  0  0  0
   29.2011   -1.4512  105.7723 C   0  0  2  0  0  0  0  0  0  0  0  0
   32.6919   -1.2036  106.3491 N   0  0  0  0  0  0  0  0  0  0  0  0
   28.4606    0.8186  105.9020 O   0  0  0  0  0  0  0  0  0  0  0  0
   28.9834   -0.1942  105.0296 C   0  0  2  0  0  0  0  0  0  0  0  0
   33.8822   -3.9241  108.0226 N   0  0  0  0  0  0  0  0  0  0  0  0
   26.6731   -0.4039  104.5181 O   0  0  0  0  0  0  0  0  0  0  0  0
   28.0099   -0.5336  103.9859 C   0  0  2  0  0  0  0  0  0  0  0  0
   32.3454   -2.0728  107.3184 C   0  0  0  0  0  0  0  0  0  0  0  0
   30.2016   -3.1443  108.0744 N   0  0  0  0  0  0  0  0  0  0  0  0
   28.5428   -1.7368  101.3322 O   0  0  0  0  0  0  0  0  0  0  0  0
   29.2280   -2.0138  102.5152 C   0  0  0  0  0  0  0  0  0  0  0  0
   26.6018   -3.4207  101.5521 O   0  0  0  0  0  0  0  0  0  0  0  0
   31.5627   -0.8833  105.6737 C   0  0  0  0  0  0  0  0  0  0  0  0
   33.5102   -2.1268  109.3715 O   0  0  0  0  0  0  0  0  0  0  0  0
   33.2808   -2.6954  108.3071 C   0  0  0  0  0  0  0  0  0  0  0  0
   30.9782   -2.2946  107.2390 C   0  0  0  0  0  0  0  0  0  0  0  0
   28.6989   -4.0048  100.2609 O   0  5  0  0  0  0  0  0  0  0  0  0
   27.2636   -2.4822   99.2927 O   0  0  0  0  0  0  0  0  0  0  0  0
  1 17  1  0  0  0  0
  1 20  1  0  0  0  0
  2 15  1  6  0  0  0
  2  3  1  0  0  0  0
  2 11  1  0  0  0  0
  3  5  1  0  0  0  0
  4 16  1  1  0  0  0
  4 21  1  0  0  0  0
  4 22  2  0  0  0  0
  4 14  1  0  0  0  0
  5  1  1  6  0  0  0
  5  8  1  0  0  0  0
  6 17  2  0  0  0  0
  6 12  1  0  0  0  0
  8  7  1  1  0  0  0
  8 11  1  0  0  0  0
  9 19  1  0  0  0  0
 11 10  1  1  0  0  0
 12 20  2  0  0  0  0
 12 19  1  0  0  0  0
 13 20  1  0  0  0  0
 14 15  1  0  0  0  0
 18 19  2  0  0  0  0
M  CHG  1  21  -1
M  END
>  <CHROM.1>
95.44511750,166.31870309,64.28295522,-84.33439084,-91.51301948,29.59654751
-2.00187246,104.47240466,0.79198960,-0.63312043,0.99197206

>  <Name>
ligand

>  <RI>
0

>  <Rbt.Current_Directory>
/home/itssahil/PROJECTS/Mol_Feturizer/New_Systems/rnas/4XW7

>  <Rbt.Executable>
rbdock ($Id: //depot/dev/client3/rdock/2013.1/src/exe/rbdock.cxx#4 $)

>  <Rbt.Library>
libRbt.so (2013.1, Build901 2013/11/27)

>  <Rbt.Parameter_File>
/export/apps/rDock/src/rDock_2013.1_src/data/scripts/dock_solv.prm

>  <Rbt.Receptor>
prm/pocket_docking_6.prm

>  <SCORE>
-7.70561

>  <SCORE.INTER>
-9.48561

>  <SCORE.INTER.CONST>
1

>  <SCORE.INTER.POLAR>
0

>  <SCORE.INTER.ROT>
5

>  <SCORE.INTER.SOLV>
12.2498

>  <SCORE.INTER.VDW>
-17.3403

>  <SCORE.INTER.norm>
-0.431164

>  <SCORE.INTRA>
1.78001

>  <SCORE.INTRA.DIHEDRAL>
2.83712

>  <SCORE.INTRA.DIHEDRAL.0>
2.61549

>  <SCORE.INTRA.POLAR>
0

>  <SCORE.INTRA.POLAR.0>
0

>  <SCORE.INTRA.REPUL>
0

>  <SCORE.INTRA.REPUL.0>
0

>  <SCORE.INTRA.SOLV>
-0.104609

>  <SCORE.INTRA.SOLV.lig_0>
-73.766

>  <SCORE.INTRA.VDW>
0.413751

>  <SCORE.INTRA.VDW.0>
-1.95055

>  <SCORE.INTRA.norm>
0.0809093

>  <SCORE.RESTR>
0

>  <SCORE.RESTR.CAVITY>
0

>  <SCORE.RESTR.norm>
0

>  <SCORE.SYSTEM>
0

>  <SCORE.SYSTEM.CONST>
0

>  <SCORE.SYSTEM.DIHEDRAL>
0

>  <SCORE.SYSTEM.SOLV>
0

>  <SCORE.SYSTEM.norm>
0

>  <SCORE.heavy>
22

>  <SCORE.norm>
-0.350255

>  <RMSD>
5.418

$$$$
ligand
 OpenBabel11021811513D
libRbt.so/2013.1/901 2013/11/27
 22 23  0  0  0  0  0  0  0  0999 V2000
   32.5479   -2.4277  107.3150 N   0  0  0  0  0  0  0  0  0  0  0  0
   32.0494   -5.2833  109.1335 C   0  0  1  0  0  0  0  0  0  0  0  0
   32.4622   -4.7138  107.8425 O   0  0  0  0  0  0  0  0  0  0  0  0
   28.4528   -6.2923  108.3345 P   0  0  2  0  0  0  0  0  0  0  0  0
   33.0995   -3.4316  108.1178 C   0  0  2  0  0  0  0  0  0  0  0  0
   32.3619   -0.6322  106.0686 N   0  0  0  0  0  0  0  0  0  0  0  0
   33.9887   -2.4616  110.1142 O   0  0  0  0  0  0  0  0  0  0  0  0
   32.8583   -3.1380  109.5442 C   0  0  2  0  0  0  0  0  0  0  0  0
   29.3605   -1.3528  104.3941 N   0  0  0  0  0  0  0  0  0  0  0  0
   33.9505   -4.9949  110.5452 O   0  0  0  0  0  0  0  0  0  0  0  0
   32.6656   -4.4487  110.1743 C   0  0  2  0  0  0  0  0  0  0  0  0
   31.1443   -1.2032  106.1493 C   0  0  0  0  0  0  0  0  0  0  0  0
   30.1968   -3.2385  107.2787 N   0  0  0  0  0  0  0  0  0  0  0  0
   30.0028   -6.0885  108.3148 O   0  0  0  0  0  0  0  0  0  0  0  0
   30.5720   -5.2315  109.2568 C   0  0  0  0  0  0  0  0  0  0  0  0
   27.9975   -6.8381  109.7531 O   0  0  0  0  0  0  0  0  0  0  0  0
   33.2138   -1.3978  106.7911 C   0  0  0  0  0  0  0  0  0  0  0  0
   29.3497    0.3173  105.9431 O   0  0  0  0  0  0  0  0  0  0  0  0
   29.8957   -0.6909  105.5021 C   0  0  0  0  0  0  0  0  0  0  0  0
   31.2457   -2.3408  106.9370 C   0  0  0  0  0  0  0  0  0  0  0  0
   28.0160   -7.1975  107.2478 O   0  5  0  0  0  0  0  0  0  0  0  0
   27.7367   -5.0336  107.9927 O   0  0  0  0  0  0  0  0  0  0  0  0
  1 17  1  0  0  0  0
  1 20  1  0  0  0  0
  2 15  1  1  0  0  0
  2  3  1  0  0  0  0
  2 11  1  0  0  0  0
  3  5  1  0  0  0  0
  4 16  1  1  0  0  0
  4 21  1  0  0  0  0
  4 22  2  0  0  0  0
  4 14  1  0  0  0  0
  5  1  1  6  0  0  0
  5  8  1  0  0  0  0
  6 17  2  0  0  0  0
  6 12  1  0  0  0  0
  8  7  1  1  0  0  0
  8 11  1  0  0  0  0
  9 19  1  0  0  0  0
 11 10  1  6  0  0  0
 12 20  2  0  0  0  0
 12 19  1  0  0  0  0
 13 20  1  0  0  0  0
 14 15  1  0  0  0  0
 18 19  2  0  0  0  0
M  CHG  1  21  -1
M  END
>  <CHROM.1>
-144.40922875,66.65965743,-58.05292218,174.97819100,107.18576621,30.86204431
-3.79009274,107.92698841,-1.06678862,0.44175795,2.52558184

>  <Name>
ligand

>  <RI>
0

>  <Rbt.Current_Directory>
/home/itssahil/PROJECTS/Mol_Feturizer/New_Systems/rnas/4XW7

>  <Rbt.Executable>
rbdock ($Id: //depot/dev/client3/rdock/2013.1/src/exe/rbdock.cxx#4 $)

>  <Rbt.Library>
libRbt.so (2013.1, Build901 2013/11/27)

>  <Rbt.Parameter_File>
/export/apps/rDock/src/rDock_2013.1_src/data/scripts/dock_solv.prm

>  <Rbt.Receptor>
prm/pocket_docking_4.prm

>  <SCORE>
-5.56045

>  <SCORE.INTER>
-8.09299

>  <SCORE.INTER.CONST>
1

>  <SCORE.INTER.POLAR>
0

>  <SCORE.INTER.ROT>
5

>  <SCORE.INTER.SOLV>
13.6269

>  <SCORE.INTER.VDW>
-16.871

>  <SCORE.INTER.norm>
-0.367863

>  <SCORE.INTRA>
2.53254

>  <SCORE.INTRA.DIHEDRAL>
-0.661427

>  <SCORE.INTRA.DIHEDRAL.0>
2.61549

>  <SCORE.INTRA.POLAR>
0

>  <SCORE.INTRA.POLAR.0>
0

>  <SCORE.INTRA.REPUL>
0

>  <SCORE.INTRA.REPUL.0>
0

>  <SCORE.INTRA.SOLV>
7.01381

>  <SCORE.INTRA.SOLV.lig_0>
-73.766

>  <SCORE.INTRA.VDW>
-0.643653

>  <SCORE.INTRA.VDW.0>
-1.95055

>  <SCORE.INTRA.norm>
0.115115

>  <SCORE.RESTR>
0

>  <SCORE.RESTR.CAVITY>
0

>  <SCORE.RESTR.norm>
0

>  <SCORE.SYSTEM>
0

>  <SCORE.SYSTEM.CONST>
0

>  <SCORE.SYSTEM.DIHEDRAL>
0

>  <SCORE.SYSTEM.SOLV>
0

>  <SCORE.SYSTEM.norm>
0

>  <SCORE.heavy>
22

>  <SCORE.norm>
-0.252748

>  <RMSD>
5.473

$$$$
ligand
 OpenBabel11021811513D
libRbt.so/2013.1/901 2013/11/27
 22 23  0  0  0  0  0  0  0  0999 V2000
   31.5650   -2.6820  107.8434 N   0  0  0  0  0  0  0  0  0  0  0  0
   29.1518   -1.2524  105.8832 C   0  0  1  0  0  0  0  0  0  0  0  0
   29.6215   -2.4800  106.5419 O   0  0  0  0  0  0  0  0  0  0  0  0
   28.3348   -1.8764  102.9149 P   0  0  2  0  0  0  0  0  0  0  0  0
   30.3043   -2.0810  107.7669 C   0  0  2  0  0  0  0  0  0  0  0  0
   33.6812   -3.1248  107.4724 N   0  0  0  0  0  0  0  0  0  0  0  0
   30.3075   -0.0511  109.0305 O   0  0  0  0  0  0  0  0  0  0  0  0
   30.4389   -0.6119  107.7158 C   0  0  2  0  0  0  0  0  0  0  0  0
   35.2059   -4.7129  109.7841 N   0  0  0  0  0  0  0  0  0  0  0  0
   28.1493    0.0166  107.6368 O   0  0  0  0  0  0  0  0  0  0  0  0
   29.3461   -0.1606  106.8472 C   0  0  2  0  0  0  0  0  0  0  0  0
   33.2398   -3.9876  108.4082 C   0  0  0  0  0  0  0  0  0  0  0  0
   31.0488   -4.3972  109.5691 N   0  0  0  0  0  0  0  0  0  0  0  0
   29.1014   -0.7003  103.6029 O   0  0  0  0  0  0  0  0  0  0  0  0
   29.9571   -0.9960  104.6640 C   0  0  0  0  0  0  0  0  0  0  0  0
   29.3678   -2.8687  102.2321 O   0  0  0  0  0  0  0  0  0  0  0  0
   32.6387   -2.3286  107.1358 C   0  0  0  0  0  0  0  0  0  0  0  0
   33.7197   -6.2317  108.9638 O   0  0  0  0  0  0  0  0  0  0  0  0
   34.0574   -5.0550  109.0657 C   0  0  0  0  0  0  0  0  0  0  0  0
   31.9005   -3.7207  108.6526 C   0  0  0  0  0  0  0  0  0  0  0  0
   27.3478   -1.3732  101.9331 O   0  5  0  0  0  0  0  0  0  0  0  0
   27.4648   -2.5963  103.8840 O   0  0  0  0  0  0  0  0  0  0  0  0
  1 17  1  0  0  0  0
  1 20  1  0  0  0  0
  2 15  1  6  0  0  0
  2  3  1  0  0  0  0
  2 11  1  0  0  0  0
  3  5  1  0  0  0  0
  4 16  1  6  0  0  0
  4 21  1  0  0  0  0
  4 22  2  0  0  0  0
  4 14  1  0  0  0  0
  5  1  1  6  0  0  0
  5  8  1  0  0  0  0
  6 17  2  0  0  0  0
  6 12  1  0  0  0  0
  8  7  1  1  0  0  0
  8 11  1  0  0  0  0
  9 19  1  0  0  0  0
 11 10  1  1  0  0  0
 12 20  2  0  0  0  0
 12 19  1  0  0  0  0
 13 20  1  0  0  0  0
 14 15  1  0  0  0  0
 18 19  2  0  0  0  0
M  CHG  1  21  -1
M  END
>  <CHROM.1>
74.72570561,132.68530299,-63.66831799,-76.69286164,59.16171211,30.49362566
-2.35853034,106.40845572,0.45304874,-0.79506210,1.05873474

>  <Name>
ligand

>  <RI>
0

>  <Rbt.Current_Directory>
/home/itssahil/PROJECTS/Mol_Feturizer/New_Systems/rnas/4XW7

>  <Rbt.Executable>
rbdock ($Id: //depot/dev/client3/rdock/2013.1/src/exe/rbdock.cxx#4 $)

>  <Rbt.Library>
libRbt.so (2013.1, Build901 2013/11/27)

>  <Rbt.Parameter_File>
/export/apps/rDock/src/rDock_2013.1_src/data/scripts/dock_solv.prm

>  <Rbt.Receptor>
prm/pocket_docking_6.prm

>  <SCORE>
-6.7594

>  <SCORE.INTER>
-10.4646

>  <SCORE.INTER.CONST>
1

>  <SCORE.INTER.POLAR>
0

>  <SCORE.INTER.ROT>
5

>  <SCORE.INTER.SOLV>
13.4971

>  <SCORE.INTER.VDW>
-18.4088

>  <SCORE.INTER.norm>
-0.475662

>  <SCORE.INTRA>
3.70516

>  <SCORE.INTRA.DIHEDRAL>
6.4916

>  <SCORE.INTRA.DIHEDRAL.0>
2.61549

>  <SCORE.INTRA.POLAR>
0

>  <SCORE.INTRA.POLAR.0>
0

>  <SCORE.INTRA.REPUL>
0

>  <SCORE.INTRA.REPUL.0>
0

>  <SCORE.INTRA.SOLV>
1.02455

>  <SCORE.INTRA.SOLV.lig_0>
-73.766

>  <SCORE.INTRA.VDW>
-0.0529132

>  <SCORE.INTRA.VDW.0>
-1.95055

>  <SCORE.INTRA.norm>
0.168416

>  <SCORE.RESTR>
0

>  <SCORE.RESTR.CAVITY>
0

>  <SCORE.RESTR.norm>
0

>  <SCORE.SYSTEM>
0

>  <SCORE.SYSTEM.CONST>
0

>  <SCORE.SYSTEM.DIHEDRAL>
0

>  <SCORE.SYSTEM.SOLV>
0

>  <SCORE.SYSTEM.norm>
0

>  <SCORE.heavy>
22

>  <SCORE.norm>
-0.307246

>  <RMSD>
5.642

$$$$
ligand
 OpenBabel11021811513D
libRbt.so/2013.1/901 2013/11/27
 22 23  0  0  0  0  0  0  0  0999 V2000
   31.6551   -2.6386  107.9216 N   0  0  0  0  0  0  0  0  0  0  0  0
   29.2553   -1.1463  105.9920 C   0  0  1  0  0  0  0  0  0  0  0  0
   29.7053   -2.3878  106.6381 O   0  0  0  0  0  0  0  0  0  0  0  0
   28.4068   -1.7544  103.0315 P   0  0  2  0  0  0  0  0  0  0  0  0
   30.4063   -2.0115  107.8600 C   0  0  2  0  0  0  0  0  0  0  0  0
   33.7639   -3.1099  107.5437 N   0  0  0  0  0  0  0  0  0  0  0  0
   30.4616    0.0088  109.1376 O   0  0  0  0  0  0  0  0  0  0  0  0
   30.5705   -0.5452  107.8179 C   0  0  2  0  0  0  0  0  0  0  0  0
   35.2843   -4.8052  109.7535 N   0  0  0  0  0  0  0  0  0  0  0  0
   28.2936    0.1303  107.7628 O   0  0  0  0  0  0  0  0  0  0  0  0
   29.4799   -0.0655  106.9619 C   0  0  2  0  0  0  0  0  0  0  0  0
   33.3026   -3.9931  108.4503 C   0  0  0  0  0  0  0  0  0  0  0  0
   31.0998   -4.3972  109.5906 N   0  0  0  0  0  0  0  0  0  0  0  0
   29.1963   -0.5897  103.7130 O   0  0  0  0  0  0  0  0  0  0  0  0
   30.0554   -0.8976  104.7678 C   0  0  0  0  0  0  0  0  0  0  0  0
   29.4084   -2.6926  102.2350 O   0  0  0  0  0  0  0  0  0  0  0  0
   32.7381   -2.2837  107.2290 C   0  0  0  0  0  0  0  0  0  0  0  0
   33.7065   -6.2572  108.9852 O   0  0  0  0  0  0  0  0  0  0  0  0
   34.0972   -5.0962  109.0765 C   0  0  0  0  0  0  0  0  0  0  0  0
   31.9677   -3.7085  108.6987 C   0  0  0  0  0  0  0  0  0  0  0  0
   27.3413   -1.2349  102.1450 O   0  5  0  0  0  0  0  0  0  0  0  0
   27.6244   -2.5343  104.0283 O   0  0  0  0  0  0  0  0  0  0  0  0
  1 17  1  0  0  0  0
  1 20  1  0  0  0  0
  2 15  1  6  0  0  0
  2  3  1  0  0  0  0
  2 11  1  0  0  0  0
  3  5  1  0  0  0  0
  4 16  1  6  0  0  0
  4 21  1  0  0  0  0
  4 22  2  0  0  0  0
  4 14  1  0  0  0  0
  5  1  1  6  0  0  0
  5  8  1  0  0  0  0
  6 17  2  0  0  0  0
  6 12  1  0  0  0  0
  8  7  1  1  0  0  0
  8 11  1  0  0  0  0
  9 19  1  0  0  0  0
 11 10  1  1  0  0  0
 12 20  2  0  0  0  0
 12 19  1  0  0  0  0
 13 20  1  0  0  0  0
 14 15  1  0  0  0  0
 18 19  2  0  0  0  0
M  CHG  1  21  -1
M  END
>  <CHROM.1>
76.29108278,132.11966125,-68.58321135,-76.48071624,56.03764288,30.57786926
-2.29523198,106.49326079,0.41914088,-0.81101362,1.03913312

>  <Name>
ligand

>  <RI>
0

>  <Rbt.Current_Directory>
/home/itssahil/PROJECTS/Mol_Feturizer/New_Systems/rnas/4XW7

>  <Rbt.Executable>
rbdock ($Id: //depot/dev/client3/rdock/2013.1/src/exe/rbdock.cxx#4 $)

>  <Rbt.Library>
libRbt.so (2013.1, Build901 2013/11/27)

>  <Rbt.Parameter_File>
/export/apps/rDock/src/rDock_2013.1_src/data/scripts/dock_solv.prm

>  <Rbt.Receptor>
prm/pocket_docking_8.prm

>  <SCORE>
-6.99643

>  <SCORE.INTER>
-10.8999

>  <SCORE.INTER.CONST>
1

>  <SCORE.INTER.POLAR>
0

>  <SCORE.INTER.ROT>
5

>  <SCORE.INTER.SOLV>
14.2471

>  <SCORE.INTER.VDW>
-18.9489

>  <SCORE.INTER.norm>
-0.495448

>  <SCORE.INTRA>
3.90343

>  <SCORE.INTRA.DIHEDRAL>
6.58915

>  <SCORE.INTRA.DIHEDRAL.0>
2.61549

>  <SCORE.INTRA.POLAR>
0

>  <SCORE.INTRA.POLAR.0>
0

>  <SCORE.INTRA.REPUL>
0

>  <SCORE.INTRA.REPUL.0>
0

>  <SCORE.INTRA.SOLV>
1.14442

>  <SCORE.INTRA.SOLV.lig_0>
-73.766

>  <SCORE.INTRA.VDW>
0.036645

>  <SCORE.INTRA.VDW.0>
-1.95055

>  <SCORE.INTRA.norm>
0.177429

>  <SCORE.RESTR>
0

>  <SCORE.RESTR.CAVITY>
0

>  <SCORE.RESTR.norm>
0

>  <SCORE.SYSTEM>
0

>  <SCORE.SYSTEM.CONST>
0

>  <SCORE.SYSTEM.DIHEDRAL>
0

>  <SCORE.SYSTEM.SOLV>
0

>  <SCORE.SYSTEM.norm>
0

>  <SCORE.heavy>
22

>  <SCORE.norm>
-0.318019

>  <RMSD>
5.722

$$$$
ligand
 OpenBabel11021811513D
libRbt.so/2013.1/901 2013/11/27
 22 23  0  0  0  0  0  0  0  0999 V2000
   31.8254   -2.6247  108.0305 N   0  0  0  0  0  0  0  0  0  0  0  0
   29.3233   -1.1680  106.2063 C   0  0  1  0  0  0  0  0  0  0  0  0
   29.8187   -2.4026  106.8322 O   0  0  0  0  0  0  0  0  0  0  0  0
   28.3016   -1.6343  103.2681 P   0  0  2  0  0  0  0  0  0  0  0  0
   30.5661   -2.0158  108.0229 C   0  0  2  0  0  0  0  0  0  0  0  0
   33.8891   -3.1357  107.4902 N   0  0  0  0  0  0  0  0  0  0  0  0
   30.6472    0.0057  109.2973 O   0  0  0  0  0  0  0  0  0  0  0  0
   30.7071   -0.5472  107.9741 C   0  0  2  0  0  0  0  0  0  0  0  0
   35.1048   -4.5533  110.3985 N   0  0  0  0  0  0  0  0  0  0  0  0
   28.4205    0.0953  108.0171 O   0  0  0  0  0  0  0  0  0  0  0  0
   29.5739   -0.0837  107.1659 C   0  0  2  0  0  0  0  0  0  0  0  0
   33.5444   -3.8902  108.5518 C   0  0  0  0  0  0  0  0  0  0  0  0
   31.4855   -4.1442  109.9701 N   0  0  0  0  0  0  0  0  0  0  0  0
   29.1658   -0.5269  103.9543 O   0  0  0  0  0  0  0  0  0  0  0  0
   30.0664   -0.9083  104.9489 C   0  0  0  0  0  0  0  0  0  0  0  0
   29.2303   -2.5841  102.4002 O   0  0  0  0  0  0  0  0  0  0  0  0
   32.8205   -2.3628  107.1823 C   0  0  0  0  0  0  0  0  0  0  0  0
   34.5455   -6.0197  108.7477 O   0  0  0  0  0  0  0  0  0  0  0  0
   34.4218   -4.8962  109.2288 C   0  0  0  0  0  0  0  0  0  0  0  0
   32.2393   -3.5791  108.9046 C   0  0  0  0  0  0  0  0  0  0  0  0
   27.2241   -1.0416  102.4441 O   0  5  0  0  0  0  0  0  0  0  0  0
   27.5277   -2.4160  104.2701 O   0  0  0  0  0  0  0  0  0  0  0  0
  1 17  1  0  0  0  0
  1 20  1  0  0  0  0
  2 15  1  6  0  0  0
  2  3  1  0  0  0  0
  2 11  1  0  0  0  0
  3  5  1  0  0  0  0
  4 16  1  6  0  0  0
  4 21  1  0  0  0  0
  4 22  2  0  0  0  0
  4 14  1  0  0  0  0
  5  1  1  6  0  0  0
  5  8  1  0  0  0  0
  6 17  2  0  0  0  0
  6 12  1  0  0  0  0
  8  7  1  1  0  0  0
  8 11  1  0  0  0  0
  9 19  1  0  0  0  0
 11 10  1  1  0  0  0
 12 20  2  0  0  0  0
 12 19  1  0  0  0  0
 13 20  1  0  0  0  0
 14 15  1  0  0  0  0
 18 19  2  0  0  0  0
M  CHG  1  21  -1
M  END
>  <CHROM.1>
67.68515917,136.01404984,-67.69834774,-77.10116283,98.62613566,30.68244767
-2.21990126,106.67749895,0.43562223,-0.75772163,1.07558670

>  <Name>
ligand

>  <RI>
0

>  <Rbt.Current_Directory>
/home/itssahil/PROJECTS/Mol_Feturizer/New_Systems/rnas/4XW7

>  <Rbt.Executable>
rbdock ($Id: //depot/dev/client3/rdock/2013.1/src/exe/rbdock.cxx#4 $)

>  <Rbt.Library>
libRbt.so (2013.1, Build901 2013/11/27)

>  <Rbt.Parameter_File>
/export/apps/rDock/src/rDock_2013.1_src/data/scripts/dock_solv.prm

>  <Rbt.Receptor>
prm/pocket_docking_6.prm

>  <SCORE>
-7.46479

>  <SCORE.INTER>
-10.4393

>  <SCORE.INTER.CONST>
1

>  <SCORE.INTER.POLAR>
0

>  <SCORE.INTER.ROT>
5

>  <SCORE.INTER.SOLV>
13.4333

>  <SCORE.INTER.VDW>
-18.3706

>  <SCORE.INTER.norm>
-0.474513

>  <SCORE.INTRA>
2.97449

>  <SCORE.INTRA.DIHEDRAL>
5.12218

>  <SCORE.INTRA.DIHEDRAL.0>
2.61549

>  <SCORE.INTRA.POLAR>
0

>  <SCORE.INTRA.POLAR.0>
0

>  <SCORE.INTRA.REPUL>
0

>  <SCORE.INTRA.REPUL.0>
0

>  <SCORE.INTRA.SOLV>
1.15317

>  <SCORE.INTRA.SOLV.lig_0>
-73.766

>  <SCORE.INTRA.VDW>
-0.163186

>  <SCORE.INTRA.VDW.0>
-1.95055

>  <SCORE.INTRA.norm>
0.135204

>  <SCORE.RESTR>
0

>  <SCORE.RESTR.CAVITY>
0

>  <SCORE.RESTR.norm>
0

>  <SCORE.SYSTEM>
0

>  <SCORE.SYSTEM.CONST>
0

>  <SCORE.SYSTEM.DIHEDRAL>
0

>  <SCORE.SYSTEM.SOLV>
0

>  <SCORE.SYSTEM.norm>
0

>  <SCORE.heavy>
22

>  <SCORE.norm>
-0.339309

>  <RMSD>
5.759

$$$$
ligand
 OpenBabel11021811513D
libRbt.so/2013.1/901 2013/11/27
 22 23  0  0  0  0  0  0  0  0999 V2000
   32.5717   -2.0243  107.3285 N   0  0  0  0  0  0  0  0  0  0  0  0
   32.8203   -5.0181  108.9671 C   0  0  1  0  0  0  0  0  0  0  0  0
   33.3228   -4.1825  107.8667 O   0  0  0  0  0  0  0  0  0  0  0  0
   29.8182   -7.3533  109.3343 P   0  0  2  0  0  0  0  0  0  0  0  0
   33.2249   -2.7930  108.2975 C   0  0  2  0  0  0  0  0  0  0  0  0
   32.2155   -0.5865  105.7105 N   0  0  0  0  0  0  0  0  0  0  0  0
   32.9442   -1.7801  110.4452 O   0  0  0  0  0  0  0  0  0  0  0  0
   32.4536   -2.7946  109.5562 C   0  0  2  0  0  0  0  0  0  0  0  0
   29.1069   -1.7708  104.5488 N   0  0  0  0  0  0  0  0  0  0  0  0
   33.8720   -4.1302  110.9154 O   0  0  0  0  0  0  0  0  0  0  0  0
   32.6615   -4.1300  110.1270 C   0  0  2  0  0  0  0  0  0  0  0  0
   31.0326   -1.1476  106.0281 C   0  0  0  0  0  0  0  0  0  0  0  0
   30.2605   -2.8709  107.6864 N   0  0  0  0  0  0  0  0  0  0  0  0
   31.1386   -6.5456  109.5550 O   0  0  0  0  0  0  0  0  0  0  0  0
   31.5075   -5.6013  108.5969 C   0  0  0  0  0  0  0  0  0  0  0  0
   29.8741   -8.1097  107.9405 O   0  0  0  0  0  0  0  0  0  0  0  0
   33.1517   -1.1368  106.5196 C   0  0  0  0  0  0  0  0  0  0  0  0
   29.1828    0.2533  105.5908 O   0  0  0  0  0  0  0  0  0  0  0  0
   29.7175   -0.8335  105.3860 C   0  0  0  0  0  0  0  0  0  0  0  0
   31.2417   -2.0593  107.0527 C   0  0  0  0  0  0  0  0  0  0  0  0
   28.6301   -6.4743  109.4185 O   0  5  0  0  0  0  0  0  0  0  0  0
   29.5743   -8.3077  110.4495 O   0  0  0  0  0  0  0  0  0  0  0  0
  1 17  1  0  0  0  0
  1 20  1  0  0  0  0
  2 15  1  6  0  0  0
  2  3  1  0  0  0  0
  2 11  1  0  0  0  0
  3  5  1  0  0  0  0
  4 16  1  6  0  0  0
  4 21  1  0  0  0  0
  4 22  2  0  0  0  0
  4 14  1  0  0  0  0
  5  1  1  6  0  0  0
  5  8  1  0  0  0  0
  6 17  2  0  0  0  0
  6 12  1  0  0  0  0
  8  7  1  1  0  0  0
  8 11  1  0  0  0  0
  9 19  1  0  0  0  0
 11 10  1  1  0  0  0
 12 20  2  0  0  0  0
 12 19  1  0  0  0  0
 13 20  1  0  0  0  0
 14 15  1  0  0  0  0
 18 19  2  0  0  0  0
M  CHG  1  21  -1
M  END
>  <CHROM.1>
-106.92400738,171.08633068,56.86219542,-176.73556927,109.10273837,31.26813780
-3.92033525,108.20225460,-1.43549938,0.58566157,2.56983160

>  <Name>
ligand

>  <RI>
0

>  <Rbt.Current_Directory>
/home/itssahil/PROJECTS/Mol_Feturizer/New_Systems/rnas/4XW7

>  <Rbt.Executable>
rbdock ($Id: //depot/dev/client3/rdock/2013.1/src/exe/rbdock.cxx#4 $)

>  <Rbt.Library>
libRbt.so (2013.1, Build901 2013/11/27)

>  <Rbt.Parameter_File>
/export/apps/rDock/src/rDock_2013.1_src/data/scripts/dock_solv.prm

>  <Rbt.Receptor>
prm/pocket_docking_5.prm

>  <SCORE>
-7.74671

>  <SCORE.INTER>
-9.28158

>  <SCORE.INTER.CONST>
1

>  <SCORE.INTER.POLAR>
0

>  <SCORE.INTER.ROT>
5

>  <SCORE.INTER.SOLV>
9.07505

>  <SCORE.INTER.VDW>
-16.1461

>  <SCORE.INTER.norm>
-0.42189

>  <SCORE.INTRA>
1.52466

>  <SCORE.INTRA.DIHEDRAL>
-0.670745

>  <SCORE.INTRA.DIHEDRAL.0>
2.61549

>  <SCORE.INTRA.POLAR>
0

>  <SCORE.INTRA.POLAR.0>
0

>  <SCORE.INTRA.REPUL>
0

>  <SCORE.INTRA.REPUL.0>
0

>  <SCORE.INTRA.SOLV>
4.27573

>  <SCORE.INTRA.SOLV.lig_0>
-73.766

>  <SCORE.INTRA.VDW>
-0.277838

>  <SCORE.INTRA.VDW.0>
-1.95055

>  <SCORE.INTRA.norm>
0.0693025

>  <SCORE.RESTR>
0.0102121

>  <SCORE.RESTR.CAVITY>
0.0102121

>  <SCORE.RESTR.norm>
0.000464187

>  <SCORE.SYSTEM>
0

>  <SCORE.SYSTEM.CONST>
0

>  <SCORE.SYSTEM.DIHEDRAL>
0

>  <SCORE.SYSTEM.SOLV>
0

>  <SCORE.SYSTEM.norm>
0

>  <SCORE.heavy>
22

>  <SCORE.norm>
-0.352123

>  <RMSD>
5.828

$$$$
ligand
 OpenBabel11021811513D
libRbt.so/2013.1/901 2013/11/27
 22 23  0  0  0  0  0  0  0  0999 V2000
   32.8223   -2.2761  107.4425 N   0  0  0  0  0  0  0  0  0  0  0  0
   32.9237   -5.1534  109.2921 C   0  0  1  0  0  0  0  0  0  0  0  0
   33.2416   -4.5164  108.0058 O   0  0  0  0  0  0  0  0  0  0  0  0
   29.6982   -7.0412  108.4928 P   0  0  2  0  0  0  0  0  0  0  0  0
   33.5593   -3.1200  108.2799 C   0  0  2  0  0  0  0  0  0  0  0  0
   32.3181   -0.6795  106.0253 N   0  0  0  0  0  0  0  0  0  0  0  0
   34.1316   -1.9542  110.2875 O   0  0  0  0  0  0  0  0  0  0  0  0
   33.2065   -2.8763  109.6924 C   0  0  2  0  0  0  0  0  0  0  0  0
   28.7892   -0.6520  106.6777 N   0  0  0  0  0  0  0  0  0  0  0  0
   34.6570   -4.4251  110.7602 O   0  0  0  0  0  0  0  0  0  0  0  0
   33.2955   -4.1906  110.3381 C   0  0  2  0  0  0  0  0  0  0  0  0
   31.1786   -1.3285  106.3340 C   0  0  0  0  0  0  0  0  0  0  0  0
   30.5711   -3.2662  107.8145 N   0  0  0  0  0  0  0  0  0  0  0  0
   31.1794   -6.5469  108.5690 O   0  0  0  0  0  0  0  0  0  0  0  0
   31.4700   -5.4396  109.3660 C   0  0  0  0  0  0  0  0  0  0  0  0
   28.8053   -5.9601  107.7499 O   0  0  0  0  0  0  0  0  0  0  0  0
   33.3196   -1.2749  106.7154 C   0  0  0  0  0  0  0  0  0  0  0  0
   29.6082   -1.0588  104.5915 O   0  0  0  0  0  0  0  0  0  0  0  0
   29.8181   -1.0047  105.8006 C   0  0  0  0  0  0  0  0  0  0  0  0
   31.4815   -2.3417  107.2321 C   0  0  0  0  0  0  0  0  0  0  0  0
   29.1625   -7.3433  109.8393 O   0  5  0  0  0  0  0  0  0  0  0  0
   29.6028   -8.3649  107.8199 O   0  0  0  0  0  0  0  0  0  0  0  0
  1 17  1  0  0  0  0
  1 20  1  0  0  0  0
  2 15  1  6  0  0  0
  2  3  1  0  0  0  0
  2 11  1  0  0  0  0
  3  5  1  0  0  0  0
  4 16  1  6  0  0  0
  4 21  1  0  0  0  0
  4 22  2  0  0  0  0
  4 14  1  0  0  0  0
  5  1  1  6  0  0  0
  5  8  1  0  0  0  0
  6 17  2  0  0  0  0
  6 12  1  0  0  0  0
  8  7  1  1  0  0  0
  8 11  1  0  0  0  0
  9 19  1  0  0  0  0
 11 10  1  6  0  0  0
 12 20  2  0  0  0  0
 12 19  1  0  0  0  0
 13 20  1  0  0  0  0
 14 15  1  0  0  0  0
 18 19  2  0  0  0  0
M  CHG  1  21  -1
M  END
>  <CHROM.1>
-130.42977529,75.50037122,67.35911765,179.83304078,-120.15798907,31.45591649
-3.96346172,108.11442186,-1.30636457,0.54716295,2.64350759

>  <Name>
ligand

>  <RI>
0

>  <Rbt.Current_Directory>
/home/itssahil/PROJECTS/Mol_Feturizer/New_Systems/rnas/4XW7

>  <Rbt.Executable>
rbdock ($Id: //depot/dev/client3/rdock/2013.1/src/exe/rbdock.cxx#4 $)

>  <Rbt.Library>
libRbt.so (2013.1, Build901 2013/11/27)

>  <Rbt.Parameter_File>
/export/apps/rDock/src/rDock_2013.1_src/data/scripts/dock_solv.prm

>  <Rbt.Receptor>
prm/pocket_docking_6.prm

>  <SCORE>
-7.8067

>  <SCORE.INTER>
-10.0794

>  <SCORE.INTER.CONST>
1

>  <SCORE.INTER.POLAR>
0

>  <SCORE.INTER.ROT>
5

>  <SCORE.INTER.SOLV>
13.0742

>  <SCORE.INTER.VDW>
-18.011

>  <SCORE.INTER.norm>
-0.458152

>  <SCORE.INTRA>
2.27266

>  <SCORE.INTRA.DIHEDRAL>
-0.219368

>  <SCORE.INTRA.DIHEDRAL.0>
2.61549

>  <SCORE.INTRA.POLAR>
0

>  <SCORE.INTRA.POLAR.0>
0

>  <SCORE.INTRA.REPUL>
0

>  <SCORE.INTRA.REPUL.0>
0

>  <SCORE.INTRA.SOLV>
5.93061

>  <SCORE.INTRA.SOLV.lig_0>
-73.766

>  <SCORE.INTRA.VDW>
-0.582966

>  <SCORE.INTRA.VDW.0>
-1.95055

>  <SCORE.INTRA.norm>
0.103303

>  <SCORE.RESTR>
0

>  <SCORE.RESTR.CAVITY>
0

>  <SCORE.RESTR.norm>
0

>  <SCORE.SYSTEM>
0

>  <SCORE.SYSTEM.CONST>
0

>  <SCORE.SYSTEM.DIHEDRAL>
0

>  <SCORE.SYSTEM.SOLV>
0

>  <SCORE.SYSTEM.norm>
0

>  <SCORE.heavy>
22

>  <SCORE.norm>
-0.35485

>  <RMSD>
5.939

$$$$
ligand
 OpenBabel11021811513D
libRbt.so/2013.1/901 2013/11/27
 22 23  0  0  0  0  0  0  0  0999 V2000
   29.7591   -1.1780  105.6838 N   0  0  0  0  0  0  0  0  0  0  0  0
   27.2566   -1.7973  103.4335 C   0  0  1  0  0  0  0  0  0  0  0  0
   28.0200   -2.3066  104.5820 O   0  0  0  0  0  0  0  0  0  0  0  0
   27.8770   -1.8432   99.6637 P   0  0  2  0  0  0  0  0  0  0  0  0
   28.3894   -1.1582  105.4011 C   0  0  2  0  0  0  0  0  0  0  0  0
   31.9245   -0.8848  105.4909 N   0  0  0  0  0  0  0  0  0  0  0  0
   27.5867    1.0923  105.4891 O   0  0  0  0  0  0  0  0  0  0  0  0
   28.0444    0.0458  104.6199 C   0  0  2  0  0  0  0  0  0  0  0  0
   32.8405   -1.2238  108.8864 N   0  0  0  0  0  0  0  0  0  0  0  0
   25.7003   -0.2619  104.3880 O   0  0  0  0  0  0  0  0  0  0  0  0
   26.9727   -0.3832  103.7146 C   0  0  2  0  0  0  0  0  0  0  0  0
   31.6966   -1.4919  106.6718 C   0  0  0  0  0  0  0  0  0  0  0  0
   29.6585   -2.2927  107.9050 N   0  0  0  0  0  0  0  0  0  0  0  0
   27.2546   -1.6871  101.0893 O   0  0  0  0  0  0  0  0  0  0  0  0
   28.0705   -1.9107  102.1984 C   0  0  0  0  0  0  0  0  0  0  0  0
   28.7170   -0.5482   99.2960 O   0  0  0  0  0  0  0  0  0  0  0  0
   30.7224   -0.6989  104.8957 C   0  0  0  0  0  0  0  0  0  0  0  0
   33.5219   -2.8040  107.3941 O   0  0  0  0  0  0  0  0  0  0  0  0
   32.7438   -1.8924  107.6634 C   0  0  0  0  0  0  0  0  0  0  0  0
   30.3296   -1.6859  106.8076 C   0  0  0  0  0  0  0  0  0  0  0  0
   26.8337   -2.1101   98.6480 O   0  5  0  0  0  0  0  0  0  0  0  0
   28.7172   -3.0678   99.5706 O   0  0  0  0  0  0  0  0  0  0  0  0
  1 17  1  0  0  0  0
  1 20  1  0  0  0  0
  2 15  1  6  0  0  0
  2  3  1  0  0  0  0
  2 11  1  0  0  0  0
  3  5  1  0  0  0  0
  4 16  1  6  0  0  0
  4 21  1  0  0  0  0
  4 22  2  0  0  0  0
  4 14  1  0  0  0  0
  5  1  1  6  0  0  0
  5  8  1  0  0  0  0
  6 17  2  0  0  0  0
  6 12  1  0  0  0  0
  8  7  1  1  0  0  0
  8 11  1  0  0  0  0
  9 19  1  0  0  0  0
 11 10  1  1  0  0  0
 12 20  2  0  0  0  0
 12 19  1  0  0  0  0
 13 20  1  0  0  0  0
 14 15  1  0  0  0  0
 18 19  2  0  0  0  0
M  CHG  1  21  -1
M  END
>  <CHROM.1>
84.70760442,167.97076225,-79.07670993,-176.25369587,110.66332084,29.06362889
-1.40148398,103.87584718,1.01816232,-0.35468376,1.34528715

>  <Name>
ligand

>  <RI>
0

>  <Rbt.Current_Directory>
/home/itssahil/PROJECTS/Mol_Feturizer/New_Systems/rnas/4XW7

>  <Rbt.Executable>
rbdock ($Id: //depot/dev/client3/rdock/2013.1/src/exe/rbdock.cxx#4 $)

>  <Rbt.Library>
libRbt.so (2013.1, Build901 2013/11/27)

>  <Rbt.Parameter_File>
/export/apps/rDock/src/rDock_2013.1_src/data/scripts/dock_solv.prm

>  <Rbt.Receptor>
prm/pocket_docking_8.prm

>  <SCORE>
-7.49659

>  <SCORE.INTER>
-7.58954

>  <SCORE.INTER.CONST>
1

>  <SCORE.INTER.POLAR>
0

>  <SCORE.INTER.ROT>
5

>  <SCORE.INTER.SOLV>
9.77294

>  <SCORE.INTER.VDW>
-15.2507

>  <SCORE.INTER.norm>
-0.344979

>  <SCORE.INTRA>
0.0929485

>  <SCORE.INTRA.DIHEDRAL>
0.0697409

>  <SCORE.INTRA.DIHEDRAL.0>
2.61549

>  <SCORE.INTRA.POLAR>
0

>  <SCORE.INTRA.POLAR.0>
0

>  <SCORE.INTRA.REPUL>
0

>  <SCORE.INTRA.REPUL.0>
0

>  <SCORE.INTRA.SOLV>
-0.635121

>  <SCORE.INTRA.SOLV.lig_0>
-73.766

>  <SCORE.INTRA.VDW>
0.375638

>  <SCORE.INTRA.VDW.0>
-1.95055

>  <SCORE.INTRA.norm>
0.00422493

>  <SCORE.RESTR>
0

>  <SCORE.RESTR.CAVITY>
0

>  <SCORE.RESTR.norm>
0

>  <SCORE.SYSTEM>
0

>  <SCORE.SYSTEM.CONST>
0

>  <SCORE.SYSTEM.DIHEDRAL>
0

>  <SCORE.SYSTEM.SOLV>
0

>  <SCORE.SYSTEM.norm>
0

>  <SCORE.heavy>
22

>  <SCORE.norm>
-0.340754

>  <RMSD>
5.939

$$$$
ligand
 OpenBabel11021811513D
libRbt.so/2013.1/901 2013/11/27
 22 23  0  0  0  0  0  0  0  0999 V2000
   32.8484   -2.2431  107.4080 N   0  0  0  0  0  0  0  0  0  0  0  0
   32.9723   -5.1135  109.2669 C   0  0  1  0  0  0  0  0  0  0  0  0
   33.2780   -4.4803  107.9758 O   0  0  0  0  0  0  0  0  0  0  0  0
   29.7653   -7.0694  108.5719 P   0  0  2  0  0  0  0  0  0  0  0  0
   33.5944   -3.0821  108.2424 C   0  0  2  0  0  0  0  0  0  0  0  0
   32.3279   -0.6499  105.9929 N   0  0  0  0  0  0  0  0  0  0  0  0
   34.1803   -1.9078  110.2410 O   0  0  0  0  0  0  0  0  0  0  0  0
   33.2527   -2.8343  109.6568 C   0  0  2  0  0  0  0  0  0  0  0  0
   29.1097   -1.9619  105.0774 N   0  0  0  0  0  0  0  0  0  0  0  0
   34.7159   -4.3757  110.7182 O   0  0  0  0  0  0  0  0  0  0  0  0
   33.3503   -4.1461  110.3064 C   0  0  2  0  0  0  0  0  0  0  0  0
   31.1940   -1.3062  106.3065 C   0  0  0  0  0  0  0  0  0  0  0  0
   30.6053   -3.2476  107.7898 N   0  0  0  0  0  0  0  0  0  0  0  0
   31.2234   -6.5055  108.5523 O   0  0  0  0  0  0  0  0  0  0  0  0
   31.5200   -5.4031  109.3538 C   0  0  0  0  0  0  0  0  0  0  0  0
   29.3265   -7.3811  110.0646 O   0  0  0  0  0  0  0  0  0  0  0  0
   33.3362   -1.2388  106.6788 C   0  0  0  0  0  0  0  0  0  0  0  0
   29.3489    0.1253  105.9577 O   0  0  0  0  0  0  0  0  0  0  0  0
   29.8291   -0.9911  105.7790 C   0  0  0  0  0  0  0  0  0  0  0  0
   31.5072   -2.3173  107.2034 C   0  0  0  0  0  0  0  0  0  0  0  0
   29.6422   -8.2710  107.7163 O   0  5  0  0  0  0  0  0  0  0  0  0
   28.8124   -6.1297  107.9214 O   0  0  0  0  0  0  0  0  0  0  0  0
  1 17  1  0  0  0  0
  1 20  1  0  0  0  0
  2 15  1  6  0  0  0
  2  3  1  0  0  0  0
  2 11  1  0  0  0  0
  3  5  1  0  0  0  0
  4 16  1  1  0  0  0
  4 21  1  0  0  0  0
  4 22  2  0  0  0  0
  4 14  1  0  0  0  0
  5  1  1  6  0  0  0
  5  8  1  0  0  0  0
  6 17  2  0  0  0  0
  6 12  1  0  0  0  0
  8  7  1  1  0  0  0
  8 11  1  0  0  0  0
  9 19  1  0  0  0  0
 11 10  1  6  0  0  0
 12 20  2  0  0  0  0
 12 19  1  0  0  0  0
 13 20  1  0  0  0  0
 14 15  1  0  0  0  0
 18 19  2  0  0  0  0
M  CHG  1  21  -1
M  END
>  <CHROM.1>
-130.80531603,74.89056628,-53.77252800,175.24903193,121.09659920,31.49757944
-3.94636888,108.11414905,-1.31260723,0.54545113,2.65043544

>  <Name>
ligand

>  <RI>
0

>  <Rbt.Current_Directory>
/home/itssahil/PROJECTS/Mol_Feturizer/New_Systems/rnas/4XW7

>  <Rbt.Executable>
rbdock ($Id: //depot/dev/client3/rdock/2013.1/src/exe/rbdock.cxx#4 $)

>  <Rbt.Library>
libRbt.so (2013.1, Build901 2013/11/27)

>  <Rbt.Parameter_File>
/export/apps/rDock/src/rDock_2013.1_src/data/scripts/dock_solv.prm

>  <Rbt.Receptor>
prm/pocket_docking_6.prm

>  <SCORE>
-6.57219

>  <SCORE.INTER>
-9.08059

>  <SCORE.INTER.CONST>
1

>  <SCORE.INTER.POLAR>
0

>  <SCORE.INTER.ROT>
5

>  <SCORE.INTER.SOLV>
16.0131

>  <SCORE.INTER.VDW>
-18.3248

>  <SCORE.INTER.norm>
-0.412754

>  <SCORE.INTRA>
2.50841

>  <SCORE.INTRA.DIHEDRAL>
-0.191435

>  <SCORE.INTRA.DIHEDRAL.0>
2.61549

>  <SCORE.INTRA.POLAR>
0

>  <SCORE.INTRA.POLAR.0>
0

>  <SCORE.INTRA.REPUL>
0

>  <SCORE.INTRA.REPUL.0>
0

>  <SCORE.INTRA.SOLV>
6.31144

>  <SCORE.INTRA.SOLV.lig_0>
-73.766

>  <SCORE.INTRA.VDW>
-0.551597

>  <SCORE.INTRA.VDW.0>
-1.95055

>  <SCORE.INTRA.norm>
0.114018

>  <SCORE.RESTR>
0

>  <SCORE.RESTR.CAVITY>
0

>  <SCORE.RESTR.norm>
0

>  <SCORE.SYSTEM>
0

>  <SCORE.SYSTEM.CONST>
0

>  <SCORE.SYSTEM.DIHEDRAL>
0

>  <SCORE.SYSTEM.SOLV>
0

>  <SCORE.SYSTEM.norm>
0

>  <SCORE.heavy>
22

>  <SCORE.norm>
-0.298736

>  <RMSD>
5.971

$$$$
ligand
 OpenBabel11021811513D
libRbt.so/2013.1/901 2013/11/27
 22 23  0  0  0  0  0  0  0  0999 V2000
   32.1284   -2.8439  108.4223 N   0  0  0  0  0  0  0  0  0  0  0  0
   29.6842   -1.0221  106.8676 C   0  0  1  0  0  0  0  0  0  0  0  0
   30.0875   -2.3412  107.3763 O   0  0  0  0  0  0  0  0  0  0  0  0
   28.3015   -1.2528  104.2009 P   0  0  2  0  0  0  0  0  0  0  0  0
   30.9393   -2.1163  108.5381 C   0  0  2  0  0  0  0  0  0  0  0  0
   34.0372   -3.5943  107.6444 N   0  0  0  0  0  0  0  0  0  0  0  0
   31.3006   -0.2102  109.9356 O   0  0  0  0  0  0  0  0  0  0  0  0
   31.2258   -0.6688  108.5776 C   0  0  2  0  0  0  0  0  0  0  0  0
   34.3048   -6.6123  109.3922 N   0  0  0  0  0  0  0  0  0  0  0  0
   29.0229    0.1884  108.8139 O   0  0  0  0  0  0  0  0  0  0  0  0
   30.0999   -0.0398  107.8784 C   0  0  2  0  0  0  0  0  0  0  0  0
   33.7897   -4.2299  108.8062 C   0  0  0  0  0  0  0  0  0  0  0  0
   31.9495   -4.1734  110.5168 N   0  0  0  0  0  0  0  0  0  0  0  0
   29.7958   -1.5175  104.5765 O   0  0  0  0  0  0  0  0  0  0  0  0
   30.3743   -0.7455  105.5840 C   0  0  0  0  0  0  0  0  0  0  0  0
   27.3497   -1.8291  105.3322 O   0  0  0  0  0  0  0  0  0  0  0  0
   33.0057   -2.7453  107.4228 C   0  0  0  0  0  0  0  0  0  0  0  0
   35.7016   -4.9214  110.0069 O   0  0  0  0  0  0  0  0  0  0  0  0
   34.6675   -5.2638  109.4393 C   0  0  0  0  0  0  0  0  0  0  0  0
   32.5831   -3.7664  109.3103 C   0  0  0  0  0  0  0  0  0  0  0  0
   27.9696   -1.8286  102.8783 O   0  5  0  0  0  0  0  0  0  0  0  0
   28.0476    0.1963  103.9778 O   0  0  0  0  0  0  0  0  0  0  0  0
  1 17  1  0  0  0  0
  1 20  1  0  0  0  0
  2 15  1  6  0  0  0
  2  3  1  0  0  0  0
  2 11  1  0  0  0  0
  3  5  1  0  0  0  0
  4 16  1  1  0  0  0
  4 21  1  0  0  0  0
  4 22  2  0  0  0  0
  4 14  1  0  0  0  0
  5  1  1  6  0  0  0
  5  8  1  0  0  0  0
  6 17  2  0  0  0  0
  6 12  1  0  0  0  0
  8  7  1  1  0  0  0
  8 11  1  0  0  0  0
  9 19  1  0  0  0  0
 11 10  1  1  0  0  0
 12 20  2  0  0  0  0
 12 19  1  0  0  0  0
 13 20  1  0  0  0  0
 14 15  1  0  0  0  0
 18 19  2  0  0  0  0
M  CHG  1  21  -1
M  END
>  <CHROM.1>
57.79146640,74.02574382,-74.04227457,64.17473605,-105.01901559,30.93906268
-2.21497368,107.27225425,0.27102217,-0.78251668,1.01405018

>  <Name>
ligand

>  <RI>
0

>  <Rbt.Current_Directory>
/home/itssahil/PROJECTS/Mol_Feturizer/New_Systems/rnas/4XW7

>  <Rbt.Executable>
rbdock ($Id: //depot/dev/client3/rdock/2013.1/src/exe/rbdock.cxx#4 $)

>  <Rbt.Library>
libRbt.so (2013.1, Build901 2013/11/27)

>  <Rbt.Parameter_File>
/export/apps/rDock/src/rDock_2013.1_src/data/scripts/dock_solv.prm

>  <Rbt.Receptor>
prm/pocket_docking_8.prm

>  <SCORE>
-8.01219

>  <SCORE.INTER>
-8.39593

>  <SCORE.INTER.CONST>
1

>  <SCORE.INTER.POLAR>
0

>  <SCORE.INTER.ROT>
5

>  <SCORE.INTER.SOLV>
15.1816

>  <SCORE.INTER.VDW>
-17.5912

>  <SCORE.INTER.norm>
-0.381633

>  <SCORE.INTRA>
0.383739

>  <SCORE.INTRA.DIHEDRAL>
0.188148

>  <SCORE.INTRA.DIHEDRAL.0>
2.61549

>  <SCORE.INTRA.POLAR>
0

>  <SCORE.INTRA.POLAR.0>
0

>  <SCORE.INTRA.REPUL>
0

>  <SCORE.INTRA.REPUL.0>
0

>  <SCORE.INTRA.SOLV>
0.71495

>  <SCORE.INTRA.SOLV.lig_0>
-73.766

>  <SCORE.INTRA.VDW>
-0.0678098

>  <SCORE.INTRA.VDW.0>
-1.95055

>  <SCORE.INTRA.norm>
0.0174427

>  <SCORE.RESTR>
0

>  <SCORE.RESTR.CAVITY>
0

>  <SCORE.RESTR.norm>
0

>  <SCORE.SYSTEM>
0

>  <SCORE.SYSTEM.CONST>
0

>  <SCORE.SYSTEM.DIHEDRAL>
0

>  <SCORE.SYSTEM.SOLV>
0

>  <SCORE.SYSTEM.norm>
0

>  <SCORE.heavy>
22

>  <SCORE.norm>
-0.36419

>  <RMSD>
5.975

$$$$
ligand
 OpenBabel11021811513D
libRbt.so/2013.1/901 2013/11/27
 22 23  0  0  0  0  0  0  0  0999 V2000
   32.1383   -2.8442  108.4061 N   0  0  0  0  0  0  0  0  0  0  0  0
   29.6972   -1.0046  106.8675 C   0  0  1  0  0  0  0  0  0  0  0  0
   30.0923   -2.3255  107.3780 O   0  0  0  0  0  0  0  0  0  0  0  0
   28.2911   -1.2591  104.2176 P   0  0  2  0  0  0  0  0  0  0  0  0
   30.9578   -2.1042  108.5304 C   0  0  2  0  0  0  0  0  0  0  0  0
   34.0489   -3.5926  107.6309 N   0  0  0  0  0  0  0  0  0  0  0  0
   31.3518   -0.1957  109.9159 O   0  0  0  0  0  0  0  0  0  0  0  0
   31.2591   -0.6594  108.5607 C   0  0  2  0  0  0  0  0  0  0  0  0
   34.2382   -6.6764  109.2801 N   0  0  0  0  0  0  0  0  0  0  0  0
   29.0674    0.2209  108.8148 O   0  0  0  0  0  0  0  0  0  0  0  0
   30.1327   -0.0222  107.8698 C   0  0  2  0  0  0  0  0  0  0  0  0
   33.7736   -4.2676  108.7639 C   0  0  0  0  0  0  0  0  0  0  0  0
   31.9065   -4.2484  110.4459 N   0  0  0  0  0  0  0  0  0  0  0  0
   29.7894   -1.5202  104.5800 O   0  0  0  0  0  0  0  0  0  0  0  0
   30.3774   -0.7404  105.5759 C   0  0  0  0  0  0  0  0  0  0  0  0
   27.3510   -1.8333  105.3597 O   0  0  0  0  0  0  0  0  0  0  0  0
   33.0332   -2.7210  107.4251 C   0  0  0  0  0  0  0  0  0  0  0  0
   35.6621   -5.0325  109.9570 O   0  0  0  0  0  0  0  0  0  0  0  0
   34.6262   -5.3373  109.3713 C   0  0  0  0  0  0  0  0  0  0  0  0
   32.5654   -3.8058  109.2658 C   0  0  0  0  0  0  0  0  0  0  0  0
   27.9478   -1.8399  102.9000 O   0  5  0  0  0  0  0  0  0  0  0  0
   28.0327    0.1888  103.9922 O   0  0  0  0  0  0  0  0  0  0  0  0
  1 17  1  0  0  0  0
  1 20  1  0  0  0  0
  2 15  1  6  0  0  0
  2  3  1  0  0  0  0
  2 11  1  0  0  0  0
  3  5  1  0  0  0  0
  4 16  1  1  0  0  0
  4 21  1  0  0  0  0
  4 22  2  0  0  0  0
  4 14  1  0  0  0  0
  5  1  1  6  0  0  0
  5  8  1  0  0  0  0
  6 17  2  0  0  0  0
  6 12  1  0  0  0  0
  8  7  1  1  0  0  0
  8 11  1  0  0  0  0
  9 19  1  0  0  0  0
 11 10  1  1  0  0  0
 12 20  2  0  0  0  0
 12 19  1  0  0  0  0
 13 20  1  0  0  0  0
 14 15  1  0  0  0  0
 18 19  2  0  0  0  0
M  CHG  1  21  -1
M  END
>  <CHROM.1>
60.63170126,73.48485275,-74.27911520,63.97079748,-105.70349224,30.93754076
-2.22717784,107.25754906,0.23479552,-0.79126180,0.97874956

>  <Name>
ligand

>  <RI>
0

>  <Rbt.Current_Directory>
/home/itssahil/PROJECTS/Mol_Feturizer/New_Systems/rnas/4XW7

>  <Rbt.Executable>
rbdock ($Id: //depot/dev/client3/rdock/2013.1/src/exe/rbdock.cxx#4 $)

>  <Rbt.Library>
libRbt.so (2013.1, Build901 2013/11/27)

>  <Rbt.Parameter_File>
/export/apps/rDock/src/rDock_2013.1_src/data/scripts/dock_solv.prm

>  <Rbt.Receptor>
prm/pocket_docking_7.prm

>  <SCORE>
-8.12838

>  <SCORE.INTER>
-8.49284

>  <SCORE.INTER.CONST>
1

>  <SCORE.INTER.POLAR>
0

>  <SCORE.INTER.ROT>
5

>  <SCORE.INTER.SOLV>
15.3106

>  <SCORE.INTER.VDW>
-17.6987

>  <SCORE.INTER.norm>
-0.386038

>  <SCORE.INTRA>
0.364454

>  <SCORE.INTRA.DIHEDRAL>
0.12081

>  <SCORE.INTRA.DIHEDRAL.0>
2.61549

>  <SCORE.INTRA.POLAR>
0

>  <SCORE.INTRA.POLAR.0>
0

>  <SCORE.INTRA.REPUL>
0

>  <SCORE.INTRA.REPUL.0>
0

>  <SCORE.INTRA.SOLV>
0.65771

>  <SCORE.INTRA.SOLV.lig_0>
-73.766

>  <SCORE.INTRA.VDW>
-0.0248054

>  <SCORE.INTRA.VDW.0>
-1.95055

>  <SCORE.INTRA.norm>
0.0165661

>  <SCORE.RESTR>
0

>  <SCORE.RESTR.CAVITY>
0

>  <SCORE.RESTR.norm>
0

>  <SCORE.SYSTEM>
0

>  <SCORE.SYSTEM.CONST>
0

>  <SCORE.SYSTEM.DIHEDRAL>
0

>  <SCORE.SYSTEM.SOLV>
0

>  <SCORE.SYSTEM.norm>
0

>  <SCORE.heavy>
22

>  <SCORE.norm>
-0.369472

>  <RMSD>
5.977

$$$$
ligand
 OpenBabel11021811513D
libRbt.so/2013.1/901 2013/11/27
 22 23  0  0  0  0  0  0  0  0999 V2000
   32.8411   -2.2723  107.4303 N   0  0  0  0  0  0  0  0  0  0  0  0
   32.9772   -5.1489  109.2788 C   0  0  1  0  0  0  0  0  0  0  0  0
   33.2873   -4.5077  107.9927 O   0  0  0  0  0  0  0  0  0  0  0  0
   29.7895   -7.1148  108.5255 P   0  0  2  0  0  0  0  0  0  0  0  0
   33.5883   -3.1076  108.2673 C   0  0  2  0  0  0  0  0  0  0  0  0
   32.3189   -0.6866  106.0074 N   0  0  0  0  0  0  0  0  0  0  0  0
   34.1470   -1.9359  110.2752 O   0  0  0  0  0  0  0  0  0  0  0  0
   33.2329   -2.8687  109.6799 C   0  0  2  0  0  0  0  0  0  0  0  0
   29.1265   -1.9728  105.0451 N   0  0  0  0  0  0  0  0  0  0  0  0
   34.7020   -4.4005  110.7469 O   0  0  0  0  0  0  0  0  0  0  0  0
   33.3377   -4.1821  110.3251 C   0  0  2  0  0  0  0  0  0  0  0  0
   31.1848   -1.3392  106.3283 C   0  0  0  0  0  0  0  0  0  0  0  0
   30.5975   -3.2709  107.8248 N   0  0  0  0  0  0  0  0  0  0  0  0
   31.2432   -6.5394  108.5260 O   0  0  0  0  0  0  0  0  0  0  0  0
   31.5270   -5.4525  109.3528 C   0  0  0  0  0  0  0  0  0  0  0  0
   29.7235   -8.4158  107.6195 O   0  0  0  0  0  0  0  0  0  0  0  0
   33.3283   -1.2731  106.6937 C   0  0  0  0  0  0  0  0  0  0  0  0
   29.3140    0.0708  106.0335 O   0  0  0  0  0  0  0  0  0  0  0  0
   29.8189   -1.0251  105.8031 C   0  0  0  0  0  0  0  0  0  0  0  0
   31.4992   -2.3455  107.2302 C   0  0  0  0  0  0  0  0  0  0  0  0
   28.8100   -6.1000  108.0760 O   0  5  0  0  0  0  0  0  0  0  0  0
   29.3208   -7.4034  109.9079 O   0  0  0  0  0  0  0  0  0  0  0  0
  1 17  1  0  0  0  0
  1 20  1  0  0  0  0
  2 15  1  6  0  0  0
  2  3  1  0  0  0  0
  2 11  1  0  0  0  0
  3  5  1  0  0  0  0
  4 16  1  6  0  0  0
  4 21  1  0  0  0  0
  4 22  2  0  0  0  0
  4 14  1  0  0  0  0
  5  1  1  6  0  0  0
  5  8  1  0  0  0  0
  6 17  2  0  0  0  0
  6 12  1  0  0  0  0
  8  7  1  1  0  0  0
  8 11  1  0  0  0  0
  9 19  1  0  0  0  0
 11 10  1  6  0  0  0
 12 20  2  0  0  0  0
 12 19  1  0  0  0  0
 13 20  1  0  0  0  0
 14 15  1  0  0  0  0
 18 19  2  0  0  0  0
M  CHG  1  21  -1
M  END
>  <CHROM.1>
-129.74508400,73.83820296,-175.01143753,175.31940807,117.50380722,31.49819628
-3.98180160,108.11917991,-1.31672925,0.55264079,2.66517367

>  <Name>
ligand

>  <RI>
0

>  <Rbt.Current_Directory>
/home/itssahil/PROJECTS/Mol_Feturizer/New_Systems/rnas/4XW7

>  <Rbt.Executable>
rbdock ($Id: //depot/dev/client3/rdock/2013.1/src/exe/rbdock.cxx#4 $)

>  <Rbt.Library>
libRbt.so (2013.1, Build901 2013/11/27)

>  <Rbt.Parameter_File>
/export/apps/rDock/src/rDock_2013.1_src/data/scripts/dock_solv.prm

>  <Rbt.Receptor>
prm/pocket_docking_6.prm

>  <SCORE>
-7.33537

>  <SCORE.INTER>
-10.2126

>  <SCORE.INTER.CONST>
1

>  <SCORE.INTER.POLAR>
0

>  <SCORE.INTER.ROT>
5

>  <SCORE.INTER.SOLV>
13.2913

>  <SCORE.INTER.VDW>
-18.1721

>  <SCORE.INTER.norm>
-0.464207

>  <SCORE.INTRA>
2.87719

>  <SCORE.INTRA.DIHEDRAL>
-0.310997

>  <SCORE.INTRA.DIHEDRAL.0>
2.61549

>  <SCORE.INTRA.POLAR>
0

>  <SCORE.INTRA.POLAR.0>
0

>  <SCORE.INTRA.REPUL>
0

>  <SCORE.INTRA.REPUL.0>
0

>  <SCORE.INTRA.SOLV>
7.02453

>  <SCORE.INTRA.SOLV.lig_0>
-73.766

>  <SCORE.INTRA.VDW>
-0.479574

>  <SCORE.INTRA.VDW.0>
-1.95055

>  <SCORE.INTRA.norm>
0.130781

>  <SCORE.RESTR>
0

>  <SCORE.RESTR.CAVITY>
0

>  <SCORE.RESTR.norm>
0

>  <SCORE.SYSTEM>
0

>  <SCORE.SYSTEM.CONST>
0

>  <SCORE.SYSTEM.DIHEDRAL>
0

>  <SCORE.SYSTEM.SOLV>
0

>  <SCORE.SYSTEM.norm>
0

>  <SCORE.heavy>
22

>  <SCORE.norm>
-0.333426

>  <RMSD>
5.985

$$$$
ligand
 OpenBabel11021811513D
libRbt.so/2013.1/901 2013/11/27
 22 23  0  0  0  0  0  0  0  0999 V2000
   33.9936   -4.8050  109.5613 N   0  0  0  0  0  0  0  0  0  0  0  0
   30.7286   -4.1316  108.7894 C   0  0  1  0  0  0  0  0  0  0  0  0
   31.7185   -4.3090  109.8616 O   0  0  0  0  0  0  0  0  0  0  0  0
   29.4037   -7.7123  108.9482 P   0  0  2  0  0  0  0  0  0  0  0  0
   33.0014   -3.8421  109.3494 C   0  0  2  0  0  0  0  0  0  0  0  0
   35.2143   -6.6139  109.3383 N   0  0  0  0  0  0  0  0  0  0  0  0
   33.5974   -2.4773  107.4788 O   0  0  0  0  0  0  0  0  0  0  0  0
   32.8176   -3.6048  107.9041 C   0  0  2  0  0  0  0  0  0  0  0  0
   38.0210   -5.4498  111.2533 N   0  0  0  0  0  0  0  0  0  0  0  0
   31.1338   -1.9301  107.9648 O   0  0  0  0  0  0  0  0  0  0  0  0
   31.3845   -3.3354  107.7428 C   0  0  2  0  0  0  0  0  0  0  0  0
   35.7214   -5.9008  110.3627 C   0  0  0  0  0  0  0  0  0  0  0  0
   35.1475   -3.7251  111.4819 N   0  0  0  0  0  0  0  0  0  0  0  0
   29.8256   -6.2427  109.2743 O   0  0  0  0  0  0  0  0  0  0  0  0
   30.3359   -5.4538  108.2433 C   0  0  0  0  0  0  0  0  0  0  0  0
   30.6150   -8.4856  108.2754 O   0  0  0  0  0  0  0  0  0  0  0  0
   34.1520   -5.9260  108.8564 C   0  0  0  0  0  0  0  0  0  0  0  0
   36.8932   -7.3474  111.8150 O   0  0  0  0  0  0  0  0  0  0  0  0
   36.9046   -6.2877  111.1938 C   0  0  0  0  0  0  0  0  0  0  0  0
   34.9578   -4.7529  110.5172 C   0  0  0  0  0  0  0  0  0  0  0  0
   28.2015   -7.7475  108.0853 O   0  5  0  0  0  0  0  0  0  0  0  0
   28.9287   -8.4225  110.1665 O   0  0  0  0  0  0  0  0  0  0  0  0
  1 17  1  0  0  0  0
  1 20  1  0  0  0  0
  2 15  1  6  0  0  0
  2  3  1  0  0  0  0
  2 11  1  0  0  0  0
  3  5  1  0  0  0  0
  4 16  1  6  0  0  0
  4 21  1  0  0  0  0
  4 22  2  0  0  0  0
  4 14  1  0  0  0  0
  5  1  1  6  0  0  0
  5  8  1  0  0  0  0
  6 17  2  0  0  0  0
  6 12  1  0  0  0  0
  8  7  1  1  0  0  0
  8 11  1  0  0  0  0
  9 19  1  0  0  0  0
 11 10  1  1  0  0  0
 12 20  2  0  0  0  0
 12 19  1  0  0  0  0
 13 20  1  0  0  0  0
 14 15  1  0  0  0  0
 18 19  2  0  0  0  0
M  CHG  1  21  -1
M  END
>  <CHROM.1>
76.07512303,57.87087485,54.57159224,-177.25642346,120.68779395,32.54785325
-5.54173955,109.33980867,0.11214105,-0.33527399,-0.33215842

>  <Name>
ligand

>  <RI>
0

>  <Rbt.Current_Directory>
/home/itssahil/PROJECTS/Mol_Feturizer/New_Systems/rnas/4XW7

>  <Rbt.Executable>
rbdock ($Id: //depot/dev/client3/rdock/2013.1/src/exe/rbdock.cxx#4 $)

>  <Rbt.Library>
libRbt.so (2013.1, Build901 2013/11/27)

>  <Rbt.Parameter_File>
/export/apps/rDock/src/rDock_2013.1_src/data/scripts/dock_solv.prm

>  <Rbt.Receptor>
prm/pocket_docking_8.prm

>  <SCORE>
-8.80624

>  <SCORE.INTER>
-7.75088

>  <SCORE.INTER.CONST>
1

>  <SCORE.INTER.POLAR>
0

>  <SCORE.INTER.ROT>
5

>  <SCORE.INTER.SOLV>
11.2485

>  <SCORE.INTER.VDW>
-15.8501

>  <SCORE.INTER.norm>
-0.352313

>  <SCORE.INTRA>
-1.05537

>  <SCORE.INTRA.DIHEDRAL>
-1.03295

>  <SCORE.INTRA.DIHEDRAL.0>
2.61549

>  <SCORE.INTRA.POLAR>
0

>  <SCORE.INTRA.POLAR.0>
0

>  <SCORE.INTRA.REPUL>
0

>  <SCORE.INTRA.REPUL.0>
0

>  <SCORE.INTRA.SOLV>
-0.891335

>  <SCORE.INTRA.SOLV.lig_0>
-73.766

>  <SCORE.INTRA.VDW>
-0.0932221

>  <SCORE.INTRA.VDW.0>
-1.95055

>  <SCORE.INTRA.norm>
-0.0479712

>  <SCORE.RESTR>
0

>  <SCORE.RESTR.CAVITY>
0

>  <SCORE.RESTR.norm>
0

>  <SCORE.SYSTEM>
0

>  <SCORE.SYSTEM.CONST>
0

>  <SCORE.SYSTEM.DIHEDRAL>
0

>  <SCORE.SYSTEM.SOLV>
0

>  <SCORE.SYSTEM.norm>
0

>  <SCORE.heavy>
22

>  <SCORE.norm>
-0.400284

>  <RMSD>
6.010

$$$$
ligand
 OpenBabel11021811513D
libRbt.so/2013.1/901 2013/11/27
 22 23  0  0  0  0  0  0  0  0999 V2000
   29.7830   -3.7665  108.1255 N   0  0  0  0  0  0  0  0  0  0  0  0
   30.8016   -0.6839  107.0439 C   0  0  1  0  0  0  0  0  0  0  0  0
   30.0386   -1.4338  108.0523 O   0  0  0  0  0  0  0  0  0  0  0  0
   28.6366   -2.0314  104.1983 P   0  0  2  0  0  0  0  0  0  0  0  0
   30.7036   -2.7189  108.2324 C   0  0  2  0  0  0  0  0  0  0  0  0
   28.9399   -5.7673  107.8129 N   0  0  0  0  0  0  0  0  0  0  0  0
   32.8847   -3.5080  107.6517 O   0  0  0  0  0  0  0  0  0  0  0  0
   31.7214   -2.8202  107.1681 C   0  0  2  0  0  0  0  0  0  0  0  0
   26.0845   -6.6286  107.9114 N   0  0  0  0  0  0  0  0  0  0  0  0
   33.0784   -0.9459  107.7056 O   0  0  0  0  0  0  0  0  0  0  0  0
   32.0461   -1.4325  106.8199 C   0  0  2  0  0  0  0  0  0  0  0  0
   27.9233   -4.9370  108.1163 C   0  0  0  0  0  0  0  0  0  0  0  0
   27.7140   -2.4909  108.6536 N   0  0  0  0  0  0  0  0  0  0  0  0
   29.5504   -1.8776  105.4575 O   0  0  0  0  0  0  0  0  0  0  0  0
   30.0268   -0.6072  105.7812 C   0  0  0  0  0  0  0  0  0  0  0  0
   29.4549   -1.6660  102.8888 O   0  0  0  0  0  0  0  0  0  0  0  0
   30.0768   -5.0316  107.8229 C   0  0  0  0  0  0  0  0  0  0  0  0
   25.6472   -4.4878  108.5551 O   0  0  0  0  0  0  0  0  0  0  0  0
   26.4807   -5.3236  108.2151 C   0  0  0  0  0  0  0  0  0  0  0  0
   28.4413   -3.6655  108.3155 C   0  0  0  0  0  0  0  0  0  0  0  0
   27.4163   -1.2017  104.3153 O   0  5  0  0  0  0  0  0  0  0  0  0
   28.0679   -3.4034  104.1061 O   0  0  0  0  0  0  0  0  0  0  0  0
  1 17  1  0  0  0  0
  1 20  1  0  0  0  0
  2 15  1  6  0  0  0
  2  3  1  0  0  0  0
  2 11  1  0  0  0  0
  3  5  1  0  0  0  0
  4 16  1  6  0  0  0
  4 21  1  0  0  0  0
  4 22  2  0  0  0  0
  4 14  1  0  0  0  0
  5  1  1  6  0  0  0
  5  8  1  0  0  0  0
  6 17  2  0  0  0  0
  6 12  1  0  0  0  0
  8  7  1  1  0  0  0
  8 11  1  0  0  0  0
  9 19  1  0  0  0  0
 11 10  1  1  0  0  0
 12 20  2  0  0  0  0
 12 19  1  0  0  0  0
 13 20  1  0  0  0  0
 14 15  1  0  0  0  0
 18 19  2  0  0  0  0
M  CHG  1  21  -1
M  END
>  <CHROM.1>
157.72618856,-48.02887201,64.46177951,176.81558337,-3.52663593,29.31713640
-2.90588848,106.73588535,-2.46219938,-0.44635992,-0.97910483

>  <Name>
ligand

>  <RI>
0

>  <Rbt.Current_Directory>
/home/itssahil/PROJECTS/Mol_Feturizer/New_Systems/rnas/4XW7

>  <Rbt.Executable>
rbdock ($Id: //depot/dev/client3/rdock/2013.1/src/exe/rbdock.cxx#4 $)

>  <Rbt.Library>
libRbt.so (2013.1, Build901 2013/11/27)

>  <Rbt.Parameter_File>
/export/apps/rDock/src/rDock_2013.1_src/data/scripts/dock_solv.prm

>  <Rbt.Receptor>
prm/pocket_docking_3.prm

>  <SCORE>
-4.99717

>  <SCORE.INTER>
-5.6237

>  <SCORE.INTER.CONST>
1

>  <SCORE.INTER.POLAR>
0

>  <SCORE.INTER.ROT>
5

>  <SCORE.INTER.SOLV>
9.45521

>  <SCORE.INTER.VDW>
-13.8342

>  <SCORE.INTER.norm>
-0.255623

>  <SCORE.INTRA>
0.626532

>  <SCORE.INTRA.DIHEDRAL>
-0.537665

>  <SCORE.INTRA.DIHEDRAL.0>
2.61549

>  <SCORE.INTRA.POLAR>
0

>  <SCORE.INTRA.POLAR.0>
0

>  <SCORE.INTRA.REPUL>
0

>  <SCORE.INTRA.REPUL.0>
0

>  <SCORE.INTRA.SOLV>
2.37766

>  <SCORE.INTRA.SOLV.lig_0>
-73.766

>  <SCORE.INTRA.VDW>
-0.293465

>  <SCORE.INTRA.VDW.0>
-1.95055

>  <SCORE.INTRA.norm>
0.0284787

>  <SCORE.RESTR>
0

>  <SCORE.RESTR.CAVITY>
0

>  <SCORE.RESTR.norm>
0

>  <SCORE.SYSTEM>
0

>  <SCORE.SYSTEM.CONST>
0

>  <SCORE.SYSTEM.DIHEDRAL>
0

>  <SCORE.SYSTEM.SOLV>
0

>  <SCORE.SYSTEM.norm>
0

>  <SCORE.heavy>
22

>  <SCORE.norm>
-0.227144

>  <RMSD>
6.157

$$$$
ligand
 OpenBabel11021811513D
libRbt.so/2013.1/901 2013/11/27
 22 23  0  0  0  0  0  0  0  0999 V2000
   29.8430   -3.7692  108.2007 N   0  0  0  0  0  0  0  0  0  0  0  0
   30.9004   -0.6985  107.1225 C   0  0  1  0  0  0  0  0  0  0  0  0
   30.1448   -1.4417  108.1414 O   0  0  0  0  0  0  0  0  0  0  0  0
   28.6657   -1.9813  104.3006 P   0  0  2  0  0  0  0  0  0  0  0  0
   30.7872   -2.7415  108.2957 C   0  0  2  0  0  0  0  0  0  0  0  0
   28.9480   -5.7431  107.8621 N   0  0  0  0  0  0  0  0  0  0  0  0
   32.9381   -3.5696  107.6596 O   0  0  0  0  0  0  0  0  0  0  0  0
   31.7787   -2.8541  107.2080 C   0  0  2  0  0  0  0  0  0  0  0  0
   26.1047   -6.5877  108.1822 N   0  0  0  0  0  0  0  0  0  0  0  0
   33.1855   -1.0126  107.7307 O   0  0  0  0  0  0  0  0  0  0  0  0
   32.1239   -1.4702  106.8643 C   0  0  2  0  0  0  0  0  0  0  0  0
   27.9643   -4.9078  108.2488 C   0  0  0  0  0  0  0  0  0  0  0  0
   27.8286   -2.4800  108.8837 N   0  0  0  0  0  0  0  0  0  0  0  0
   29.5975   -1.8541  105.5496 O   0  0  0  0  0  0  0  0  0  0  0  0
   30.0994   -0.5948  105.8782 C   0  0  0  0  0  0  0  0  0  0  0  0
   29.4830   -1.6527  102.9809 O   0  0  0  0  0  0  0  0  0  0  0  0
   30.0972   -5.0270  107.8377 C   0  0  0  0  0  0  0  0  0  0  0  0
   25.7072   -4.4142  108.7356 O   0  0  0  0  0  0  0  0  0  0  0  0
   26.5221   -5.2740  108.4105 C   0  0  0  0  0  0  0  0  0  0  0  0
   28.5154   -3.6532  108.4655 C   0  0  0  0  0  0  0  0  0  0  0  0
   27.4775   -1.1074  104.4254 O   0  5  0  0  0  0  0  0  0  0  0  0
   28.0469   -3.3323  104.2219 O   0  0  0  0  0  0  0  0  0  0  0  0
  1 17  1  0  0  0  0
  1 20  1  0  0  0  0
  2 15  1  6  0  0  0
  2  3  1  0  0  0  0
  2 11  1  0  0  0  0
  3  5  1  0  0  0  0
  4 16  1  6  0  0  0
  4 21  1  0  0  0  0
  4 22  2  0  0  0  0
  4 14  1  0  0  0  0
  5  1  1  6  0  0  0
  5  8  1  0  0  0  0
  6 17  2  0  0  0  0
  6 12  1  0  0  0  0
  8  7  1  1  0  0  0
  8 11  1  0  0  0  0
  9 19  1  0  0  0  0
 11 10  1  1  0  0  0
 12 20  2  0  0  0  0
 12 19  1  0  0  0  0
 13 20  1  0  0  0  0
 14 15  1  0  0  0  0
 18 19  2  0  0  0  0
M  CHG  1  21  -1
M  END
>  <CHROM.1>
155.35213631,-48.42874344,65.83208316,177.41584415,1.47419225,29.37212561
-2.89154474,106.83783944,-2.42770350,-0.41842744,-0.97840695

>  <Name>
ligand

>  <RI>
0

>  <Rbt.Current_Directory>
/home/itssahil/PROJECTS/Mol_Feturizer/New_Systems/rnas/4XW7

>  <Rbt.Executable>
rbdock ($Id: //depot/dev/client3/rdock/2013.1/src/exe/rbdock.cxx#4 $)

>  <Rbt.Library>
libRbt.so (2013.1, Build901 2013/11/27)

>  <Rbt.Parameter_File>
/export/apps/rDock/src/rDock_2013.1_src/data/scripts/dock_solv.prm

>  <Rbt.Receptor>
prm/pocket_docking_3.prm

>  <SCORE>
-4.85341

>  <SCORE.INTER>
-5.47488

>  <SCORE.INTER.CONST>
1

>  <SCORE.INTER.POLAR>
0

>  <SCORE.INTER.ROT>
5

>  <SCORE.INTER.SOLV>
9.44116

>  <SCORE.INTER.VDW>
-13.7303

>  <SCORE.INTER.norm>
-0.248858

>  <SCORE.INTRA>
0.621467

>  <SCORE.INTRA.DIHEDRAL>
-0.575334

>  <SCORE.INTRA.DIHEDRAL.0>
2.61549

>  <SCORE.INTRA.POLAR>
0

>  <SCORE.INTRA.POLAR.0>
0

>  <SCORE.INTRA.REPUL>
0

>  <SCORE.INTRA.REPUL.0>
0

>  <SCORE.INTRA.SOLV>
2.164

>  <SCORE.INTRA.SOLV.lig_0>
-73.766

>  <SCORE.INTRA.VDW>
-0.172868

>  <SCORE.INTRA.VDW.0>
-1.95055

>  <SCORE.INTRA.norm>
0.0282485

>  <SCORE.RESTR>
0

>  <SCORE.RESTR.CAVITY>
0

>  <SCORE.RESTR.norm>
0

>  <SCORE.SYSTEM>
0

>  <SCORE.SYSTEM.CONST>
0

>  <SCORE.SYSTEM.DIHEDRAL>
0

>  <SCORE.SYSTEM.SOLV>
0

>  <SCORE.SYSTEM.norm>
0

>  <SCORE.heavy>
22

>  <SCORE.norm>
-0.22061

>  <RMSD>
6.179

$$$$
ligand
 OpenBabel11021811513D
libRbt.so/2013.1/901 2013/11/27
 22 23  0  0  0  0  0  0  0  0999 V2000
   28.7693   -2.0952  104.1973 N   0  0  0  0  0  0  0  0  0  0  0  0
   28.2457   -4.2193  101.5660 C   0  0  1  0  0  0  0  0  0  0  0  0
   28.4798   -4.1014  103.0126 O   0  0  0  0  0  0  0  0  0  0  0  0
   31.8127   -5.0350  100.4628 P   0  0  2  0  0  0  0  0  0  0  0  0
   27.8623   -2.8556  103.4519 C   0  0  2  0  0  0  0  0  0  0  0  0
   30.3849   -0.7022  104.7087 N   0  0  0  0  0  0  0  0  0  0  0  0
   26.2408   -1.4117  102.4504 O   0  0  0  0  0  0  0  0  0  0  0  0
   27.4652   -2.1278  102.2306 C   0  0  2  0  0  0  0  0  0  0  0  0
   31.0332   -1.7711  108.0077 N   0  0  0  0  0  0  0  0  0  0  0  0
   25.9368   -3.6857  101.2922 O   0  0  0  0  0  0  0  0  0  0  0  0
   27.2829   -3.1673  101.2116 C   0  0  2  0  0  0  0  0  0  0  0  0
   29.8797   -1.1847  105.8606 C   0  0  0  0  0  0  0  0  0  0  0  0
   28.0566   -2.8024  106.4729 N   0  0  0  0  0  0  0  0  0  0  0  0
   30.3927   -5.0534  101.1164 O   0  0  0  0  0  0  0  0  0  0  0  0
   29.5168   -4.0057  100.8317 C   0  0  0  0  0  0  0  0  0  0  0  0
   32.7320   -3.9703  101.1973 O   0  0  0  0  0  0  0  0  0  0  0  0
   29.6907   -1.2723  103.6952 C   0  0  0  0  0  0  0  0  0  0  0  0
   30.1235    0.2923  107.6866 O   0  0  0  0  0  0  0  0  0  0  0  0
   30.3493   -0.8281  107.2363 C   0  0  0  0  0  0  0  0  0  0  0  0
   28.8565   -2.0698  105.5531 C   0  0  0  0  0  0  0  0  0  0  0  0
   31.7323   -4.7606   99.0104 O   0  5  0  0  0  0  0  0  0  0  0  0
   32.4374   -6.3853  100.4865 O   0  0  0  0  0  0  0  0  0  0  0  0
  1 17  1  0  0  0  0
  1 20  1  0  0  0  0
  2 15  1  6  0  0  0
  2  3  1  0  0  0  0
  2 11  1  0  0  0  0
  3  5  1  0  0  0  0
  4 16  1  1  0  0  0
  4 21  1  0  0  0  0
  4 22  2  0  0  0  0
  4 14  1  0  0  0  0
  5  1  1  6  0  0  0
  5  8  1  0  0  0  0
  6 17  2  0  0  0  0
  6 12  1  0  0  0  0
  8  7  1  1  0  0  0
  8 11  1  0  0  0  0
  9 19  1  0  0  0  0
 11 10  1  1  0  0  0
 12 20  2  0  0  0  0
 12 19  1  0  0  0  0
 13 20  1  0  0  0  0
 14 15  1  0  0  0  0
 18 19  2  0  0  0  0
M  CHG  1  21  -1
M  END
>  <CHROM.1>
83.73869585,66.65223961,75.44274296,-179.31968626,-109.82939464,29.57537164
-3.05626550,103.01428471,1.79010636,-0.20758356,1.05248418

>  <Name>
ligand

>  <RI>
0

>  <Rbt.Current_Directory>
/home/itssahil/PROJECTS/Mol_Feturizer/New_Systems/rnas/4XW7

>  <Rbt.Executable>
rbdock ($Id: //depot/dev/client3/rdock/2013.1/src/exe/rbdock.cxx#4 $)

>  <Rbt.Library>
libRbt.so (2013.1, Build901 2013/11/27)

>  <Rbt.Parameter_File>
/export/apps/rDock/src/rDock_2013.1_src/data/scripts/dock_solv.prm

>  <Rbt.Receptor>
prm/pocket_docking_8.prm

>  <SCORE>
-9.04913

>  <SCORE.INTER>
-8.66374

>  <SCORE.INTER.CONST>
1

>  <SCORE.INTER.POLAR>
0

>  <SCORE.INTER.ROT>
5

>  <SCORE.INTER.SOLV>
11.1159

>  <SCORE.INTER.VDW>
-16.4145

>  <SCORE.INTER.norm>
-0.393807

>  <SCORE.INTRA>
-0.385387

>  <SCORE.INTRA.DIHEDRAL>
-0.486241

>  <SCORE.INTRA.DIHEDRAL.0>
2.61549

>  <SCORE.INTRA.POLAR>
0

>  <SCORE.INTRA.POLAR.0>
0

>  <SCORE.INTRA.REPUL>
0

>  <SCORE.INTRA.REPUL.0>
0

>  <SCORE.INTRA.SOLV>
-0.758459

>  <SCORE.INTRA.SOLV.lig_0>
-73.766

>  <SCORE.INTRA.VDW>
0.236963

>  <SCORE.INTRA.VDW.0>
-1.95055

>  <SCORE.INTRA.norm>
-0.0175176

>  <SCORE.RESTR>
0

>  <SCORE.RESTR.CAVITY>
0

>  <SCORE.RESTR.norm>
0

>  <SCORE.SYSTEM>
0

>  <SCORE.SYSTEM.CONST>
0

>  <SCORE.SYSTEM.DIHEDRAL>
0

>  <SCORE.SYSTEM.SOLV>
0

>  <SCORE.SYSTEM.norm>
0

>  <SCORE.heavy>
22

>  <SCORE.norm>
-0.411324

>  <RMSD>
6.181

$$$$
ligand
 OpenBabel11021811513D
libRbt.so/2013.1/901 2013/11/27
 22 23  0  0  0  0  0  0  0  0999 V2000
   29.8240   -3.8422  108.1555 N   0  0  0  0  0  0  0  0  0  0  0  0
   30.9100   -0.7491  107.1739 C   0  0  1  0  0  0  0  0  0  0  0  0
   30.1336   -1.5149  108.1599 O   0  0  0  0  0  0  0  0  0  0  0  0
   28.6717   -1.9398  104.3152 P   0  0  2  0  0  0  0  0  0  0  0  0
   30.7692   -2.8203  108.2934 C   0  0  2  0  0  0  0  0  0  0  0  0
   28.9336   -5.8116  107.7810 N   0  0  0  0  0  0  0  0  0  0  0  0
   32.9291   -3.6396  107.6765 O   0  0  0  0  0  0  0  0  0  0  0  0
   31.7803   -2.9091  107.2216 C   0  0  2  0  0  0  0  0  0  0  0  0
   26.0654   -6.6227  107.9080 N   0  0  0  0  0  0  0  0  0  0  0  0
   33.1826   -1.0860  107.8159 O   0  0  0  0  0  0  0  0  0  0  0  0
   32.1359   -1.5183  106.9190 C   0  0  2  0  0  0  0  0  0  0  0  0
   27.9374   -4.9679  108.1138 C   0  0  0  0  0  0  0  0  0  0  0  0
   27.7866   -2.5362  108.7301 N   0  0  0  0  0  0  0  0  0  0  0  0
   29.6000   -1.8532  105.5702 O   0  0  0  0  0  0  0  0  0  0  0  0
   30.1324   -0.6118  105.9181 C   0  0  0  0  0  0  0  0  0  0  0  0
   29.4989   -1.5928  103.0062 O   0  0  0  0  0  0  0  0  0  0  0  0
   30.0874   -5.1034  107.8115 C   0  0  0  0  0  0  0  0  0  0  0  0
   25.6677   -4.4679  108.5304 O   0  0  0  0  0  0  0  0  0  0  0  0
   26.4863   -5.3237  108.2041 C   0  0  0  0  0  0  0  0  0  0  0  0
   28.4855   -3.7159  108.3523 C   0  0  0  0  0  0  0  0  0  0  0  0
   27.4949   -1.0529  104.4549 O   0  5  0  0  0  0  0  0  0  0  0  0
   28.0352   -3.2802  104.2038 O   0  0  0  0  0  0  0  0  0  0  0  0
  1 17  1  0  0  0  0
  1 20  1  0  0  0  0
  2 15  1  6  0  0  0
  2  3  1  0  0  0  0
  2 11  1  0  0  0  0
  3  5  1  0  0  0  0
  4 16  1  6  0  0  0
  4 21  1  0  0  0  0
  4 22  2  0  0  0  0
  4 14  1  0  0  0  0
  5  1  1  6  0  0  0
  5  8  1  0  0  0  0
  6 17  2  0  0  0  0
  6 12  1  0  0  0  0
  8  7  1  1  0  0  0
  8 11  1  0  0  0  0
  9 19  1  0  0  0  0
 11 10  1  1  0  0  0
 12 20  2  0  0  0  0
 12 19  1  0  0  0  0
 13 20  1  0  0  0  0
 14 15  1  0  0  0  0
 18 19  2  0  0  0  0
M  CHG  1  21  -1
M  END
>  <CHROM.1>
157.86513331,-46.69134845,64.95323809,176.71952558,-1.12190208,29.36380764
-2.92155372,106.80308642,-2.47843596,-0.42049268,-0.93884593

>  <Name>
ligand

>  <RI>
0

>  <Rbt.Current_Directory>
/home/itssahil/PROJECTS/Mol_Feturizer/New_Systems/rnas/4XW7

>  <Rbt.Executable>
rbdock ($Id: //depot/dev/client3/rdock/2013.1/src/exe/rbdock.cxx#4 $)

>  <Rbt.Library>
libRbt.so (2013.1, Build901 2013/11/27)

>  <Rbt.Parameter_File>
/export/apps/rDock/src/rDock_2013.1_src/data/scripts/dock_solv.prm

>  <Rbt.Receptor>
prm/pocket_docking_3.prm

>  <SCORE>
-4.97362

>  <SCORE.INTER>
-5.64433

>  <SCORE.INTER.CONST>
1

>  <SCORE.INTER.POLAR>
0

>  <SCORE.INTER.ROT>
5

>  <SCORE.INTER.SOLV>
9.31185

>  <SCORE.INTER.VDW>
-13.8002

>  <SCORE.INTER.norm>
-0.25656

>  <SCORE.INTRA>
0.67071

>  <SCORE.INTRA.DIHEDRAL>
-0.425895

>  <SCORE.INTRA.DIHEDRAL.0>
2.61549

>  <SCORE.INTRA.POLAR>
0

>  <SCORE.INTRA.POLAR.0>
0

>  <SCORE.INTRA.REPUL>
0

>  <SCORE.INTRA.REPUL.0>
0

>  <SCORE.INTRA.SOLV>
2.4445

>  <SCORE.INTRA.SOLV.lig_0>
-73.766

>  <SCORE.INTRA.VDW>
-0.338593

>  <SCORE.INTRA.VDW.0>
-1.95055

>  <SCORE.INTRA.norm>
0.0304868

>  <SCORE.RESTR>
0

>  <SCORE.RESTR.CAVITY>
0

>  <SCORE.RESTR.norm>
0

>  <SCORE.SYSTEM>
0

>  <SCORE.SYSTEM.CONST>
0

>  <SCORE.SYSTEM.DIHEDRAL>
0

>  <SCORE.SYSTEM.SOLV>
0

>  <SCORE.SYSTEM.norm>
0

>  <SCORE.heavy>
22

>  <SCORE.norm>
-0.226074

>  <RMSD>
6.191

$$$$
ligand
 OpenBabel11021811513D
libRbt.so/2013.1/901 2013/11/27
 22 23  0  0  0  0  0  0  0  0999 V2000
   29.6521   -3.6715  108.1347 N   0  0  0  0  0  0  0  0  0  0  0  0
   30.8219   -0.6634  106.9978 C   0  0  1  0  0  0  0  0  0  0  0  0
   30.0073   -1.3542  108.0080 O   0  0  0  0  0  0  0  0  0  0  0  0
   28.6687   -1.9967  104.1368 P   0  0  2  0  0  0  0  0  0  0  0  0
   30.6137   -2.6607  108.2350 C   0  0  2  0  0  0  0  0  0  0  0  0
   28.7152   -5.6159  107.7428 N   0  0  0  0  0  0  0  0  0  0  0  0
   32.7712   -3.5548  107.7221 O   0  0  0  0  0  0  0  0  0  0  0  0
   31.6481   -2.8321  107.1960 C   0  0  2  0  0  0  0  0  0  0  0  0
   25.8772   -6.4409  108.1494 N   0  0  0  0  0  0  0  0  0  0  0  0
   33.0715   -1.0024  107.7153 O   0  0  0  0  0  0  0  0  0  0  0  0
   32.0381   -1.4687  106.8199 C   0  0  2  0  0  0  0  0  0  0  0  0
   27.7622   -4.7895  108.2160 C   0  0  0  0  0  0  0  0  0  0  0  0
   27.6897   -2.3947  108.9744 N   0  0  0  0  0  0  0  0  0  0  0  0
   29.5656   -1.8481  105.4086 O   0  0  0  0  0  0  0  0  0  0  0  0
   30.0773   -0.5876  105.7170 C   0  0  0  0  0  0  0  0  0  0  0  0
   29.5162   -1.6673  102.8363 O   0  0  0  0  0  0  0  0  0  0  0  0
   29.8717   -4.9127  107.6991 C   0  0  0  0  0  0  0  0  0  0  0  0
   25.5385   -4.2963  108.8379 O   0  0  0  0  0  0  0  0  0  0  0  0
   26.3242   -5.1467  108.4277 C   0  0  0  0  0  0  0  0  0  0  0  0
   28.3400   -3.5535  108.4673 C   0  0  0  0  0  0  0  0  0  0  0  0
   27.4666   -1.1373  104.2236 O   0  5  0  0  0  0  0  0  0  0  0  0
   28.0694   -3.3561  104.0524 O   0  0  0  0  0  0  0  0  0  0  0  0
  1 17  1  0  0  0  0
  1 20  1  0  0  0  0
  2 15  1  6  0  0  0
  2  3  1  0  0  0  0
  2 11  1  0  0  0  0
  3  5  1  0  0  0  0
  4 16  1  6  0  0  0
  4 21  1  0  0  0  0
  4 22  2  0  0  0  0
  4 14  1  0  0  0  0
  5  1  1  6  0  0  0
  5  8  1  0  0  0  0
  6 17  2  0  0  0  0
  6 12  1  0  0  0  0
  8  7  1  1  0  0  0
  8 11  1  0  0  0  0
  9 19  1  0  0  0  0
 11 10  1  1  0  0  0
 12 20  2  0  0  0  0
 12 19  1  0  0  0  0
 13 20  1  0  0  0  0
 14 15  1  0  0  0  0
 18 19  2  0  0  0  0
M  CHG  1  21  -1
M  END
>  <CHROM.1>
148.26295409,-48.60263714,63.84471423,176.52644281,1.16681125,29.26216532
-2.84278742,106.76383590,-2.42518898,-0.42698470,-1.05571750

>  <Name>
ligand

>  <RI>
0

>  <Rbt.Current_Directory>
/home/itssahil/PROJECTS/Mol_Feturizer/New_Systems/rnas/4XW7

>  <Rbt.Executable>
rbdock ($Id: //depot/dev/client3/rdock/2013.1/src/exe/rbdock.cxx#4 $)

>  <Rbt.Library>
libRbt.so (2013.1, Build901 2013/11/27)

>  <Rbt.Parameter_File>
/export/apps/rDock/src/rDock_2013.1_src/data/scripts/dock_solv.prm

>  <Rbt.Receptor>
prm/pocket_docking_3.prm

>  <SCORE>
-4.8811

>  <SCORE.INTER>
-5.33366

>  <SCORE.INTER.CONST>
1

>  <SCORE.INTER.POLAR>
0

>  <SCORE.INTER.ROT>
5

>  <SCORE.INTER.SOLV>
9.50084

>  <SCORE.INTER.VDW>
-13.6561

>  <SCORE.INTER.norm>
-0.242439

>  <SCORE.INTRA>
0.452552

>  <SCORE.INTRA.DIHEDRAL>
-0.594127

>  <SCORE.INTRA.DIHEDRAL.0>
2.61549

>  <SCORE.INTRA.POLAR>
0

>  <SCORE.INTRA.POLAR.0>
0

>  <SCORE.INTRA.REPUL>
0

>  <SCORE.INTRA.REPUL.0>
0

>  <SCORE.INTRA.SOLV>
1.58208

>  <SCORE.INTRA.SOLV.lig_0>
-73.766

>  <SCORE.INTRA.VDW>
-0.0414228

>  <SCORE.INTRA.VDW.0>
-1.95055

>  <SCORE.INTRA.norm>
0.0205705

>  <SCORE.RESTR>
0

>  <SCORE.RESTR.CAVITY>
0

>  <SCORE.RESTR.norm>
0

>  <SCORE.SYSTEM>
0

>  <SCORE.SYSTEM.CONST>
0

>  <SCORE.SYSTEM.DIHEDRAL>
0

>  <SCORE.SYSTEM.SOLV>
0

>  <SCORE.SYSTEM.norm>
0

>  <SCORE.heavy>
22

>  <SCORE.norm>
-0.221868

>  <RMSD>
6.200

$$$$
ligand
 OpenBabel11021811513D
libRbt.so/2013.1/901 2013/11/27
 22 23  0  0  0  0  0  0  0  0999 V2000
   29.6502   -3.7007  108.0766 N   0  0  0  0  0  0  0  0  0  0  0  0
   30.8114   -0.6813  106.9609 C   0  0  1  0  0  0  0  0  0  0  0  0
   29.9857   -1.3802  107.9566 O   0  0  0  0  0  0  0  0  0  0  0  0
   28.6484   -2.0123  104.1078 P   0  0  2  0  0  0  0  0  0  0  0  0
   30.6003   -2.6809  108.1939 C   0  0  2  0  0  0  0  0  0  0  0  0
   28.7426   -5.6598  107.6892 N   0  0  0  0  0  0  0  0  0  0  0  0
   32.7747   -3.5546  107.7187 O   0  0  0  0  0  0  0  0  0  0  0  0
   31.6544   -2.8423  107.1731 C   0  0  2  0  0  0  0  0  0  0  0  0
   25.3514   -4.5601  107.4870 N   0  0  0  0  0  0  0  0  0  0  0  0
   33.0511   -0.9995  107.7176 O   0  0  0  0  0  0  0  0  0  0  0  0
   32.0380   -1.4752  106.8042 C   0  0  2  0  0  0  0  0  0  0  0  0
   27.7658   -4.8306  108.1054 C   0  0  0  0  0  0  0  0  0  0  0  0
   27.6470   -2.4207  108.8083 N   0  0  0  0  0  0  0  0  0  0  0  0
   29.5623   -1.8688  105.3682 O   0  0  0  0  0  0  0  0  0  0  0  0
   30.0886   -0.6121  105.6673 C   0  0  0  0  0  0  0  0  0  0  0  0
   29.4671   -1.6377  102.8012 O   0  0  0  0  0  0  0  0  0  0  0  0
   29.8954   -4.9493  107.6772 C   0  0  0  0  0  0  0  0  0  0  0  0
   25.9958   -6.0433  109.0912 O   0  0  0  0  0  0  0  0  0  0  0  0
   26.3227   -5.1937  108.2663 C   0  0  0  0  0  0  0  0  0  0  0  0
   28.3249   -3.5853  108.3532 C   0  0  0  0  0  0  0  0  0  0  0  0
   27.4288   -1.1825  104.2309 O   0  5  0  0  0  0  0  0  0  0  0  0
   28.0786   -3.3831  104.0052 O   0  0  0  0  0  0  0  0  0  0  0  0
  1 17  1  0  0  0  0
  1 20  1  0  0  0  0
  2 15  1  6  0  0  0
  2  3  1  0  0  0  0
  2 11  1  0  0  0  0
  3  5  1  0  0  0  0
  4 16  1  6  0  0  0
  4 21  1  0  0  0  0
  4 22  2  0  0  0  0
  4 14  1  0  0  0  0
  5  1  1  6  0  0  0
  5  8  1  0  0  0  0
  6 17  2  0  0  0  0
  6 12  1  0  0  0  0
  8  7  1  1  0  0  0
  8 11  1  0  0  0  0
  9 19  1  0  0  0  0
 11 10  1  1  0  0  0
 12 20  2  0  0  0  0
 12 19  1  0  0  0  0
 13 20  1  0  0  0  0
 14 15  1  0  0  0  0
 18 19  2  0  0  0  0
M  CHG  1  21  -1
M  END
>  <CHROM.1>
150.08769970,-46.95540456,61.62610578,174.72084380,-116.98628783,29.25374811
-2.86647401,106.70364422,-2.43509602,-0.42488000,-1.02932533

>  <Name>
ligand

>  <RI>
0

>  <Rbt.Current_Directory>
/home/itssahil/PROJECTS/Mol_Feturizer/New_Systems/rnas/4XW7

>  <Rbt.Executable>
rbdock ($Id: //depot/dev/client3/rdock/2013.1/src/exe/rbdock.cxx#4 $)

>  <Rbt.Library>
libRbt.so (2013.1, Build901 2013/11/27)

>  <Rbt.Parameter_File>
/export/apps/rDock/src/rDock_2013.1_src/data/scripts/dock_solv.prm

>  <Rbt.Receptor>
prm/pocket_docking_3.prm

>  <SCORE>
-5.08315

>  <SCORE.INTER>
-5.44772

>  <SCORE.INTER.CONST>
1

>  <SCORE.INTER.POLAR>
0

>  <SCORE.INTER.ROT>
5

>  <SCORE.INTER.SOLV>
9.47373

>  <SCORE.INTER.VDW>
-13.7231

>  <SCORE.INTER.norm>
-0.247624

>  <SCORE.INTRA>
0.364571

>  <SCORE.INTRA.DIHEDRAL>
-0.391072

>  <SCORE.INTRA.DIHEDRAL.0>
2.61549

>  <SCORE.INTRA.POLAR>
0

>  <SCORE.INTRA.POLAR.0>
0

>  <SCORE.INTRA.REPUL>
0

>  <SCORE.INTRA.REPUL.0>
0

>  <SCORE.INTRA.SOLV>
1.72107

>  <SCORE.INTRA.SOLV.lig_0>
-73.766

>  <SCORE.INTRA.VDW>
-0.300426

>  <SCORE.INTRA.VDW.0>
-1.95055

>  <SCORE.INTRA.norm>
0.0165714

>  <SCORE.RESTR>
0

>  <SCORE.RESTR.CAVITY>
0

>  <SCORE.RESTR.norm>
0

>  <SCORE.SYSTEM>
0

>  <SCORE.SYSTEM.CONST>
0

>  <SCORE.SYSTEM.DIHEDRAL>
0

>  <SCORE.SYSTEM.SOLV>
0

>  <SCORE.SYSTEM.norm>
0

>  <SCORE.heavy>
22

>  <SCORE.norm>
-0.231052

>  <RMSD>
6.219

$$$$
ligand
 OpenBabel11021811513D
libRbt.so/2013.1/901 2013/11/27
 22 23  0  0  0  0  0  0  0  0999 V2000
   29.4635   -3.6292  108.0888 N   0  0  0  0  0  0  0  0  0  0  0  0
   30.8290   -0.7229  106.9060 C   0  0  1  0  0  0  0  0  0  0  0  0
   29.9482   -1.3390  107.9090 O   0  0  0  0  0  0  0  0  0  0  0  0
   28.6588   -2.0117  104.0387 P   0  0  2  0  0  0  0  0  0  0  0  0
   30.4755   -2.6689  108.1910 C   0  0  2  0  0  0  0  0  0  0  0  0
   28.4205   -5.5100  107.6570 N   0  0  0  0  0  0  0  0  0  0  0  0
   32.5951   -3.6923  107.7708 O   0  0  0  0  0  0  0  0  0  0  0  0
   31.5294   -2.9261  107.1900 C   0  0  2  0  0  0  0  0  0  0  0  0
   25.5959   -4.9940  109.7645 N   0  0  0  0  0  0  0  0  0  0  0  0
   33.0344   -1.1610  107.7026 O   0  0  0  0  0  0  0  0  0  0  0  0
   32.0041   -1.5973  106.7886 C   0  0  2  0  0  0  0  0  0  0  0  0
   27.5268   -4.6611  108.2007 C   0  0  0  0  0  0  0  0  0  0  0  0
   27.5978   -2.2994  109.0568 N   0  0  0  0  0  0  0  0  0  0  0  0
   29.5557   -1.8840  105.3129 O   0  0  0  0  0  0  0  0  0  0  0  0
   30.1280   -0.6450  105.6009 C   0  0  0  0  0  0  0  0  0  0  0  0
   29.5161   -1.6979  102.7409 O   0  0  0  0  0  0  0  0  0  0  0  0
   29.6068   -4.8598  107.5953 C   0  0  0  0  0  0  0  0  0  0  0  0
   25.3301   -5.1837  107.5102 O   0  0  0  0  0  0  0  0  0  0  0  0
   26.0824   -4.9600  108.4552 C   0  0  0  0  0  0  0  0  0  0  0  0
   28.1722   -3.4647  108.4781 C   0  0  0  0  0  0  0  0  0  0  0  0
   27.4747   -1.1275  104.1242 O   0  5  0  0  0  0  0  0  0  0  0  0
   28.0315   -3.3581  103.9506 O   0  0  0  0  0  0  0  0  0  0  0  0
  1 17  1  0  0  0  0
  1 20  1  0  0  0  0
  2 15  1  6  0  0  0
  2  3  1  0  0  0  0
  2 11  1  0  0  0  0
  3  5  1  0  0  0  0
  4 16  1  6  0  0  0
  4 21  1  0  0  0  0
  4 22  2  0  0  0  0
  4 14  1  0  0  0  0
  5  1  1  6  0  0  0
  5  8  1  0  0  0  0
  6 17  2  0  0  0  0
  6 12  1  0  0  0  0
  8  7  1  1  0  0  0
  8 11  1  0  0  0  0
  9 19  1  0  0  0  0
 11 10  1  1  0  0  0
 12 20  2  0  0  0  0
 12 19  1  0  0  0  0
 13 20  1  0  0  0  0
 14 15  1  0  0  0  0
 18 19  2  0  0  0  0
M  CHG  1  21  -1
M  END
>  <CHROM.1>
142.60860945,-48.49784912,61.80798062,174.93439180,115.44100547,29.15722782
-2.82915868,106.71984309,-2.42864024,-0.39608934,-1.13095462

>  <Name>
ligand

>  <RI>
0

>  <Rbt.Current_Directory>
/home/itssahil/PROJECTS/Mol_Feturizer/New_Systems/rnas/4XW7

>  <Rbt.Executable>
rbdock ($Id: //depot/dev/client3/rdock/2013.1/src/exe/rbdock.cxx#4 $)

>  <Rbt.Library>
libRbt.so (2013.1, Build901 2013/11/27)

>  <Rbt.Parameter_File>
/export/apps/rDock/src/rDock_2013.1_src/data/scripts/dock_solv.prm

>  <Rbt.Receptor>
prm/pocket_docking_3.prm

>  <SCORE>
-5.09629

>  <SCORE.INTER>
-5.27508

>  <SCORE.INTER.CONST>
1

>  <SCORE.INTER.POLAR>
0

>  <SCORE.INTER.ROT>
5

>  <SCORE.INTER.SOLV>
9.35598

>  <SCORE.INTER.VDW>
-13.5687

>  <SCORE.INTER.norm>
-0.239776

>  <SCORE.INTRA>
0.178785

>  <SCORE.INTRA.DIHEDRAL>
-0.51628

>  <SCORE.INTRA.DIHEDRAL.0>
2.61549

>  <SCORE.INTRA.POLAR>
0

>  <SCORE.INTRA.POLAR.0>
0

>  <SCORE.INTRA.REPUL>
0

>  <SCORE.INTRA.REPUL.0>
0

>  <SCORE.INTRA.SOLV>
1.07637

>  <SCORE.INTRA.SOLV.lig_0>
-73.766

>  <SCORE.INTRA.VDW>
-0.101259

>  <SCORE.INTRA.VDW.0>
-1.95055

>  <SCORE.INTRA.norm>
0.00812659

>  <SCORE.RESTR>
0

>  <SCORE.RESTR.CAVITY>
0

>  <SCORE.RESTR.norm>
0

>  <SCORE.SYSTEM>
0

>  <SCORE.SYSTEM.CONST>
0

>  <SCORE.SYSTEM.DIHEDRAL>
0

>  <SCORE.SYSTEM.SOLV>
0

>  <SCORE.SYSTEM.norm>
0

>  <SCORE.heavy>
22

>  <SCORE.norm>
-0.23165

>  <RMSD>
6.234

$$$$
ligand
 OpenBabel11021811513D
libRbt.so/2013.1/901 2013/11/27
 22 23  0  0  0  0  0  0  0  0999 V2000
   30.1990   -4.1370  108.0382 N   0  0  0  0  0  0  0  0  0  0  0  0
   30.9361   -0.8383  107.5041 C   0  0  1  0  0  0  0  0  0  0  0  0
   30.2641   -1.8143  108.3742 O   0  0  0  0  0  0  0  0  0  0  0  0
   28.7216   -1.8389  104.5569 P   0  0  2  0  0  0  0  0  0  0  0  0
   31.0351   -3.0505  108.3162 C   0  0  2  0  0  0  0  0  0  0  0  0
   28.6088   -5.3612  107.1527 N   0  0  0  0  0  0  0  0  0  0  0  0
   33.2557   -3.5400  107.5770 O   0  0  0  0  0  0  0  0  0  0  0  0
   32.0279   -2.8785  107.2375 C   0  0  2  0  0  0  0  0  0  0  0  0
   27.8760   -8.1914  107.7486 N   0  0  0  0  0  0  0  0  0  0  0  0
   33.2441   -1.0196  108.0794 O   0  0  0  0  0  0  0  0  0  0  0  0
   32.2301   -1.4290  107.1353 C   0  0  2  0  0  0  0  0  0  0  0  0
   29.2680   -6.1273  108.0435 C   0  0  0  0  0  0  0  0  0  0  0  0
   31.2096   -5.7860  109.6022 N   0  0  0  0  0  0  0  0  0  0  0  0
   29.6972   -1.8355  105.7784 O   0  0  0  0  0  0  0  0  0  0  0  0
   30.1231   -0.6076  106.2849 C   0  0  0  0  0  0  0  0  0  0  0  0
   27.5028   -0.8619  104.8360 O   0  0  0  0  0  0  0  0  0  0  0  0
   29.1941   -4.1401  107.1616 C   0  0  0  0  0  0  0  0  0  0  0  0
   29.6507   -8.1634  109.1762 O   0  0  0  0  0  0  0  0  0  0  0  0
   28.9574   -7.5560  108.3642 C   0  0  0  0  0  0  0  0  0  0  0  0
   30.2773   -5.3653  108.6139 C   0  0  0  0  0  0  0  0  0  0  0  0
   28.2499   -3.2079  104.2495 O   0  5  0  0  0  0  0  0  0  0  0  0
   29.4260   -1.4669  103.3000 O   0  0  0  0  0  0  0  0  0  0  0  0
  1 17  1  0  0  0  0
  1 20  1  0  0  0  0
  2 15  1  6  0  0  0
  2  3  1  0  0  0  0
  2 11  1  0  0  0  0
  3  5  1  0  0  0  0
  4 16  1  1  0  0  0
  4 21  1  0  0  0  0
  4 22  2  0  0  0  0
  4 14  1  0  0  0  0
  5  1  1  6  0  0  0
  5  8  1  0  0  0  0
  6 17  2  0  0  0  0
  6 12  1  0  0  0  0
  8  7  1  1  0  0  0
  8 11  1  0  0  0  0
  9 19  1  0  0  0  0
 11 10  1  1  0  0  0
 12 20  2  0  0  0  0
 12 19  1  0  0  0  0
 13 20  1  0  0  0  0
 14 15  1  0  0  0  0
 18 19  2  0  0  0  0
M  CHG  1  21  -1
M  END
>  <CHROM.1>
40.97959224,-45.69437136,-49.80921367,174.98906186,-2.13764781,30.02037304
-3.43334161,106.94726981,-1.60840763,-0.64495708,-0.53689650

>  <Name>
ligand

>  <RI>
0

>  <Rbt.Current_Directory>
/home/itssahil/PROJECTS/Mol_Feturizer/New_Systems/rnas/4XW7

>  <Rbt.Executable>
rbdock ($Id: //depot/dev/client3/rdock/2013.1/src/exe/rbdock.cxx#4 $)

>  <Rbt.Library>
libRbt.so (2013.1, Build901 2013/11/27)

>  <Rbt.Parameter_File>
/export/apps/rDock/src/rDock_2013.1_src/data/scripts/dock_solv.prm

>  <Rbt.Receptor>
prm/pocket_docking_5.prm

>  <SCORE>
-5.67645

>  <SCORE.INTER>
-5.27034

>  <SCORE.INTER.CONST>
1

>  <SCORE.INTER.POLAR>
0

>  <SCORE.INTER.ROT>
5

>  <SCORE.INTER.SOLV>
15.541

>  <SCORE.INTER.VDW>
-15.6272

>  <SCORE.INTER.norm>
-0.239561

>  <SCORE.INTRA>
-0.406113

>  <SCORE.INTRA.DIHEDRAL>
-0.136388

>  <SCORE.INTRA.DIHEDRAL.0>
2.61549

>  <SCORE.INTRA.POLAR>
0

>  <SCORE.INTRA.POLAR.0>
0

>  <SCORE.INTRA.REPUL>
0

>  <SCORE.INTRA.REPUL.0>
0

>  <SCORE.INTRA.SOLV>
0.961845

>  <SCORE.INTRA.SOLV.lig_0>
-73.766

>  <SCORE.INTRA.VDW>
-0.818842

>  <SCORE.INTRA.VDW.0>
-1.95055

>  <SCORE.INTRA.norm>
-0.0184597

>  <SCORE.RESTR>
0

>  <SCORE.RESTR.CAVITY>
0

>  <SCORE.RESTR.norm>
0

>  <SCORE.SYSTEM>
0

>  <SCORE.SYSTEM.CONST>
0

>  <SCORE.SYSTEM.DIHEDRAL>
0

>  <SCORE.SYSTEM.SOLV>
0

>  <SCORE.SYSTEM.norm>
0

>  <SCORE.heavy>
22

>  <SCORE.norm>
-0.258021

>  <RMSD>
6.248

$$$$
ligand
 OpenBabel11021811513D
libRbt.so/2013.1/901 2013/11/27
 22 23  0  0  0  0  0  0  0  0999 V2000
   30.1614   -4.1083  108.0151 N   0  0  0  0  0  0  0  0  0  0  0  0
   30.9228   -0.8157  107.4777 C   0  0  1  0  0  0  0  0  0  0  0  0
   30.2305   -1.7842  108.3403 O   0  0  0  0  0  0  0  0  0  0  0  0
   28.7682   -1.8258  104.4904 P   0  0  2  0  0  0  0  0  0  0  0  0
   30.9970   -3.0240  108.3029 C   0  0  2  0  0  0  0  0  0  0  0  0
   28.5673   -5.3232  107.1237 N   0  0  0  0  0  0  0  0  0  0  0  0
   33.2287   -3.5269  107.6073 O   0  0  0  0  0  0  0  0  0  0  0  0
   32.0103   -2.8619  107.2418 C   0  0  2  0  0  0  0  0  0  0  0  0
   29.8994   -8.5169  108.0780 N   0  0  0  0  0  0  0  0  0  0  0  0
   33.2190   -1.0039  108.0964 O   0  0  0  0  0  0  0  0  0  0  0  0
   32.2208   -1.4139  107.1359 C   0  0  2  0  0  0  0  0  0  0  0  0
   29.2353   -6.1009  107.9978 C   0  0  0  0  0  0  0  0  0  0  0  0
   31.1880   -5.7780  109.5464 N   0  0  0  0  0  0  0  0  0  0  0  0
   29.7320   -1.8178  105.7213 O   0  0  0  0  0  0  0  0  0  0  0  0
   30.1334   -0.5878  106.2426 C   0  0  0  0  0  0  0  0  0  0  0  0
   29.5354   -1.3118  103.2000 O   0  0  0  0  0  0  0  0  0  0  0  0
   29.1497   -4.1008  107.1464 C   0  0  0  0  0  0  0  0  0  0  0  0
   27.8241   -7.8451  108.7336 O   0  0  0  0  0  0  0  0  0  0  0  0
   28.9306   -7.5349  108.2995 C   0  0  0  0  0  0  0  0  0  0  0  0
   30.2471   -5.3448  108.5718 C   0  0  0  0  0  0  0  0  0  0  0  0
   27.5571   -1.0154  104.7507 O   0  5  0  0  0  0  0  0  0  0  0  0
   28.1903   -3.1782  104.2637 O   0  0  0  0  0  0  0  0  0  0  0  0
  1 17  1  0  0  0  0
  1 20  1  0  0  0  0
  2 15  1  6  0  0  0
  2  3  1  0  0  0  0
  2 11  1  0  0  0  0
  3  5  1  0  0  0  0
  4 16  1  6  0  0  0
  4 21  1  0  0  0  0
  4 22  2  0  0  0  0
  4 14  1  0  0  0  0
  5  1  1  6  0  0  0
  5  8  1  0  0  0  0
  6 17  2  0  0  0  0
  6 12  1  0  0  0  0
  8  7  1  1  0  0  0
  8 11  1  0  0  0  0
  9 19  1  0  0  0  0
 11 10  1  1  0  0  0
 12 20  2  0  0  0  0
 12 19  1  0  0  0  0
 13 20  1  0  0  0  0
 14 15  1  0  0  0  0
 18 19  2  0  0  0  0
M  CHG  1  21  -1
M  END
>  <CHROM.1>
39.04714374,-46.75639863,69.97970430,174.23071481,120.30844860,30.01281167
-3.41412225,106.90917269,-1.63302705,-0.64157222,-0.54460901

>  <Name>
ligand

>  <RI>
0

>  <Rbt.Current_Directory>
/home/itssahil/PROJECTS/Mol_Feturizer/New_Systems/rnas/4XW7

>  <Rbt.Executable>
rbdock ($Id: //depot/dev/client3/rdock/2013.1/src/exe/rbdock.cxx#4 $)

>  <Rbt.Library>
libRbt.so (2013.1, Build901 2013/11/27)

>  <Rbt.Parameter_File>
/export/apps/rDock/src/rDock_2013.1_src/data/scripts/dock_solv.prm

>  <Rbt.Receptor>
prm/pocket_docking_5.prm

>  <SCORE>
-7.98183

>  <SCORE.INTER>
-7.5133

>  <SCORE.INTER.CONST>
1

>  <SCORE.INTER.POLAR>
0

>  <SCORE.INTER.ROT>
5

>  <SCORE.INTER.SOLV>
12.0937

>  <SCORE.INTER.VDW>
-15.9734

>  <SCORE.INTER.norm>
-0.341513

>  <SCORE.INTRA>
-0.468534

>  <SCORE.INTRA.DIHEDRAL>
-0.204924

>  <SCORE.INTRA.DIHEDRAL.0>
2.61549

>  <SCORE.INTRA.POLAR>
0

>  <SCORE.INTRA.POLAR.0>
0

>  <SCORE.INTRA.REPUL>
0

>  <SCORE.INTRA.REPUL.0>
0

>  <SCORE.INTRA.SOLV>
1.22303

>  <SCORE.INTRA.SOLV.lig_0>
-73.766

>  <SCORE.INTRA.VDW>
-0.977587

>  <SCORE.INTRA.VDW.0>
-1.95055

>  <SCORE.INTRA.norm>
-0.021297

>  <SCORE.RESTR>
0

>  <SCORE.RESTR.CAVITY>
0

>  <SCORE.RESTR.norm>
0

>  <SCORE.SYSTEM>
0

>  <SCORE.SYSTEM.CONST>
0

>  <SCORE.SYSTEM.DIHEDRAL>
0

>  <SCORE.SYSTEM.SOLV>
0

>  <SCORE.SYSTEM.norm>
0

>  <SCORE.heavy>
22

>  <SCORE.norm>
-0.36281

>  <RMSD>
6.249

$$$$
ligand
 OpenBabel11021811513D
libRbt.so/2013.1/901 2013/11/27
 22 23  0  0  0  0  0  0  0  0999 V2000
   30.1845   -4.1447  108.1000 N   0  0  0  0  0  0  0  0  0  0  0  0
   30.9168   -0.8426  107.5806 C   0  0  1  0  0  0  0  0  0  0  0  0
   30.2505   -1.8239  108.4492 O   0  0  0  0  0  0  0  0  0  0  0  0
   28.7837   -1.8362  104.5711 P   0  0  2  0  0  0  0  0  0  0  0  0
   31.0217   -3.0594  108.3792 C   0  0  2  0  0  0  0  0  0  0  0  0
   28.6197   -5.3794  107.1843 N   0  0  0  0  0  0  0  0  0  0  0  0
   33.2380   -3.5434  107.6237 O   0  0  0  0  0  0  0  0  0  0  0  0
   32.0079   -2.8806  107.2955 C   0  0  2  0  0  0  0  0  0  0  0  0
   29.8595   -8.5320  108.4102 N   0  0  0  0  0  0  0  0  0  0  0  0
   33.2283   -1.0260  108.1408 O   0  0  0  0  0  0  0  0  0  0  0  0
   32.2088   -1.4304  107.2006 C   0  0  2  0  0  0  0  0  0  0  0  0
   29.2273   -6.1224  108.1297 C   0  0  0  0  0  0  0  0  0  0  0  0
   31.1005   -5.7511  109.7634 N   0  0  0  0  0  0  0  0  0  0  0  0
   29.7420   -1.8319  105.8063 O   0  0  0  0  0  0  0  0  0  0  0  0
   30.0962   -0.6051  106.3678 C   0  0  0  0  0  0  0  0  0  0  0  0
   29.5142   -1.1927  103.3180 O   0  0  0  0  0  0  0  0  0  0  0  0
   29.2204   -4.1657  107.1789 C   0  0  0  0  0  0  0  0  0  0  0  0
   27.7385   -7.8157  108.8305 O   0  0  0  0  0  0  0  0  0  0  0  0
   28.8831   -7.5353  108.4839 C   0  0  0  0  0  0  0  0  0  0  0  0
   30.2199   -5.3533  108.7198 C   0  0  0  0  0  0  0  0  0  0  0  0
   27.5168   -1.1320  104.8713 O   0  5  0  0  0  0  0  0  0  0  0  0
   28.3054   -3.2108  104.2614 O   0  0  0  0  0  0  0  0  0  0  0  0
  1 17  1  0  0  0  0
  1 20  1  0  0  0  0
  2 15  1  6  0  0  0
  2  3  1  0  0  0  0
  2 11  1  0  0  0  0
  3  5  1  0  0  0  0
  4 16  1  6  0  0  0
  4 21  1  0  0  0  0
  4 22  2  0  0  0  0
  4 14  1  0  0  0  0
  5  1  1  6  0  0  0
  5  8  1  0  0  0  0
  6 17  2  0  0  0  0
  6 12  1  0  0  0  0
  8  7  1  1  0  0  0
  8 11  1  0  0  0  0
  9 19  1  0  0  0  0
 11 10  1  1  0  0  0
 12 20  2  0  0  0  0
 12 19  1  0  0  0  0
 13 20  1  0  0  0  0
 14 15  1  0  0  0  0
 18 19  2  0  0  0  0
M  CHG  1  21  -1
M  END
>  <CHROM.1>
44.79808564,-49.59674935,67.39266181,175.59280202,122.68995325,30.01101484
-3.43113320,107.01014505,-1.64151725,-0.63664146,-0.56473790

>  <Name>
ligand

>  <RI>
0

>  <Rbt.Current_Directory>
/home/itssahil/PROJECTS/Mol_Feturizer/New_Systems/rnas/4XW7

>  <Rbt.Executable>
rbdock ($Id: //depot/dev/client3/rdock/2013.1/src/exe/rbdock.cxx#4 $)

>  <Rbt.Library>
libRbt.so (2013.1, Build901 2013/11/27)

>  <Rbt.Parameter_File>
/export/apps/rDock/src/rDock_2013.1_src/data/scripts/dock_solv.prm

>  <Rbt.Receptor>
prm/pocket_docking_7.prm

>  <SCORE>
-7.88945

>  <SCORE.INTER>
-7.17514

>  <SCORE.INTER.CONST>
1

>  <SCORE.INTER.POLAR>
0

>  <SCORE.INTER.ROT>
5

>  <SCORE.INTER.SOLV>
10.908

>  <SCORE.INTER.VDW>
-15.3528

>  <SCORE.INTER.norm>
-0.326143

>  <SCORE.INTRA>
-0.714318

>  <SCORE.INTRA.DIHEDRAL>
-0.561203

>  <SCORE.INTRA.DIHEDRAL.0>
2.61549

>  <SCORE.INTRA.POLAR>
0

>  <SCORE.INTRA.POLAR.0>
0

>  <SCORE.INTRA.REPUL>
0

>  <SCORE.INTRA.REPUL.0>
0

>  <SCORE.INTRA.SOLV>
1.01607

>  <SCORE.INTRA.SOLV.lig_0>
-73.766

>  <SCORE.INTRA.VDW>
-0.94175

>  <SCORE.INTRA.VDW.0>
-1.95055

>  <SCORE.INTRA.norm>
-0.032469

>  <SCORE.RESTR>
0

>  <SCORE.RESTR.CAVITY>
0

>  <SCORE.RESTR.norm>
0

>  <SCORE.SYSTEM>
0

>  <SCORE.SYSTEM.CONST>
0

>  <SCORE.SYSTEM.DIHEDRAL>
0

>  <SCORE.SYSTEM.SOLV>
0

>  <SCORE.SYSTEM.norm>
0

>  <SCORE.heavy>
22

>  <SCORE.norm>
-0.358612

>  <RMSD>
6.255

$$$$
ligand
 OpenBabel11021811513D
libRbt.so/2013.1/901 2013/11/27
 22 23  0  0  0  0  0  0  0  0999 V2000
   28.9742   -4.2955  107.2357 N   0  0  0  0  0  0  0  0  0  0  0  0
   28.9277   -1.3147  105.5557 C   0  0  1  0  0  0  0  0  0  0  0  0
   28.8459   -2.7786  105.4484 O   0  0  0  0  0  0  0  0  0  0  0  0
   32.3941   -1.4383  107.1599 P   0  0  2  0  0  0  0  0  0  0  0  0
   28.2135   -3.2684  106.6675 C   0  0  2  0  0  0  0  0  0  0  0  0
   30.6762   -5.4104  108.0555 N   0  0  0  0  0  0  0  0  0  0  0  0
   26.9279   -2.1889  108.3702 O   0  0  0  0  0  0  0  0  0  0  0  0
   28.1315   -2.1199  107.5912 C   0  0  2  0  0  0  0  0  0  0  0  0
   28.7800   -7.9166  109.7669 N   0  0  0  0  0  0  0  0  0  0  0  0
   26.7658   -0.6528  106.3161 O   0  0  0  0  0  0  0  0  0  0  0  0
   28.1221   -0.9359  106.7249 C   0  0  2  0  0  0  0  0  0  0  0  0
   29.5931   -6.2088  108.1216 C   0  0  0  0  0  0  0  0  0  0  0  0
   27.1715   -5.9908  107.4859 N   0  0  0  0  0  0  0  0  0  0  0  0
   30.8918   -1.6651  106.7914 O   0  0  0  0  0  0  0  0  0  0  0  0
   30.3380   -0.9035  105.7624 C   0  0  0  0  0  0  0  0  0  0  0  0
   33.0821   -0.5072  106.0747 O   0  0  0  0  0  0  0  0  0  0  0  0
   30.2784   -4.2373  107.5082 C   0  0  0  0  0  0  0  0  0  0  0  0
   30.2557   -8.4751  108.1241 O   0  0  0  0  0  0  0  0  0  0  0  0
   29.5706   -7.6061  108.6575 C   0  0  0  0  0  0  0  0  0  0  0  0
   28.5073   -5.5171  107.6044 C   0  0  0  0  0  0  0  0  0  0  0  0
   33.1145   -2.7245  107.2949 O   0  5  0  0  0  0  0  0  0  0  0  0
   32.5361   -0.8617  108.5243 O   0  0  0  0  0  0  0  0  0  0  0  0
  1 17  1  0  0  0  0
  1 20  1  0  0  0  0
  2 15  1  1  0  0  0
  2  3  1  0  0  0  0
  2 11  1  0  0  0  0
  3  5  1  0  0  0  0
  4 16  1  6  0  0  0
  4 21  1  0  0  0  0
  4 22  2  0  0  0  0
  4 14  1  0  0  0  0
  5  1  1  1  0  0  0
  5  8  1  0  0  0  0
  6 17  2  0  0  0  0
  6 12  1  0  0  0  0
  8  7  1  6  0  0  0
  8 11  1  0  0  0  0
  9 19  1  0  0  0  0
 11 10  1  6  0  0  0
 12 20  2  0  0  0  0
 12 19  1  0  0  0  0
 13 20  1  0  0  0  0
 14 15  1  0  0  0  0
 18 19  2  0  0  0  0
M  CHG  1  21  -1
M  END
>  <CHROM.1>
51.65784093,-49.30876221,-9.69851114,178.09571746,118.33414178,29.83408604
-3.30604709,107.28579748,1.89117323,0.08711625,2.83886892

>  <Name>
ligand

>  <RI>
0

>  <Rbt.Current_Directory>
/home/itssahil/PROJECTS/Mol_Feturizer/New_Systems/rnas/4XW7

>  <Rbt.Executable>
rbdock ($Id: //depot/dev/client3/rdock/2013.1/src/exe/rbdock.cxx#4 $)

>  <Rbt.Library>
libRbt.so (2013.1, Build901 2013/11/27)

>  <Rbt.Parameter_File>
/export/apps/rDock/src/rDock_2013.1_src/data/scripts/dock_solv.prm

>  <Rbt.Receptor>
prm/pocket_docking_5.prm

>  <SCORE>
-5.1844

>  <SCORE.INTER>
-5.75262

>  <SCORE.INTER.CONST>
1

>  <SCORE.INTER.POLAR>
0

>  <SCORE.INTER.ROT>
5

>  <SCORE.INTER.SOLV>
14.4957

>  <SCORE.INTER.VDW>
-15.6003

>  <SCORE.INTER.norm>
-0.261483

>  <SCORE.INTRA>
0.568226

>  <SCORE.INTRA.DIHEDRAL>
1.51296

>  <SCORE.INTRA.DIHEDRAL.0>
2.61549

>  <SCORE.INTRA.POLAR>
0

>  <SCORE.INTRA.POLAR.0>
0

>  <SCORE.INTRA.REPUL>
0

>  <SCORE.INTRA.REPUL.0>
0

>  <SCORE.INTRA.SOLV>
0.400012

>  <SCORE.INTRA.SOLV.lig_0>
-73.766

>  <SCORE.INTRA.VDW>
-0.388259

>  <SCORE.INTRA.VDW.0>
-1.95055

>  <SCORE.INTRA.norm>
0.0258285

>  <SCORE.RESTR>
0

>  <SCORE.RESTR.CAVITY>
0

>  <SCORE.RESTR.norm>
0

>  <SCORE.SYSTEM>
0

>  <SCORE.SYSTEM.CONST>
0

>  <SCORE.SYSTEM.DIHEDRAL>
0

>  <SCORE.SYSTEM.SOLV>
0

>  <SCORE.SYSTEM.norm>
0

>  <SCORE.heavy>
22

>  <SCORE.norm>
-0.235654

>  <RMSD>
6.261

$$$$
ligand
 OpenBabel11021811513D
libRbt.so/2013.1/901 2013/11/27
 22 23  0  0  0  0  0  0  0  0999 V2000
   29.7402   -4.0280  107.8349 N   0  0  0  0  0  0  0  0  0  0  0  0
   30.7451   -0.8269  107.1618 C   0  0  1  0  0  0  0  0  0  0  0  0
   29.9174   -1.6937  108.0132 O   0  0  0  0  0  0  0  0  0  0  0  0
   28.7188   -1.9049  104.1118 P   0  0  2  0  0  0  0  0  0  0  0  0
   30.6082   -2.9722  108.1323 C   0  0  2  0  0  0  0  0  0  0  0  0
   28.2013   -5.2352  106.8417 N   0  0  0  0  0  0  0  0  0  0  0  0
   32.8616   -3.6413  107.6945 O   0  0  0  0  0  0  0  0  0  0  0  0
   31.7254   -2.9398  107.1680 C   0  0  2  0  0  0  0  0  0  0  0  0
   27.7989   -7.5582  109.5952 N   0  0  0  0  0  0  0  0  0  0  0  0
   32.9568   -1.0932  108.0148 O   0  0  0  0  0  0  0  0  0  0  0  0
   32.0314   -1.5161  106.9893 C   0  0  2  0  0  0  0  0  0  0  0  0
   28.6718   -5.9475  107.8840 C   0  0  0  0  0  0  0  0  0  0  0  0
   30.3986   -5.5715  109.6708 N   0  0  0  0  0  0  0  0  0  0  0  0
   29.6115   -1.8760  105.3949 O   0  0  0  0  0  0  0  0  0  0  0  0
   30.0913   -0.6451  105.8426 C   0  0  0  0  0  0  0  0  0  0  0  0
   29.6008   -1.5834  102.8325 O   0  0  0  0  0  0  0  0  0  0  0  0
   28.8690   -4.0571  106.8256 C   0  0  0  0  0  0  0  0  0  0  0  0
   28.2138   -8.2241  107.4568 O   0  0  0  0  0  0  0  0  0  0  0  0
   28.2142   -7.3155  108.2834 C   0  0  0  0  0  0  0  0  0  0  0  0
   29.6462   -5.1953  108.5239 C   0  0  0  0  0  0  0  0  0  0  0  0
   27.5813   -0.9647  104.2271 O   0  5  0  0  0  0  0  0  0  0  0  0
   28.0235   -3.2123  103.9651 O   0  0  0  0  0  0  0  0  0  0  0  0
  1 17  1  0  0  0  0
  1 20  1  0  0  0  0
  2 15  1  6  0  0  0
  2  3  1  0  0  0  0
  2 11  1  0  0  0  0
  3  5  1  0  0  0  0
  4 16  1  6  0  0  0
  4 21  1  0  0  0  0
  4 22  2  0  0  0  0
  4 14  1  0  0  0  0
  5  1  1  6  0  0  0
  5  8  1  0  0  0  0
  6 17  2  0  0  0  0
  6 12  1  0  0  0  0
  8  7  1  1  0  0  0
  8 11  1  0  0  0  0
  9 19  1  0  0  0  0
 11 10  1  1  0  0  0
 12 20  2  0  0  0  0
 12 19  1  0  0  0  0
 13 20  1  0  0  0  0
 14 15  1  0  0  0  0
 18 19  2  0  0  0  0
M  CHG  1  21  -1
M  END
>  <CHROM.1>
43.01829434,-43.95143618,70.68770589,172.13363296,-126.93143946,29.69337087
-3.39126895,106.70913462,-1.76422113,-0.69687616,-0.70560197

>  <Name>
ligand

>  <RI>
0

>  <Rbt.Current_Directory>
/home/itssahil/PROJECTS/Mol_Feturizer/New_Systems/rnas/4XW7

>  <Rbt.Executable>
rbdock ($Id: //depot/dev/client3/rdock/2013.1/src/exe/rbdock.cxx#4 $)

>  <Rbt.Library>
libRbt.so (2013.1, Build901 2013/11/27)

>  <Rbt.Parameter_File>
/export/apps/rDock/src/rDock_2013.1_src/data/scripts/dock_solv.prm

>  <Rbt.Receptor>
prm/pocket_docking_4.prm

>  <SCORE>
-7.41794

>  <SCORE.INTER>
-7.2276

>  <SCORE.INTER.CONST>
1

>  <SCORE.INTER.POLAR>
0

>  <SCORE.INTER.ROT>
5

>  <SCORE.INTER.SOLV>
9.96192

>  <SCORE.INTER.VDW>
-15.0724

>  <SCORE.INTER.norm>
-0.328527

>  <SCORE.INTRA>
-0.190333

>  <SCORE.INTRA.DIHEDRAL>
0.277198

>  <SCORE.INTRA.DIHEDRAL.0>
2.61549

>  <SCORE.INTRA.POLAR>
0

>  <SCORE.INTRA.POLAR.0>
0

>  <SCORE.INTRA.REPUL>
0

>  <SCORE.INTRA.REPUL.0>
0

>  <SCORE.INTRA.SOLV>
1.21875

>  <SCORE.INTRA.SOLV.lig_0>
-73.766

>  <SCORE.INTRA.VDW>
-0.938306

>  <SCORE.INTRA.VDW.0>
-1.95055

>  <SCORE.INTRA.norm>
-0.00865152

>  <SCORE.RESTR>
0

>  <SCORE.RESTR.CAVITY>
0

>  <SCORE.RESTR.norm>
0

>  <SCORE.SYSTEM>
0

>  <SCORE.SYSTEM.CONST>
0

>  <SCORE.SYSTEM.DIHEDRAL>
0

>  <SCORE.SYSTEM.SOLV>
0

>  <SCORE.SYSTEM.norm>
0

>  <SCORE.heavy>
22

>  <SCORE.norm>
-0.337179

>  <RMSD>
6.262

$$$$
ligand
 OpenBabel11021811513D
libRbt.so/2013.1/901 2013/11/27
 22 23  0  0  0  0  0  0  0  0999 V2000
   30.1230   -4.1171  107.9929 N   0  0  0  0  0  0  0  0  0  0  0  0
   30.9134   -0.8292  107.4685 C   0  0  1  0  0  0  0  0  0  0  0  0
   30.2113   -1.7948  108.3264 O   0  0  0  0  0  0  0  0  0  0  0  0
   28.7613   -1.8124  104.4707 P   0  0  2  0  0  0  0  0  0  0  0  0
   30.9672   -3.0410  108.2859 C   0  0  2  0  0  0  0  0  0  0  0  0
   28.5222   -5.3161  107.0919 N   0  0  0  0  0  0  0  0  0  0  0  0
   33.1958   -3.5604  107.5926 O   0  0  0  0  0  0  0  0  0  0  0  0
   31.9838   -2.8838  107.2273 C   0  0  2  0  0  0  0  0  0  0  0  0
   27.7544   -8.1419  107.6664 N   0  0  0  0  0  0  0  0  0  0  0  0
   33.2067   -1.0392  108.0907 O   0  0  0  0  0  0  0  0  0  0  0  0
   32.2068   -1.4372  107.1269 C   0  0  2  0  0  0  0  0  0  0  0  0
   29.1781   -6.1008  107.9689 C   0  0  0  0  0  0  0  0  0  0  0  0
   31.1256   -5.7976  109.5282 N   0  0  0  0  0  0  0  0  0  0  0  0
   29.7275   -1.8155  105.6998 O   0  0  0  0  0  0  0  0  0  0  0  0
   30.1282   -0.5903  106.2328 C   0  0  0  0  0  0  0  0  0  0  0  0
   27.5913   -0.7665  104.7056 O   0  0  0  0  0  0  0  0  0  0  0  0
   29.1160   -4.0993  107.1187 C   0  0  0  0  0  0  0  0  0  0  0  0
   29.5641   -8.1644  109.0495 O   0  0  0  0  0  0  0  0  0  0  0  0
   28.8583   -7.5321  108.2678 C   0  0  0  0  0  0  0  0  0  0  0  0
   30.1940   -5.3548  108.5489 C   0  0  0  0  0  0  0  0  0  0  0  0
   28.2236   -3.1659  104.2063 O   0  5  0  0  0  0  0  0  0  0  0  0
   29.4923   -1.5199  103.2080 O   0  0  0  0  0  0  0  0  0  0  0  0
  1 17  1  0  0  0  0
  1 20  1  0  0  0  0
  2 15  1  6  0  0  0
  2  3  1  0  0  0  0
  2 11  1  0  0  0  0
  3  5  1  0  0  0  0
  4 16  1  1  0  0  0
  4 21  1  0  0  0  0
  4 22  2  0  0  0  0
  4 14  1  0  0  0  0
  5  1  1  6  0  0  0
  5  8  1  0  0  0  0
  6 17  2  0  0  0  0
  6 12  1  0  0  0  0
  8  7  1  1  0  0  0
  8 11  1  0  0  0  0
  9 19  1  0  0  0  0
 11 10  1  1  0  0  0
 12 20  2  0  0  0  0
 12 19  1  0  0  0  0
 13 20  1  0  0  0  0
 14 15  1  0  0  0  0
 18 19  2  0  0  0  0
M  CHG  1  21  -1
M  END
>  <CHROM.1>
39.30726068,-47.28660269,-44.88257129,173.89475970,-3.48876336,29.98583402
-3.41779239,106.88833172,-1.63293969,-0.65764477,-0.54843864

>  <Name>
ligand

>  <RI>
0

>  <Rbt.Current_Directory>
/home/itssahil/PROJECTS/Mol_Feturizer/New_Systems/rnas/4XW7

>  <Rbt.Executable>
rbdock ($Id: //depot/dev/client3/rdock/2013.1/src/exe/rbdock.cxx#4 $)

>  <Rbt.Library>
libRbt.so (2013.1, Build901 2013/11/27)

>  <Rbt.Parameter_File>
/export/apps/rDock/src/rDock_2013.1_src/data/scripts/dock_solv.prm

>  <Rbt.Receptor>
prm/pocket_docking_5.prm

>  <SCORE>
-5.78696

>  <SCORE.INTER>
-5.45234

>  <SCORE.INTER.CONST>
1

>  <SCORE.INTER.POLAR>
0

>  <SCORE.INTER.ROT>
5

>  <SCORE.INTER.SOLV>
15.9161

>  <SCORE.INTER.VDW>
-15.8736

>  <SCORE.INTER.norm>
-0.247834

>  <SCORE.INTRA>
-0.334619

>  <SCORE.INTRA.DIHEDRAL>
-0.024985

>  <SCORE.INTRA.DIHEDRAL.0>
2.61549

>  <SCORE.INTRA.POLAR>
0

>  <SCORE.INTRA.POLAR.0>
0

>  <SCORE.INTRA.REPUL>
0

>  <SCORE.INTRA.REPUL.0>
0

>  <SCORE.INTRA.SOLV>
0.989571

>  <SCORE.INTRA.SOLV.lig_0>
-73.766

>  <SCORE.INTRA.VDW>
-0.816912

>  <SCORE.INTRA.VDW.0>
-1.95055

>  <SCORE.INTRA.norm>
-0.01521

>  <SCORE.RESTR>
0

>  <SCORE.RESTR.CAVITY>
0

>  <SCORE.RESTR.norm>
0

>  <SCORE.SYSTEM>
0

>  <SCORE.SYSTEM.CONST>
0

>  <SCORE.SYSTEM.DIHEDRAL>
0

>  <SCORE.SYSTEM.SOLV>
0

>  <SCORE.SYSTEM.norm>
0

>  <SCORE.heavy>
22

>  <SCORE.norm>
-0.263043

>  <RMSD>
6.262

$$$$
ligand
 OpenBabel11021811513D
libRbt.so/2013.1/901 2013/11/27
 22 23  0  0  0  0  0  0  0  0999 V2000
   34.4133   -5.3883  110.0592 N   0  0  0  0  0  0  0  0  0  0  0  0
   31.0790   -5.8494  109.4435 C   0  0  1  0  0  0  0  0  0  0  0  0
   32.1129   -5.6250  110.4642 O   0  0  0  0  0  0  0  0  0  0  0  0
   28.6093   -7.5011  108.6217 P   0  0  2  0  0  0  0  0  0  0  0  0
   33.1563   -4.8103  109.8531 C   0  0  2  0  0  0  0  0  0  0  0  0
   36.1105   -6.7717  109.9269 N   0  0  0  0  0  0  0  0  0  0  0  0
   33.2094   -3.4624  107.8789 O   0  0  0  0  0  0  0  0  0  0  0  0
   32.8515   -4.7469  108.4102 C   0  0  2  0  0  0  0  0  0  0  0  0
   37.8741   -5.9643  112.8210 N   0  0  0  0  0  0  0  0  0  0  0  0
   30.7212   -3.6980  108.4772 O   0  0  0  0  0  0  0  0  0  0  0  0
   31.4032   -4.9615  108.3183 C   0  0  2  0  0  0  0  0  0  0  0  0
   36.4603   -5.7722  110.7597 C   0  0  0  0  0  0  0  0  0  0  0  0
   35.3412   -3.6967  111.6290 N   0  0  0  0  0  0  0  0  0  0  0  0
   30.0779   -7.4811  108.0859 O   0  0  0  0  0  0  0  0  0  0  0  0
   31.1135   -7.2629  108.9946 C   0  0  0  0  0  0  0  0  0  0  0  0
   28.4968   -8.4957  109.8530 O   0  0  0  0  0  0  0  0  0  0  0  0
   34.8486   -6.5203  109.5047 C   0  0  0  0  0  0  0  0  0  0  0  0
   38.7606   -5.2470  110.8492 O   0  0  0  0  0  0  0  0  0  0  0  0
   37.7743   -5.6435  111.4648 C   0  0  0  0  0  0  0  0  0  0  0  0
   35.3949   -4.8888  110.8550 C   0  0  0  0  0  0  0  0  0  0  0  0
   27.6520   -7.8633  107.5524 O   0  5  0  0  0  0  0  0  0  0  0  0
   28.1505   -6.1358  108.9955 O   0  0  0  0  0  0  0  0  0  0  0  0
  1 17  1  0  0  0  0
  1 20  1  0  0  0  0
  2 15  1  6  0  0  0
  2  3  1  0  0  0  0
  2 11  1  0  0  0  0
  3  5  1  0  0  0  0
  4 16  1  1  0  0  0
  4 21  1  0  0  0  0
  4 22  2  0  0  0  0
  4 14  1  0  0  0  0
  5  1  1  6  0  0  0
  5  8  1  0  0  0  0
  6 17  2  0  0  0  0
  6 12  1  0  0  0  0
  8  7  1  1  0  0  0
  8 11  1  0  0  0  0
  9 19  1  0  0  0  0
 11 10  1  1  0  0  0
 12 20  2  0  0  0  0
 12 19  1  0  0  0  0
 13 20  1  0  0  0  0
 14 15  1  0  0  0  0
 18 19  2  0  0  0  0
M  CHG  1  21  -1
M  END
>  <CHROM.1>
69.16300257,176.52668724,-51.30017550,-71.03066517,-102.86728716,32.60215914
-5.91621208,109.57202733,0.08693341,-0.35054578,-0.36634173

>  <Name>
ligand

>  <RI>
0

>  <Rbt.Current_Directory>
/home/itssahil/PROJECTS/Mol_Feturizer/New_Systems/rnas/4XW7

>  <Rbt.Executable>
rbdock ($Id: //depot/dev/client3/rdock/2013.1/src/exe/rbdock.cxx#4 $)

>  <Rbt.Library>
libRbt.so (2013.1, Build901 2013/11/27)

>  <Rbt.Parameter_File>
/export/apps/rDock/src/rDock_2013.1_src/data/scripts/dock_solv.prm

>  <Rbt.Receptor>
prm/pocket_docking_8.prm

>  <SCORE>
-6.46439

>  <SCORE.INTER>
-7.16799

>  <SCORE.INTER.CONST>
1

>  <SCORE.INTER.POLAR>
0

>  <SCORE.INTER.ROT>
5

>  <SCORE.INTER.SOLV>
10.4837

>  <SCORE.INTER.VDW>
-15.2066

>  <SCORE.INTER.norm>
-0.325818

>  <SCORE.INTRA>
0.703601

>  <SCORE.INTRA.DIHEDRAL>
-0.0792276

>  <SCORE.INTRA.DIHEDRAL.0>
2.61549

>  <SCORE.INTRA.POLAR>
0

>  <SCORE.INTRA.POLAR.0>
0

>  <SCORE.INTRA.REPUL>
0

>  <SCORE.INTRA.REPUL.0>
0

>  <SCORE.INTRA.SOLV>
1.52612

>  <SCORE.INTRA.SOLV.lig_0>
-73.766

>  <SCORE.INTRA.VDW>
-0.0198458

>  <SCORE.INTRA.VDW.0>
-1.95055

>  <SCORE.INTRA.norm>
0.0319818

>  <SCORE.RESTR>
0

>  <SCORE.RESTR.CAVITY>
0

>  <SCORE.RESTR.norm>
0

>  <SCORE.SYSTEM>
0

>  <SCORE.SYSTEM.CONST>
0

>  <SCORE.SYSTEM.DIHEDRAL>
0

>  <SCORE.SYSTEM.SOLV>
0

>  <SCORE.SYSTEM.norm>
0

>  <SCORE.heavy>
22

>  <SCORE.norm>
-0.293836

>  <RMSD>
6.264

$$$$
ligand
 OpenBabel11021811513D
libRbt.so/2013.1/901 2013/11/27
 22 23  0  0  0  0  0  0  0  0999 V2000
   30.2772   -4.1702  108.1124 N   0  0  0  0  0  0  0  0  0  0  0  0
   30.9438   -0.8514  107.6117 C   0  0  1  0  0  0  0  0  0  0  0  0
   30.3093   -1.8520  108.4821 O   0  0  0  0  0  0  0  0  0  0  0  0
   28.7926   -1.8525  104.6166 P   0  0  2  0  0  0  0  0  0  0  0  0
   31.1003   -3.0733  108.3875 C   0  0  2  0  0  0  0  0  0  0  0  0
   28.6946   -5.4122  107.2380 N   0  0  0  0  0  0  0  0  0  0  0  0
   33.3114   -3.5119  107.5902 O   0  0  0  0  0  0  0  0  0  0  0  0
   32.0647   -2.8675  107.2891 C   0  0  2  0  0  0  0  0  0  0  0  0
   28.6345   -7.9692  109.7006 N   0  0  0  0  0  0  0  0  0  0  0  0
   33.2673   -0.9999  108.1310 O   0  0  0  0  0  0  0  0  0  0  0  0
   32.2390   -1.4133  107.2043 C   0  0  2  0  0  0  0  0  0  0  0  0
   29.3762   -6.1743  108.1153 C   0  0  0  0  0  0  0  0  0  0  0  0
   31.3316   -5.8144  109.6523 N   0  0  0  0  0  0  0  0  0  0  0  0
   29.7517   -1.8449  105.8513 O   0  0  0  0  0  0  0  0  0  0  0  0
   30.0987   -0.6172  106.4152 C   0  0  0  0  0  0  0  0  0  0  0  0
   29.5336   -1.2422  103.3531 O   0  0  0  0  0  0  0  0  0  0  0  0
   29.2616   -4.1825  107.2482 C   0  0  0  0  0  0  0  0  0  0  0  0
   29.2679   -8.4693  107.5705 O   0  0  0  0  0  0  0  0  0  0  0  0
   29.0909   -7.6096  108.4299 C   0  0  0  0  0  0  0  0  0  0  0  0
   30.3809   -5.4011  108.6785 C   0  0  0  0  0  0  0  0  0  0  0  0
   27.5384   -1.1215  104.9058 O   0  5  0  0  0  0  0  0  0  0  0  0
   28.2903   -3.2234  104.3294 O   0  0  0  0  0  0  0  0  0  0  0  0
  1 17  1  0  0  0  0
  1 20  1  0  0  0  0
  2 15  1  6  0  0  0
  2  3  1  0  0  0  0
  2 11  1  0  0  0  0
  3  5  1  0  0  0  0
  4 16  1  6  0  0  0
  4 21  1  0  0  0  0
  4 22  2  0  0  0  0
  4 14  1  0  0  0  0
  5  1  1  6  0  0  0
  5  8  1  0  0  0  0
  6 17  2  0  0  0  0
  6 12  1  0  0  0  0
  8  7  1  1  0  0  0
  8 11  1  0  0  0  0
  9 19  1  0  0  0  0
 11 10  1  1  0  0  0
 12 20  2  0  0  0  0
 12 19  1  0  0  0  0
 13 20  1  0  0  0  0
 14 15  1  0  0  0  0
 18 19  2  0  0  0  0
M  CHG  1  21  -1
M  END
>  <CHROM.1>
41.76833505,-49.36186732,69.09646027,176.70418207,-113.53496065,30.08921520
-3.45456202,107.01653928,-1.60705462,-0.66552072,-0.53458374

>  <Name>
ligand

>  <RI>
0

>  <Rbt.Current_Directory>
/home/itssahil/PROJECTS/Mol_Feturizer/New_Systems/rnas/4XW7

>  <Rbt.Executable>
rbdock ($Id: //depot/dev/client3/rdock/2013.1/src/exe/rbdock.cxx#4 $)

>  <Rbt.Library>
libRbt.so (2013.1, Build901 2013/11/27)

>  <Rbt.Parameter_File>
/export/apps/rDock/src/rDock_2013.1_src/data/scripts/dock_solv.prm

>  <Rbt.Receptor>
prm/pocket_docking_7.prm

>  <SCORE>
-7.96498

>  <SCORE.INTER>
-7.27954

>  <SCORE.INTER.CONST>
1

>  <SCORE.INTER.POLAR>
0

>  <SCORE.INTER.ROT>
5

>  <SCORE.INTER.SOLV>
11.3676

>  <SCORE.INTER.VDW>
-15.5755

>  <SCORE.INTER.norm>
-0.330888

>  <SCORE.INTRA>
-0.685436

>  <SCORE.INTRA.DIHEDRAL>
-0.503407

>  <SCORE.INTRA.DIHEDRAL.0>
2.61549

>  <SCORE.INTRA.POLAR>
0

>  <SCORE.INTRA.POLAR.0>
0

>  <SCORE.INTRA.REPUL>
0

>  <SCORE.INTRA.REPUL.0>
0

>  <SCORE.INTRA.SOLV>
1.0557

>  <SCORE.INTRA.SOLV.lig_0>
-73.766

>  <SCORE.INTRA.VDW>
-0.961582

>  <SCORE.INTRA.VDW.0>
-1.95055

>  <SCORE.INTRA.norm>
-0.0311562

>  <SCORE.RESTR>
0

>  <SCORE.RESTR.CAVITY>
0

>  <SCORE.RESTR.norm>
0

>  <SCORE.SYSTEM>
0

>  <SCORE.SYSTEM.CONST>
0

>  <SCORE.SYSTEM.DIHEDRAL>
0

>  <SCORE.SYSTEM.SOLV>
0

>  <SCORE.SYSTEM.norm>
0

>  <SCORE.heavy>
22

>  <SCORE.norm>
-0.362045

>  <RMSD>
6.266

$$$$
ligand
 OpenBabel11021811513D
libRbt.so/2013.1/901 2013/11/27
 22 23  0  0  0  0  0  0  0  0999 V2000
   30.2362   -4.1539  108.0731 N   0  0  0  0  0  0  0  0  0  0  0  0
   30.9294   -0.8420  107.5626 C   0  0  1  0  0  0  0  0  0  0  0  0
   30.2830   -1.8344  108.4335 O   0  0  0  0  0  0  0  0  0  0  0  0
   28.7827   -1.8409  104.5640 P   0  0  2  0  0  0  0  0  0  0  0  0
   31.0656   -3.0617  108.3483 C   0  0  2  0  0  0  0  0  0  0  0  0
   28.6617   -5.3939  107.1813 N   0  0  0  0  0  0  0  0  0  0  0  0
   33.2779   -3.5195  107.5651 O   0  0  0  0  0  0  0  0  0  0  0  0
   32.0375   -2.8674  107.2544 C   0  0  2  0  0  0  0  0  0  0  0  0
   28.5126   -7.9006  109.6955 N   0  0  0  0  0  0  0  0  0  0  0  0
   33.2489   -1.0050  108.0954 O   0  0  0  0  0  0  0  0  0  0  0  0
   32.2228   -1.4149  107.1648 C   0  0  2  0  0  0  0  0  0  0  0  0
   29.3098   -6.1463  108.0918 C   0  0  0  0  0  0  0  0  0  0  0  0
   31.2278   -5.7792  109.6736 N   0  0  0  0  0  0  0  0  0  0  0  0
   29.7447   -1.8340  105.7964 O   0  0  0  0  0  0  0  0  0  0  0  0
   30.0926   -0.6066  106.3605 C   0  0  0  0  0  0  0  0  0  0  0  0
   29.5264   -1.2465  103.2946 O   0  0  0  0  0  0  0  0  0  0  0  0
   29.2440   -4.1713  107.1822 C   0  0  0  0  0  0  0  0  0  0  0  0
   29.1783   -8.4492  107.5874 O   0  0  0  0  0  0  0  0  0  0  0  0
   28.9978   -7.5712  108.4273 C   0  0  0  0  0  0  0  0  0  0  0  0
   30.3089   -5.3741  108.6664 C   0  0  0  0  0  0  0  0  0  0  0  0
   27.5362   -1.0958  104.8511 O   0  5  0  0  0  0  0  0  0  0  0  0
   28.2665   -3.2088  104.2875 O   0  0  0  0  0  0  0  0  0  0  0  0
  1 17  1  0  0  0  0
  1 20  1  0  0  0  0
  2 15  1  6  0  0  0
  2  3  1  0  0  0  0
  2 11  1  0  0  0  0
  3  5  1  0  0  0  0
  4 16  1  6  0  0  0
  4 21  1  0  0  0  0
  4 22  2  0  0  0  0
  4 14  1  0  0  0  0
  5  1  1  6  0  0  0
  5  8  1  0  0  0  0
  6 17  2  0  0  0  0
  6 12  1  0  0  0  0
  8  7  1  1  0  0  0
  8 11  1  0  0  0  0
  9 19  1  0  0  0  0
 11 10  1  1  0  0  0
 12 20  2  0  0  0  0
 12 19  1  0  0  0  0
 13 20  1  0  0  0  0
 14 15  1  0  0  0  0
 18 19  2  0  0  0  0
M  CHG  1  21  -1
M  END
>  <CHROM.1>
43.33465553,-49.61943765,69.83002240,176.13683126,-114.02065615,30.05240577
-3.43903491,106.98093060,-1.62336414,-0.66477234,-0.55264849

>  <Name>
ligand

>  <RI>
0

>  <Rbt.Current_Directory>
/home/itssahil/PROJECTS/Mol_Feturizer/New_Systems/rnas/4XW7

>  <Rbt.Executable>
rbdock ($Id: //depot/dev/client3/rdock/2013.1/src/exe/rbdock.cxx#4 $)

>  <Rbt.Library>
libRbt.so (2013.1, Build901 2013/11/27)

>  <Rbt.Parameter_File>
/export/apps/rDock/src/rDock_2013.1_src/data/scripts/dock_solv.prm

>  <Rbt.Receptor>
prm/pocket_docking_5.prm

>  <SCORE>
-7.90158

>  <SCORE.INTER>
-7.23037

>  <SCORE.INTER.CONST>
1

>  <SCORE.INTER.POLAR>
0

>  <SCORE.INTER.ROT>
5

>  <SCORE.INTER.SOLV>
11.2551

>  <SCORE.INTER.VDW>
-15.5053

>  <SCORE.INTER.norm>
-0.328653

>  <SCORE.INTRA>
-0.67121

>  <SCORE.INTRA.DIHEDRAL>
-0.487177

>  <SCORE.INTRA.DIHEDRAL.0>
2.61549

>  <SCORE.INTRA.POLAR>
0

>  <SCORE.INTRA.POLAR.0>
0

>  <SCORE.INTRA.REPUL>
0

>  <SCORE.INTRA.REPUL.0>
0

>  <SCORE.INTRA.SOLV>
1.03421

>  <SCORE.INTRA.SOLV.lig_0>
-73.766

>  <SCORE.INTRA.VDW>
-0.944727

>  <SCORE.INTRA.VDW.0>
-1.95055

>  <SCORE.INTRA.norm>
-0.0305095

>  <SCORE.RESTR>
0

>  <SCORE.RESTR.CAVITY>
0

>  <SCORE.RESTR.norm>
0

>  <SCORE.SYSTEM>
0

>  <SCORE.SYSTEM.CONST>
0

>  <SCORE.SYSTEM.DIHEDRAL>
0

>  <SCORE.SYSTEM.SOLV>
0

>  <SCORE.SYSTEM.norm>
0

>  <SCORE.heavy>
22

>  <SCORE.norm>
-0.359163

>  <RMSD>
6.267

$$$$
ligand
 OpenBabel11021811513D
libRbt.so/2013.1/901 2013/11/27
 22 23  0  0  0  0  0  0  0  0999 V2000
   30.2614   -4.1764  108.0938 N   0  0  0  0  0  0  0  0  0  0  0  0
   30.9281   -0.8548  107.6120 C   0  0  1  0  0  0  0  0  0  0  0  0
   30.2952   -1.8604  108.4776 O   0  0  0  0  0  0  0  0  0  0  0  0
   28.7581   -1.8357  104.6236 P   0  0  2  0  0  0  0  0  0  0  0  0
   31.0855   -3.0814  108.3739 C   0  0  2  0  0  0  0  0  0  0  0  0
   28.6810   -5.4145  107.2100 N   0  0  0  0  0  0  0  0  0  0  0  0
   33.2947   -3.5160  107.5691 O   0  0  0  0  0  0  0  0  0  0  0  0
   32.0476   -2.8693  107.2746 C   0  0  2  0  0  0  0  0  0  0  0  0
   27.9833   -8.2556  107.7966 N   0  0  0  0  0  0  0  0  0  0  0  0
   33.2527   -1.0073  108.1254 O   0  0  0  0  0  0  0  0  0  0  0  0
   32.2223   -1.4147  107.1984 C   0  0  2  0  0  0  0  0  0  0  0  0
   29.3555   -6.1783  108.0913 C   0  0  0  0  0  0  0  0  0  0  0  0
   31.3026   -5.8231  109.6399 N   0  0  0  0  0  0  0  0  0  0  0  0
   29.7139   -1.8377  105.8608 O   0  0  0  0  0  0  0  0  0  0  0  0
   30.0805   -0.6130  106.4187 C   0  0  0  0  0  0  0  0  0  0  0  0
   29.5024   -1.2160  103.3667 O   0  0  0  0  0  0  0  0  0  0  0  0
   29.2509   -4.1862  107.2236 C   0  0  0  0  0  0  0  0  0  0  0  0
   29.7749   -8.2189  109.2027 O   0  0  0  0  0  0  0  0  0  0  0  0
   29.0649   -7.6129  108.4042 C   0  0  0  0  0  0  0  0  0  0  0  0
   30.3588   -5.4075  108.6605 C   0  0  0  0  0  0  0  0  0  0  0  0
   27.5032   -1.1067  104.9150 O   0  5  0  0  0  0  0  0  0  0  0  0
   28.2563   -3.2043  104.3246 O   0  0  0  0  0  0  0  0  0  0  0  0
  1 17  1  0  0  0  0
  1 20  1  0  0  0  0
  2 15  1  6  0  0  0
  2  3  1  0  0  0  0
  2 11  1  0  0  0  0
  3  5  1  0  0  0  0
  4 16  1  6  0  0  0
  4 21  1  0  0  0  0
  4 22  2  0  0  0  0
  4 14  1  0  0  0  0
  5  1  1  6  0  0  0
  5  8  1  0  0  0  0
  6 17  2  0  0  0  0
  6 12  1  0  0  0  0
  8  7  1  1  0  0  0
  8 11  1  0  0  0  0
  9 19  1  0  0  0  0
 11 10  1  1  0  0  0
 12 20  2  0  0  0  0
 12 19  1  0  0  0  0
 13 20  1  0  0  0  0
 14 15  1  0  0  0  0
 18 19  2  0  0  0  0
M  CHG  1  21  -1
M  END
>  <CHROM.1>
42.36151433,-48.40698887,67.86415528,177.19052181,-2.48415976,30.06526737
-3.45244047,107.00827555,-1.59709875,-0.64672183,-0.52315711

>  <Name>
ligand

>  <RI>
0

>  <Rbt.Current_Directory>
/home/itssahil/PROJECTS/Mol_Feturizer/New_Systems/rnas/4XW7

>  <Rbt.Executable>
rbdock ($Id: //depot/dev/client3/rdock/2013.1/src/exe/rbdock.cxx#4 $)

>  <Rbt.Library>
libRbt.so (2013.1, Build901 2013/11/27)

>  <Rbt.Parameter_File>
/export/apps/rDock/src/rDock_2013.1_src/data/scripts/dock_solv.prm

>  <Rbt.Receptor>
prm/pocket_docking_5.prm

>  <SCORE>
-7.82355

>  <SCORE.INTER>
-7.28091

>  <SCORE.INTER.CONST>
1

>  <SCORE.INTER.POLAR>
0

>  <SCORE.INTER.ROT>
5

>  <SCORE.INTER.SOLV>
11.0894

>  <SCORE.INTER.VDW>
-15.4837

>  <SCORE.INTER.norm>
-0.33095

>  <SCORE.INTRA>
-0.542644

>  <SCORE.INTRA.DIHEDRAL>
-0.519063

>  <SCORE.INTRA.DIHEDRAL.0>
2.61549

>  <SCORE.INTRA.POLAR>
0

>  <SCORE.INTRA.POLAR.0>
0

>  <SCORE.INTRA.REPUL>
0

>  <SCORE.INTRA.REPUL.0>
0

>  <SCORE.INTRA.SOLV>
1.07024

>  <SCORE.INTRA.SOLV.lig_0>
-73.766

>  <SCORE.INTRA.VDW>
-0.818231

>  <SCORE.INTRA.VDW.0>
-1.95055

>  <SCORE.INTRA.norm>
-0.0246657

>  <SCORE.RESTR>
0

>  <SCORE.RESTR.CAVITY>
0

>  <SCORE.RESTR.norm>
0

>  <SCORE.SYSTEM>
0

>  <SCORE.SYSTEM.CONST>
0

>  <SCORE.SYSTEM.DIHEDRAL>
0

>  <SCORE.SYSTEM.SOLV>
0

>  <SCORE.SYSTEM.norm>
0

>  <SCORE.heavy>
22

>  <SCORE.norm>
-0.355616

>  <RMSD>
6.268

$$$$
ligand
 OpenBabel11021811513D
libRbt.so/2013.1/901 2013/11/27
 22 23  0  0  0  0  0  0  0  0999 V2000
   30.1486   -4.1487  108.0434 N   0  0  0  0  0  0  0  0  0  0  0  0
   30.9282   -0.8601  107.5079 C   0  0  1  0  0  0  0  0  0  0  0  0
   30.2327   -1.8255  108.3714 O   0  0  0  0  0  0  0  0  0  0  0  0
   28.7749   -1.8520  104.5121 P   0  0  2  0  0  0  0  0  0  0  0  0
   30.9915   -3.0699  108.3300 C   0  0  2  0  0  0  0  0  0  0  0  0
   28.5425   -5.3518  107.1575 N   0  0  0  0  0  0  0  0  0  0  0  0
   33.2180   -3.5853  107.6271 O   0  0  0  0  0  0  0  0  0  0  0  0
   32.0026   -2.9125  107.2661 C   0  0  2  0  0  0  0  0  0  0  0  0
   28.4230   -7.9341  109.5831 N   0  0  0  0  0  0  0  0  0  0  0  0
   33.2250   -1.0629  108.1195 O   0  0  0  0  0  0  0  0  0  0  0  0
   32.2215   -1.4656  107.1615 C   0  0  2  0  0  0  0  0  0  0  0  0
   29.2122   -6.1364  108.0241 C   0  0  0  0  0  0  0  0  0  0  0  0
   31.1765   -5.8298  109.5612 N   0  0  0  0  0  0  0  0  0  0  0  0
   29.7170   -1.8521  105.7598 O   0  0  0  0  0  0  0  0  0  0  0  0
   30.1365   -0.6258  106.2755 C   0  0  0  0  0  0  0  0  0  0  0  0
   29.5552   -1.2994  103.2458 O   0  0  0  0  0  0  0  0  0  0  0  0
   29.1313   -4.1325  107.1813 C   0  0  0  0  0  0  0  0  0  0  0  0
   29.0788   -8.4248  107.4576 O   0  0  0  0  0  0  0  0  0  0  0  0
   28.9021   -7.5701  108.3221 C   0  0  0  0  0  0  0  0  0  0  0  0
   30.2315   -5.3879  108.5945 C   0  0  0  0  0  0  0  0  0  0  0  0
   27.5457   -1.0675  104.7670 O   0  5  0  0  0  0  0  0  0  0  0  0
   28.2245   -3.2091  104.2488 O   0  0  0  0  0  0  0  0  0  0  0  0
  1 17  1  0  0  0  0
  1 20  1  0  0  0  0
  2 15  1  6  0  0  0
  2  3  1  0  0  0  0
  2 11  1  0  0  0  0
  3  5  1  0  0  0  0
  4 16  1  6  0  0  0
  4 21  1  0  0  0  0
  4 22  2  0  0  0  0
  4 14  1  0  0  0  0
  5  1  1  6  0  0  0
  5  8  1  0  0  0  0
  6 17  2  0  0  0  0
  6 12  1  0  0  0  0
  8  7  1  1  0  0  0
  8 11  1  0  0  0  0
  9 19  1  0  0  0  0
 11 10  1  1  0  0  0
 12 20  2  0  0  0  0
 12 19  1  0  0  0  0
 13 20  1  0  0  0  0
 14 15  1  0  0  0  0
 18 19  2  0  0  0  0
M  CHG  1  21  -1
M  END
>  <CHROM.1>
38.78721467,-46.28384091,67.14485561,175.65093771,-112.58703031,30.00746884
-3.45246538,106.93379107,-1.64082794,-0.66779234,-0.55707854

>  <Name>
ligand

>  <RI>
0

>  <Rbt.Current_Directory>
/home/itssahil/PROJECTS/Mol_Feturizer/New_Systems/rnas/4XW7

>  <Rbt.Executable>
rbdock ($Id: //depot/dev/client3/rdock/2013.1/src/exe/rbdock.cxx#4 $)

>  <Rbt.Library>
libRbt.so (2013.1, Build901 2013/11/27)

>  <Rbt.Parameter_File>
/export/apps/rDock/src/rDock_2013.1_src/data/scripts/dock_solv.prm

>  <Rbt.Receptor>
prm/pocket_docking_8.prm

>  <SCORE>
-7.91314

>  <SCORE.INTER>
-7.35559

>  <SCORE.INTER.CONST>
1

>  <SCORE.INTER.POLAR>
0

>  <SCORE.INTER.ROT>
5

>  <SCORE.INTER.SOLV>
11.4416

>  <SCORE.INTER.VDW>
-15.6509

>  <SCORE.INTER.norm>
-0.334345

>  <SCORE.INTRA>
-0.557557

>  <SCORE.INTRA.DIHEDRAL>
-0.246059

>  <SCORE.INTRA.DIHEDRAL.0>
2.61549

>  <SCORE.INTRA.POLAR>
0

>  <SCORE.INTRA.POLAR.0>
0

>  <SCORE.INTRA.REPUL>
0

>  <SCORE.INTRA.REPUL.0>
0

>  <SCORE.INTRA.SOLV>
1.14395

>  <SCORE.INTRA.SOLV.lig_0>
-73.766

>  <SCORE.INTRA.VDW>
-1.0065

>  <SCORE.INTRA.VDW.0>
-1.95055

>  <SCORE.INTRA.norm>
-0.0253435

>  <SCORE.RESTR>
0

>  <SCORE.RESTR.CAVITY>
0

>  <SCORE.RESTR.norm>
0

>  <SCORE.SYSTEM>
0

>  <SCORE.SYSTEM.CONST>
0

>  <SCORE.SYSTEM.DIHEDRAL>
0

>  <SCORE.SYSTEM.SOLV>
0

>  <SCORE.SYSTEM.norm>
0

>  <SCORE.heavy>
22

>  <SCORE.norm>
-0.359688

>  <RMSD>
6.268

$$$$
ligand
 OpenBabel11021811513D
libRbt.so/2013.1/901 2013/11/27
 22 23  0  0  0  0  0  0  0  0999 V2000
   29.7538   -4.0188  107.8270 N   0  0  0  0  0  0  0  0  0  0  0  0
   30.7585   -0.8140  107.1717 C   0  0  1  0  0  0  0  0  0  0  0  0
   29.9249   -1.6847  108.0133 O   0  0  0  0  0  0  0  0  0  0  0  0
   28.7278   -1.8807  104.1227 P   0  0  2  0  0  0  0  0  0  0  0  0
   30.6171   -2.9622  108.1352 C   0  0  2  0  0  0  0  0  0  0  0  0
   28.2567   -5.2442  106.7931 N   0  0  0  0  0  0  0  0  0  0  0  0
   32.8755   -3.6259  107.7157 O   0  0  0  0  0  0  0  0  0  0  0  0
   31.7428   -2.9250  107.1810 C   0  0  2  0  0  0  0  0  0  0  0  0
   27.7760   -8.2061  107.3404 N   0  0  0  0  0  0  0  0  0  0  0  0
   32.9631   -1.0784  108.0439 O   0  0  0  0  0  0  0  0  0  0  0  0
   32.0476   -1.5003  107.0090 C   0  0  2  0  0  0  0  0  0  0  0  0
   28.6609   -5.9243  107.8835 C   0  0  0  0  0  0  0  0  0  0  0  0
   30.2921   -5.5036  109.7485 N   0  0  0  0  0  0  0  0  0  0  0  0
   29.6345   -1.8586  105.3963 O   0  0  0  0  0  0  0  0  0  0  0  0
   30.1163   -0.6297  105.8473 C   0  0  0  0  0  0  0  0  0  0  0  0
   29.5847   -1.4998  102.8427 O   0  0  0  0  0  0  0  0  0  0  0  0
   28.9386   -4.0744  106.7730 C   0  0  0  0  0  0  0  0  0  0  0  0
   28.0947   -7.5510  109.4985 O   0  0  0  0  0  0  0  0  0  0  0  0
   28.1655   -7.2726  108.3042 C   0  0  0  0  0  0  0  0  0  0  0  0
   29.6080   -5.1601  108.5498 C   0  0  0  0  0  0  0  0  0  0  0  0
   27.5645   -0.9783  104.2755 O   0  5  0  0  0  0  0  0  0  0  0  0
   28.0698   -3.2040  103.9493 O   0  0  0  0  0  0  0  0  0  0  0  0
  1 17  1  0  0  0  0
  1 20  1  0  0  0  0
  2 15  1  6  0  0  0
  2  3  1  0  0  0  0
  2 11  1  0  0  0  0
  3  5  1  0  0  0  0
  4 16  1  6  0  0  0
  4 21  1  0  0  0  0
  4 22  2  0  0  0  0
  4 14  1  0  0  0  0
  5  1  1  6  0  0  0
  5  8  1  0  0  0  0
  6 17  2  0  0  0  0
  6 12  1  0  0  0  0
  8  7  1  1  0  0  0
  8 11  1  0  0  0  0
  9 19  1  0  0  0  0
 11 10  1  1  0  0  0
 12 20  2  0  0  0  0
 12 19  1  0  0  0  0
 13 20  1  0  0  0  0
 14 15  1  0  0  0  0
 18 19  2  0  0  0  0
M  CHG  1  21  -1
M  END
>  <CHROM.1>
46.49753905,-43.53682093,68.77224291,170.89771966,32.04534686,29.69123422
-3.36854456,106.72073054,-1.77746710,-0.69713496,-0.71675257

>  <Name>
ligand

>  <RI>
0

>  <Rbt.Current_Directory>
/home/itssahil/PROJECTS/Mol_Feturizer/New_Systems/rnas/4XW7

>  <Rbt.Executable>
rbdock ($Id: //depot/dev/client3/rdock/2013.1/src/exe/rbdock.cxx#4 $)

>  <Rbt.Library>
libRbt.so (2013.1, Build901 2013/11/27)

>  <Rbt.Parameter_File>
/export/apps/rDock/src/rDock_2013.1_src/data/scripts/dock_solv.prm

>  <Rbt.Receptor>
prm/pocket_docking_4.prm

>  <SCORE>
-6.8974

>  <SCORE.INTER>
-7.14131

>  <SCORE.INTER.CONST>
1

>  <SCORE.INTER.POLAR>
0

>  <SCORE.INTER.ROT>
5

>  <SCORE.INTER.SOLV>
10.0863

>  <SCORE.INTER.VDW>
-15.0563

>  <SCORE.INTER.norm>
-0.324605

>  <SCORE.INTRA>
0.243911

>  <SCORE.INTRA.DIHEDRAL>
1.22748

>  <SCORE.INTRA.DIHEDRAL.0>
2.61549

>  <SCORE.INTRA.POLAR>
0

>  <SCORE.INTRA.POLAR.0>
0

>  <SCORE.INTRA.REPUL>
0

>  <SCORE.INTRA.REPUL.0>
0

>  <SCORE.INTRA.SOLV>
0.947303

>  <SCORE.INTRA.SOLV.lig_0>
-73.766

>  <SCORE.INTRA.VDW>
-0.843479

>  <SCORE.INTRA.VDW.0>
-1.95055

>  <SCORE.INTRA.norm>
0.0110869

>  <SCORE.RESTR>
0

>  <SCORE.RESTR.CAVITY>
0

>  <SCORE.RESTR.norm>
0

>  <SCORE.SYSTEM>
0

>  <SCORE.SYSTEM.CONST>
0

>  <SCORE.SYSTEM.DIHEDRAL>
0

>  <SCORE.SYSTEM.SOLV>
0

>  <SCORE.SYSTEM.norm>
0

>  <SCORE.heavy>
22

>  <SCORE.norm>
-0.313518

>  <RMSD>
6.271

$$$$
ligand
 OpenBabel11021811513D
libRbt.so/2013.1/901 2013/11/27
 22 23  0  0  0  0  0  0  0  0999 V2000
   29.5182   -3.9643  107.8788 N   0  0  0  0  0  0  0  0  0  0  0  0
   30.7150   -0.8499  107.1184 C   0  0  1  0  0  0  0  0  0  0  0  0
   29.8375   -1.6412  107.9932 O   0  0  0  0  0  0  0  0  0  0  0  0
   28.6676   -1.8950  104.0677 P   0  0  2  0  0  0  0  0  0  0  0  0
   30.4494   -2.9557  108.1473 C   0  0  2  0  0  0  0  0  0  0  0  0
   28.1037   -5.2541  106.8077 N   0  0  0  0  0  0  0  0  0  0  0  0
   32.6571   -3.7725  107.7277 O   0  0  0  0  0  0  0  0  0  0  0  0
   31.5648   -3.0176  107.1824 C   0  0  2  0  0  0  0  0  0  0  0  0
   28.0518   -7.9051  109.2290 N   0  0  0  0  0  0  0  0  0  0  0  0
   32.9079   -1.2270  107.9783 O   0  0  0  0  0  0  0  0  0  0  0  0
   31.9566   -1.6207  106.9648 C   0  0  2  0  0  0  0  0  0  0  0  0
   28.1565   -5.6764  108.0859 C   0  0  0  0  0  0  0  0  0  0  0  0
   29.3991   -4.9669  110.1519 N   0  0  0  0  0  0  0  0  0  0  0  0
   29.5115   -1.8744  105.3836 O   0  0  0  0  0  0  0  0  0  0  0  0
   30.0712   -0.6647  105.7948 C   0  0  0  0  0  0  0  0  0  0  0  0
   29.5992   -1.5768  102.8233 O   0  0  0  0  0  0  0  0  0  0  0  0
   28.9472   -4.2005  106.6970 C   0  0  0  0  0  0  0  0  0  0  0  0
   26.1525   -6.8051  108.6200 O   0  0  0  0  0  0  0  0  0  0  0  0
   27.3802   -6.8202  108.6597 C   0  0  0  0  0  0  0  0  0  0  0  0
   29.0471   -4.8681  108.7774 C   0  0  0  0  0  0  0  0  0  0  0  0
   27.5327   -0.9476  104.1423 O   0  5  0  0  0  0  0  0  0  0  0  0
   27.9699   -3.1975  103.8922 O   0  0  0  0  0  0  0  0  0  0  0  0
  1 17  1  0  0  0  0
  1 20  1  0  0  0  0
  2 15  1  6  0  0  0
  2  3  1  0  0  0  0
  2 11  1  0  0  0  0
  3  5  1  0  0  0  0
  4 16  1  6  0  0  0
  4 21  1  0  0  0  0
  4 22  2  0  0  0  0
  4 14  1  0  0  0  0
  5  1  1  6  0  0  0
  5  8  1  0  0  0  0
  6 17  2  0  0  0  0
  6 12  1  0  0  0  0
  8  7  1  1  0  0  0
  8 11  1  0  0  0  0
  9 19  1  0  0  0  0
 11 10  1  1  0  0  0
 12 20  2  0  0  0  0
 12 19  1  0  0  0  0
 13 20  1  0  0  0  0
 14 15  1  0  0  0  0
 18 19  2  0  0  0  0
M  CHG  1  21  -1
M  END
>  <CHROM.1>
65.31169324,-43.69727507,65.68569064,174.77766186,120.51045779,29.43099595
-3.29049462,106.77914950,-1.90869600,-0.60182073,-0.86227944

>  <Name>
ligand

>  <RI>
0

>  <Rbt.Current_Directory>
/home/itssahil/PROJECTS/Mol_Feturizer/New_Systems/rnas/4XW7

>  <Rbt.Executable>
rbdock ($Id: //depot/dev/client3/rdock/2013.1/src/exe/rbdock.cxx#4 $)

>  <Rbt.Library>
libRbt.so (2013.1, Build901 2013/11/27)

>  <Rbt.Parameter_File>
/export/apps/rDock/src/rDock_2013.1_src/data/scripts/dock_solv.prm

>  <Rbt.Receptor>
prm/pocket_docking_4.prm

>  <SCORE>
-6.57401

>  <SCORE.INTER>
-6.05576

>  <SCORE.INTER.CONST>
1

>  <SCORE.INTER.POLAR>
0

>  <SCORE.INTER.ROT>
5

>  <SCORE.INTER.SOLV>
8.98512

>  <SCORE.INTER.VDW>
-13.9655

>  <SCORE.INTER.norm>
-0.275262

>  <SCORE.INTRA>
-0.518254

>  <SCORE.INTRA.DIHEDRAL>
-0.0392307

>  <SCORE.INTRA.DIHEDRAL.0>
2.61549

>  <SCORE.INTRA.POLAR>
0

>  <SCORE.INTRA.POLAR.0>
0

>  <SCORE.INTRA.REPUL>
0

>  <SCORE.INTRA.REPUL.0>
0

>  <SCORE.INTRA.SOLV>
0.491707

>  <SCORE.INTRA.SOLV.lig_0>
-73.766

>  <SCORE.INTRA.VDW>
-0.744491

>  <SCORE.INTRA.VDW.0>
-1.95055

>  <SCORE.INTRA.norm>
-0.023557

>  <SCORE.RESTR>
0

>  <SCORE.RESTR.CAVITY>
0

>  <SCORE.RESTR.norm>
0

>  <SCORE.SYSTEM>
0

>  <SCORE.SYSTEM.CONST>
0

>  <SCORE.SYSTEM.DIHEDRAL>
0

>  <SCORE.SYSTEM.SOLV>
0

>  <SCORE.SYSTEM.norm>
0

>  <SCORE.heavy>
22

>  <SCORE.norm>
-0.298819

>  <RMSD>
6.272

$$$$
ligand
 OpenBabel11021811513D
libRbt.so/2013.1/901 2013/11/27
 22 23  0  0  0  0  0  0  0  0999 V2000
   29.8287   -3.9838  107.8568 N   0  0  0  0  0  0  0  0  0  0  0  0
   30.8221   -0.7794  107.1821 C   0  0  1  0  0  0  0  0  0  0  0  0
   30.0084   -1.6503  108.0428 O   0  0  0  0  0  0  0  0  0  0  0  0
   28.7425   -1.8466  104.1659 P   0  0  2  0  0  0  0  0  0  0  0  0
   30.7013   -2.9292  108.1450 C   0  0  2  0  0  0  0  0  0  0  0  0
   28.2550   -5.1756  106.9005 N   0  0  0  0  0  0  0  0  0  0  0  0
   32.9474   -3.5958  107.6677 O   0  0  0  0  0  0  0  0  0  0  0  0
   31.8027   -2.8921  107.1629 C   0  0  2  0  0  0  0  0  0  0  0  0
   27.9929   -7.5800  109.5984 N   0  0  0  0  0  0  0  0  0  0  0  0
   33.0474   -1.0491  107.9981 O   0  0  0  0  0  0  0  0  0  0  0  0
   32.1055   -1.4676  106.9857 C   0  0  2  0  0  0  0  0  0  0  0  0
   28.7789   -5.9137  107.8984 C   0  0  0  0  0  0  0  0  0  0  0  0
   30.5836   -5.5740  109.6140 N   0  0  0  0  0  0  0  0  0  0  0  0
   29.6722   -1.8231  105.4225 O   0  0  0  0  0  0  0  0  0  0  0  0
   30.1470   -0.5918  105.8745 C   0  0  0  0  0  0  0  0  0  0  0  0
   29.5810   -1.4907  102.8666 O   0  0  0  0  0  0  0  0  0  0  0  0
   28.9119   -3.9915  106.8884 C   0  0  0  0  0  0  0  0  0  0  0  0
   28.3248   -8.1823  107.4269 O   0  0  0  0  0  0  0  0  0  0  0  0
   28.3511   -7.2968  108.2779 C   0  0  0  0  0  0  0  0  0  0  0  0
   29.7759   -5.1715  108.5147 C   0  0  0  0  0  0  0  0  0  0  0  0
   27.5941   -0.9271  104.3297 O   0  5  0  0  0  0  0  0  0  0  0  0
   28.0640   -3.1627  104.0186 O   0  0  0  0  0  0  0  0  0  0  0  0
  1 17  1  0  0  0  0
  1 20  1  0  0  0  0
  2 15  1  6  0  0  0
  2  3  1  0  0  0  0
  2 11  1  0  0  0  0
  3  5  1  0  0  0  0
  4 16  1  6  0  0  0
  4 21  1  0  0  0  0
  4 22  2  0  0  0  0
  4 14  1  0  0  0  0
  5  1  1  6  0  0  0
  5  8  1  0  0  0  0
  6 17  2  0  0  0  0
  6 12  1  0  0  0  0
  8  7  1  1  0  0  0
  8 11  1  0  0  0  0
  9 19  1  0  0  0  0
 11 10  1  1  0  0  0
 12 20  2  0  0  0  0
 12 19  1  0  0  0  0
 13 20  1  0  0  0  0
 14 15  1  0  0  0  0
 18 19  2  0  0  0  0
M  CHG  1  21  -1
M  END
>  <CHROM.1>
40.73252189,-44.55474164,70.59768454,171.18311750,-126.63204117,29.77105372
-3.34773985,106.72844008,-1.74196430,-0.68607248,-0.67981033

>  <Name>
ligand

>  <RI>
0

>  <Rbt.Current_Directory>
/home/itssahil/PROJECTS/Mol_Feturizer/New_Systems/rnas/4XW7

>  <Rbt.Executable>
rbdock ($Id: //depot/dev/client3/rdock/2013.1/src/exe/rbdock.cxx#4 $)

>  <Rbt.Library>
libRbt.so (2013.1, Build901 2013/11/27)

>  <Rbt.Parameter_File>
/export/apps/rDock/src/rDock_2013.1_src/data/scripts/dock_solv.prm

>  <Rbt.Receptor>
prm/pocket_docking_4.prm

>  <SCORE>
-7.48564

>  <SCORE.INTER>
-7.29801

>  <SCORE.INTER.CONST>
1

>  <SCORE.INTER.POLAR>
0

>  <SCORE.INTER.ROT>
5

>  <SCORE.INTER.SOLV>
10.4901

>  <SCORE.INTER.VDW>
-15.2954

>  <SCORE.INTER.norm>
-0.331728

>  <SCORE.INTRA>
-0.188707

>  <SCORE.INTRA.DIHEDRAL>
0.28418

>  <SCORE.INTRA.DIHEDRAL.0>
2.61549

>  <SCORE.INTRA.POLAR>
0

>  <SCORE.INTRA.POLAR.0>
0

>  <SCORE.INTRA.REPUL>
0

>  <SCORE.INTRA.REPUL.0>
0

>  <SCORE.INTRA.SOLV>
1.29177

>  <SCORE.INTRA.SOLV.lig_0>
-73.766

>  <SCORE.INTRA.VDW>
-0.976682

>  <SCORE.INTRA.VDW.0>
-1.95055

>  <SCORE.INTRA.norm>
-0.00857761

>  <SCORE.RESTR>
0.0010822

>  <SCORE.RESTR.CAVITY>
0.0010822

>  <SCORE.RESTR.norm>
4.91908e-05

>  <SCORE.SYSTEM>
0

>  <SCORE.SYSTEM.CONST>
0

>  <SCORE.SYSTEM.DIHEDRAL>
0

>  <SCORE.SYSTEM.SOLV>
0

>  <SCORE.SYSTEM.norm>
0

>  <SCORE.heavy>
22

>  <SCORE.norm>
-0.340256

>  <RMSD>
6.272

$$$$
ligand
 OpenBabel11021811513D
libRbt.so/2013.1/901 2013/11/27
 22 23  0  0  0  0  0  0  0  0999 V2000
   30.1188   -4.1107  108.0601 N   0  0  0  0  0  0  0  0  0  0  0  0
   30.9084   -0.8259  107.5154 C   0  0  1  0  0  0  0  0  0  0  0  0
   30.2208   -1.7882  108.3886 O   0  0  0  0  0  0  0  0  0  0  0  0
   28.7377   -1.8082  104.5292 P   0  0  2  0  0  0  0  0  0  0  0  0
   30.9720   -3.0368  108.3346 C   0  0  2  0  0  0  0  0  0  0  0  0
   28.5613   -5.3399  107.1246 N   0  0  0  0  0  0  0  0  0  0  0  0
   33.1845   -3.5640  107.5972 O   0  0  0  0  0  0  0  0  0  0  0  0
   31.9675   -2.8841  107.2555 C   0  0  2  0  0  0  0  0  0  0  0  0
   28.1803   -7.6951  109.7810 N   0  0  0  0  0  0  0  0  0  0  0  0
   33.2131   -1.0421  108.0915 O   0  0  0  0  0  0  0  0  0  0  0  0
   32.1928   -1.4384  107.1486 C   0  0  2  0  0  0  0  0  0  0  0  0
   29.1092   -6.0614  108.1218 C   0  0  0  0  0  0  0  0  0  0  0  0
   30.9219   -5.6752  109.8190 N   0  0  0  0  0  0  0  0  0  0  0  0
   29.6964   -1.8114  105.7641 O   0  0  0  0  0  0  0  0  0  0  0  0
   30.0991   -0.5862  106.2954 C   0  0  0  0  0  0  0  0  0  0  0  0
   29.4963   -1.2380  103.2575 O   0  0  0  0  0  0  0  0  0  0  0  0
   29.1937   -4.1426  107.1001 C   0  0  0  0  0  0  0  0  0  0  0  0
   28.8670   -8.3752  107.7183 O   0  0  0  0  0  0  0  0  0  0  0  0
   28.7133   -7.4509  108.5127 C   0  0  0  0  0  0  0  0  0  0  0  0
   30.0963   -5.2955  108.7249 C   0  0  0  0  0  0  0  0  0  0  0  0
   27.5055   -1.0365  104.8074 O   0  5  0  0  0  0  0  0  0  0  0  0
   28.1951   -3.1676  104.2611 O   0  0  0  0  0  0  0  0  0  0  0  0
  1 17  1  0  0  0  0
  1 20  1  0  0  0  0
  2 15  1  6  0  0  0
  2  3  1  0  0  0  0
  2 11  1  0  0  0  0
  3  5  1  0  0  0  0
  4 16  1  6  0  0  0
  4 21  1  0  0  0  0
  4 22  2  0  0  0  0
  4 14  1  0  0  0  0
  5  1  1  6  0  0  0
  5  8  1  0  0  0  0
  6 17  2  0  0  0  0
  6 12  1  0  0  0  0
  8  7  1  1  0  0  0
  8 11  1  0  0  0  0
  9 19  1  0  0  0  0
 11 10  1  1  0  0  0
 12 20  2  0  0  0  0
 12 19  1  0  0  0  0
 13 20  1  0  0  0  0
 14 15  1  0  0  0  0
 18 19  2  0  0  0  0
M  CHG  1  21  -1
M  END
>  <CHROM.1>
47.47629185,-47.93543312,67.93655452,175.47962199,-116.93534367,29.94303490
-3.39808075,106.98086732,-1.67171667,-0.65362228,-0.60308974

>  <Name>
ligand

>  <RI>
0

>  <Rbt.Current_Directory>
/home/itssahil/PROJECTS/Mol_Feturizer/New_Systems/rnas/4XW7

>  <Rbt.Executable>
rbdock ($Id: //depot/dev/client3/rdock/2013.1/src/exe/rbdock.cxx#4 $)

>  <Rbt.Library>
libRbt.so (2013.1, Build901 2013/11/27)

>  <Rbt.Parameter_File>
/export/apps/rDock/src/rDock_2013.1_src/data/scripts/dock_solv.prm

>  <Rbt.Receptor>
prm/pocket_docking_5.prm

>  <SCORE>
-7.88399

>  <SCORE.INTER>
-7.20733

>  <SCORE.INTER.CONST>
1

>  <SCORE.INTER.POLAR>
0

>  <SCORE.INTER.ROT>
5

>  <SCORE.INTER.SOLV>
10.1782

>  <SCORE.INTER.VDW>
-15.131

>  <SCORE.INTER.norm>
-0.327606

>  <SCORE.INTRA>
-0.676653

>  <SCORE.INTRA.DIHEDRAL>
-0.412576

>  <SCORE.INTRA.DIHEDRAL.0>
2.61549

>  <SCORE.INTRA.POLAR>
0

>  <SCORE.INTRA.POLAR.0>
0

>  <SCORE.INTRA.REPUL>
0

>  <SCORE.INTRA.REPUL.0>
0

>  <SCORE.INTRA.SOLV>
0.946399

>  <SCORE.INTRA.SOLV.lig_0>
-73.766

>  <SCORE.INTRA.VDW>
-0.943564

>  <SCORE.INTRA.VDW.0>
-1.95055

>  <SCORE.INTRA.norm>
-0.030757

>  <SCORE.RESTR>
0

>  <SCORE.RESTR.CAVITY>
0

>  <SCORE.RESTR.norm>
0

>  <SCORE.SYSTEM>
0

>  <SCORE.SYSTEM.CONST>
0

>  <SCORE.SYSTEM.DIHEDRAL>
0

>  <SCORE.SYSTEM.SOLV>
0

>  <SCORE.SYSTEM.norm>
0

>  <SCORE.heavy>
22

>  <SCORE.norm>
-0.358363

>  <RMSD>
6.273

$$$$
ligand
 OpenBabel11021811513D
libRbt.so/2013.1/901 2013/11/27
 22 23  0  0  0  0  0  0  0  0999 V2000
   30.2522   -4.1404  108.0898 N   0  0  0  0  0  0  0  0  0  0  0  0
   30.9499   -0.8346  107.5467 C   0  0  1  0  0  0  0  0  0  0  0  0
   30.2921   -1.8165  108.4212 O   0  0  0  0  0  0  0  0  0  0  0  0
   28.7962   -1.8729  104.5674 P   0  0  2  0  0  0  0  0  0  0  0  0
   31.0769   -3.0440  108.3626 C   0  0  2  0  0  0  0  0  0  0  0  0
   28.6761   -5.3859  107.2087 N   0  0  0  0  0  0  0  0  0  0  0  0
   33.3002   -3.5097  107.6161 O   0  0  0  0  0  0  0  0  0  0  0  0
   32.0638   -2.8628  107.2799 C   0  0  2  0  0  0  0  0  0  0  0  0
   27.9864   -8.2273  107.8014 N   0  0  0  0  0  0  0  0  0  0  0  0
   33.2618   -0.9886  108.1138 O   0  0  0  0  0  0  0  0  0  0  0  0
   32.2491   -1.4113  107.1742 C   0  0  2  0  0  0  0  0  0  0  0  0
   29.3409   -6.1398  108.1058 C   0  0  0  0  0  0  0  0  0  0  0  0
   31.2754   -5.7693  109.6666 N   0  0  0  0  0  0  0  0  0  0  0  0
   29.7646   -1.8506  105.7945 O   0  0  0  0  0  0  0  0  0  0  0  0
   30.1298   -0.6155  106.3301 C   0  0  0  0  0  0  0  0  0  0  0  0
   29.5376   -1.3071  103.2836 O   0  0  0  0  0  0  0  0  0  0  0  0
   29.2493   -4.1590  107.2111 C   0  0  0  0  0  0  0  0  0  0  0  0
   29.7263   -8.1576  109.2698 O   0  0  0  0  0  0  0  0  0  0  0  0
   29.0436   -7.5693  108.4351 C   0  0  0  0  0  0  0  0  0  0  0  0
   30.3413   -5.3641  108.6736 C   0  0  0  0  0  0  0  0  0  0  0  0
   27.5566   -1.1136  104.8471 O   0  5  0  0  0  0  0  0  0  0  0  0
   28.2687   -3.2418  104.3184 O   0  0  0  0  0  0  0  0  0  0  0  0
  1 17  1  0  0  0  0
  1 20  1  0  0  0  0
  2 15  1  6  0  0  0
  2  3  1  0  0  0  0
  2 11  1  0  0  0  0
  3  5  1  0  0  0  0
  4 16  1  6  0  0  0
  4 21  1  0  0  0  0
  4 22  2  0  0  0  0
  4 14  1  0  0  0  0
  5  1  1  6  0  0  0
  5  8  1  0  0  0  0
  6 17  2  0  0  0  0
  6 12  1  0  0  0  0
  8  7  1  1  0  0  0
  8 11  1  0  0  0  0
  9 19  1  0  0  0  0
 11 10  1  1  0  0  0
 12 20  2  0  0  0  0
 12 19  1  0  0  0  0
 13 20  1  0  0  0  0
 14 15  1  0  0  0  0
 18 19  2  0  0  0  0
M  CHG  1  21  -1
M  END
>  <CHROM.1>
41.41329268,-48.24924220,69.50061138,175.14471141,-0.85523535,30.07511479
-3.44244998,106.98959500,-1.60917660,-0.65530196,-0.54639007

>  <Name>
ligand

>  <RI>
0

>  <Rbt.Current_Directory>
/home/itssahil/PROJECTS/Mol_Feturizer/New_Systems/rnas/4XW7

>  <Rbt.Executable>
rbdock ($Id: //depot/dev/client3/rdock/2013.1/src/exe/rbdock.cxx#4 $)

>  <Rbt.Library>
libRbt.so (2013.1, Build901 2013/11/27)

>  <Rbt.Parameter_File>
/export/apps/rDock/src/rDock_2013.1_src/data/scripts/dock_solv.prm

>  <Rbt.Receptor>
prm/pocket_docking_5.prm

>  <SCORE>
-7.81177

>  <SCORE.INTER>
-7.3457

>  <SCORE.INTER.CONST>
1

>  <SCORE.INTER.POLAR>
0

>  <SCORE.INTER.ROT>
5

>  <SCORE.INTER.SOLV>
11.1706

>  <SCORE.INTER.VDW>
-15.554

>  <SCORE.INTER.norm>
-0.333895

>  <SCORE.INTRA>
-0.466073

>  <SCORE.INTRA.DIHEDRAL>
-0.391433

>  <SCORE.INTRA.DIHEDRAL.0>
2.61549

>  <SCORE.INTRA.POLAR>
0

>  <SCORE.INTRA.POLAR.0>
0

>  <SCORE.INTRA.REPUL>
0

>  <SCORE.INTRA.REPUL.0>
0

>  <SCORE.INTRA.SOLV>
1.14643

>  <SCORE.INTRA.SOLV.lig_0>
-73.766

>  <SCORE.INTRA.VDW>
-0.843573

>  <SCORE.INTRA.VDW.0>
-1.95055

>  <SCORE.INTRA.norm>
-0.0211852

>  <SCORE.RESTR>
0

>  <SCORE.RESTR.CAVITY>
0

>  <SCORE.RESTR.norm>
0

>  <SCORE.SYSTEM>
0

>  <SCORE.SYSTEM.CONST>
0

>  <SCORE.SYSTEM.DIHEDRAL>
0

>  <SCORE.SYSTEM.SOLV>
0

>  <SCORE.SYSTEM.norm>
0

>  <SCORE.heavy>
22

>  <SCORE.norm>
-0.355081

>  <RMSD>
6.273

$$$$
ligand
 OpenBabel11021811513D
libRbt.so/2013.1/901 2013/11/27
 22 23  0  0  0  0  0  0  0  0999 V2000
   26.9420   -3.1559  106.4534 N   0  0  0  0  0  0  0  0  0  0  0  0
   29.2830   -1.4833  104.6010 C   0  0  1  0  0  0  0  0  0  0  0  0
   28.9104   -2.7546  105.2385 O   0  0  0  0  0  0  0  0  0  0  0  0
   31.0895   -1.8683  107.3304 P   0  0  2  0  0  0  0  0  0  0  0  0
   27.4567   -2.8556  105.1880 C   0  0  2  0  0  0  0  0  0  0  0  0
   26.4859   -3.0252  108.5951 N   0  0  0  0  0  0  0  0  0  0  0  0
   25.7985   -1.7110  103.9006 O   0  0  0  0  0  0  0  0  0  0  0  0
   26.9582   -1.5439  104.7297 C   0  0  2  0  0  0  0  0  0  0  0  0
   24.9361   -4.9292  110.2933 N   0  0  0  0  0  0  0  0  0  0  0  0
   27.9935   -1.4242  102.5950 O   0  0  0  0  0  0  0  0  0  0  0  0
   28.0658   -0.9638  103.9624 C   0  0  2  0  0  0  0  0  0  0  0  0
   25.8783   -4.1268  108.1131 C   0  0  0  0  0  0  0  0  0  0  0  0
   25.7148   -5.2378  105.8648 N   0  0  0  0  0  0  0  0  0  0  0  0
   31.0153   -0.9280  106.0836 O   0  0  0  0  0  0  0  0  0  0  0  0
   29.7595   -0.5257  105.6289 C   0  0  0  0  0  0  0  0  0  0  0  0
   30.6948   -3.3482  106.9155 O   0  0  0  0  0  0  0  0  0  0  0  0
   27.1357   -2.4395  107.5614 C   0  0  0  0  0  0  0  0  0  0  0  0
   24.4705   -6.0085  108.3422 O   0  0  0  0  0  0  0  0  0  0  0  0
   25.0468   -5.0835  108.9090 C   0  0  0  0  0  0  0  0  0  0  0  0
   26.1593   -4.2241  106.7579 C   0  0  0  0  0  0  0  0  0  0  0  0
   30.2292   -1.3734  108.4287 O   0  5  0  0  0  0  0  0  0  0  0  0
   32.4388   -1.8321  107.9566 O   0  0  0  0  0  0  0  0  0  0  0  0
  1 17  1  0  0  0  0
  1 20  1  0  0  0  0
  2 15  1  1  0  0  0
  2  3  1  0  0  0  0
  2 11  1  0  0  0  0
  3  5  1  0  0  0  0
  4 16  1  6  0  0  0
  4 21  1  0  0  0  0
  4 22  2  0  0  0  0
  4 14  1  0  0  0  0
  5  1  1  1  0  0  0
  5  8  1  0  0  0  0
  6 17  2  0  0  0  0
  6 12  1  0  0  0  0
  8  7  1  6  0  0  0
  8 11  1  0  0  0  0
  9 19  1  0  0  0  0
 11 10  1  6  0  0  0
 12 20  2  0  0  0  0
 12 19  1  0  0  0  0
 13 20  1  0  0  0  0
 14 15  1  0  0  0  0
 18 19  2  0  0  0  0
M  CHG  1  21  -1
M  END
>  <CHROM.1>
56.94526866,72.02979546,75.83461012,-91.58831483,-5.16320557,28.10243672
-2.68605055,106.53667493,2.64111340,0.39823816,1.99042725

>  <Name>
ligand

>  <RI>
0

>  <Rbt.Current_Directory>
/home/itssahil/PROJECTS/Mol_Feturizer/New_Systems/rnas/4XW7

>  <Rbt.Executable>
rbdock ($Id: //depot/dev/client3/rdock/2013.1/src/exe/rbdock.cxx#4 $)

>  <Rbt.Library>
libRbt.so (2013.1, Build901 2013/11/27)

>  <Rbt.Parameter_File>
/export/apps/rDock/src/rDock_2013.1_src/data/scripts/dock_solv.prm

>  <Rbt.Receptor>
prm/pocket_docking_3.prm

>  <SCORE>
0.965734

>  <SCORE.INTER>
-0.633685

>  <SCORE.INTER.CONST>
1

>  <SCORE.INTER.POLAR>
0

>  <SCORE.INTER.ROT>
5

>  <SCORE.INTER.SOLV>
6.07998

>  <SCORE.INTER.VDW>
-9.38245

>  <SCORE.INTER.norm>
-0.0288039

>  <SCORE.INTRA>
1.59942

>  <SCORE.INTRA.DIHEDRAL>
3.68622

>  <SCORE.INTRA.DIHEDRAL.0>
2.61549

>  <SCORE.INTRA.POLAR>
0

>  <SCORE.INTRA.POLAR.0>
0

>  <SCORE.INTRA.REPUL>
0

>  <SCORE.INTRA.REPUL.0>
0

>  <SCORE.INTRA.SOLV>
1.31188

>  <SCORE.INTRA.SOLV.lig_0>
-73.766

>  <SCORE.INTRA.VDW>
-0.899631

>  <SCORE.INTRA.VDW.0>
-1.95055

>  <SCORE.INTRA.norm>
0.0727009

>  <SCORE.RESTR>
0

>  <SCORE.RESTR.CAVITY>
0

>  <SCORE.RESTR.norm>
0

>  <SCORE.SYSTEM>
0

>  <SCORE.SYSTEM.CONST>
0

>  <SCORE.SYSTEM.DIHEDRAL>
0

>  <SCORE.SYSTEM.SOLV>
0

>  <SCORE.SYSTEM.norm>
0

>  <SCORE.heavy>
22

>  <SCORE.norm>
0.043897

>  <RMSD>
6.274

$$$$
ligand
 OpenBabel11021811513D
libRbt.so/2013.1/901 2013/11/27
 22 23  0  0  0  0  0  0  0  0999 V2000
   30.0929   -4.1222  108.0396 N   0  0  0  0  0  0  0  0  0  0  0  0
   30.9069   -0.8456  107.4817 C   0  0  1  0  0  0  0  0  0  0  0  0
   30.1974   -1.7973  108.3490 O   0  0  0  0  0  0  0  0  0  0  0  0
   28.7734   -1.8440  104.4741 P   0  0  2  0  0  0  0  0  0  0  0  0
   30.9446   -3.0492  108.3221 C   0  0  2  0  0  0  0  0  0  0  0  0
   28.5413   -5.3489  107.0912 N   0  0  0  0  0  0  0  0  0  0  0  0
   33.1699   -3.5915  107.6360 O   0  0  0  0  0  0  0  0  0  0  0  0
   31.9630   -2.9101  107.2627 C   0  0  2  0  0  0  0  0  0  0  0  0
   28.1454   -7.7111  109.7399 N   0  0  0  0  0  0  0  0  0  0  0  0
   33.1982   -1.0654  108.1078 O   0  0  0  0  0  0  0  0  0  0  0  0
   32.1963   -1.4663  107.1475 C   0  0  2  0  0  0  0  0  0  0  0  0
   29.0828   -6.0730  108.0899 C   0  0  0  0  0  0  0  0  0  0  0  0
   30.8849   -5.6913  109.7995 N   0  0  0  0  0  0  0  0  0  0  0  0
   29.7098   -1.8415  105.7260 O   0  0  0  0  0  0  0  0  0  0  0  0
   30.1243   -0.6140  106.2429 C   0  0  0  0  0  0  0  0  0  0  0  0
   29.5671   -1.3185  103.2045 O   0  0  0  0  0  0  0  0  0  0  0  0
   29.1739   -4.1517  107.0737 C   0  0  0  0  0  0  0  0  0  0  0  0
   28.8411   -8.3855  107.6785 O   0  0  0  0  0  0  0  0  0  0  0  0
   28.6843   -7.4634  108.4749 C   0  0  0  0  0  0  0  0  0  0  0  0
   30.0662   -5.3087  108.7012 C   0  0  0  0  0  0  0  0  0  0  0  0
   27.5542   -1.0393  104.7133 O   0  5  0  0  0  0  0  0  0  0  0  0
   28.2052   -3.1966  104.2254 O   0  0  0  0  0  0  0  0  0  0  0  0
  1 17  1  0  0  0  0
  1 20  1  0  0  0  0
  2 15  1  6  0  0  0
  2  3  1  0  0  0  0
  2 11  1  0  0  0  0
  3  5  1  0  0  0  0
  4 16  1  6  0  0  0
  4 21  1  0  0  0  0
  4 22  2  0  0  0  0
  4 14  1  0  0  0  0
  5  1  1  6  0  0  0
  5  8  1  0  0  0  0
  6 17  2  0  0  0  0
  6 12  1  0  0  0  0
  8  7  1  1  0  0  0
  8 11  1  0  0  0  0
  9 19  1  0  0  0  0
 11 10  1  1  0  0  0
 12 20  2  0  0  0  0
 12 19  1  0  0  0  0
 13 20  1  0  0  0  0
 14 15  1  0  0  0  0
 18 19  2  0  0  0  0
M  CHG  1  21  -1
M  END
>  <CHROM.1>
46.38329211,-47.00080949,68.30240942,175.45564396,-117.03759063,29.94055178
-3.42028991,106.95068707,-1.68346054,-0.66542035,-0.61445177

>  <Name>
ligand

>  <RI>
0

>  <Rbt.Current_Directory>
/home/itssahil/PROJECTS/Mol_Feturizer/New_Systems/rnas/4XW7

>  <Rbt.Executable>
rbdock ($Id: //depot/dev/client3/rdock/2013.1/src/exe/rbdock.cxx#4 $)

>  <Rbt.Library>
libRbt.so (2013.1, Build901 2013/11/27)

>  <Rbt.Parameter_File>
/export/apps/rDock/src/rDock_2013.1_src/data/scripts/dock_solv.prm

>  <Rbt.Receptor>
prm/pocket_docking_5.prm

>  <SCORE>
-7.93333

>  <SCORE.INTER>
-7.31792

>  <SCORE.INTER.CONST>
1

>  <SCORE.INTER.POLAR>
0

>  <SCORE.INTER.ROT>
5

>  <SCORE.INTER.SOLV>
10.3411

>  <SCORE.INTER.VDW>
-15.259

>  <SCORE.INTER.norm>
-0.332633

>  <SCORE.INTRA>
-0.615414

>  <SCORE.INTRA.DIHEDRAL>
-0.32429

>  <SCORE.INTRA.DIHEDRAL.0>
2.61549

>  <SCORE.INTRA.POLAR>
0

>  <SCORE.INTRA.POLAR.0>
0

>  <SCORE.INTRA.REPUL>
0

>  <SCORE.INTRA.REPUL.0>
0

>  <SCORE.INTRA.SOLV>
0.986078

>  <SCORE.INTRA.SOLV.lig_0>
-73.766

>  <SCORE.INTRA.VDW>
-0.946309

>  <SCORE.INTRA.VDW.0>
-1.95055

>  <SCORE.INTRA.norm>
-0.0279734

>  <SCORE.RESTR>
0

>  <SCORE.RESTR.CAVITY>
0

>  <SCORE.RESTR.norm>
0

>  <SCORE.SYSTEM>
0

>  <SCORE.SYSTEM.CONST>
0

>  <SCORE.SYSTEM.DIHEDRAL>
0

>  <SCORE.SYSTEM.SOLV>
0

>  <SCORE.SYSTEM.norm>
0

>  <SCORE.heavy>
22

>  <SCORE.norm>
-0.360606

>  <RMSD>
6.280

$$$$
ligand
 OpenBabel11021811513D
libRbt.so/2013.1/901 2013/11/27
 22 23  0  0  0  0  0  0  0  0999 V2000
   28.3247   -3.6385  106.3541 N   0  0  0  0  0  0  0  0  0  0  0  0
   29.9393   -0.8075  105.3111 C   0  0  1  0  0  0  0  0  0  0  0  0
   29.4117   -2.1246  104.9263 O   0  0  0  0  0  0  0  0  0  0  0  0
   32.3357   -2.4572  107.7866 P   0  0  2  0  0  0  0  0  0  0  0  0
   28.2368   -2.3793  105.7515 C   0  0  2  0  0  0  0  0  0  0  0  0
   29.0980   -5.3487  107.4895 N   0  0  0  0  0  0  0  0  0  0  0  0
   26.8503   -0.9525  107.0778 O   0  0  0  0  0  0  0  0  0  0  0  0
   28.2053   -1.3201  106.7792 C   0  0  2  0  0  0  0  0  0  0  0  0
   26.7276   -7.7446  106.2181 N   0  0  0  0  0  0  0  0  0  0  0  0
   28.0163    0.6015  105.3955 O   0  0  0  0  0  0  0  0  0  0  0  0
   28.9302   -0.1920  106.1842 C   0  0  2  0  0  0  0  0  0  0  0  0
   27.8662   -5.6718  107.0498 C   0  0  0  0  0  0  0  0  0  0  0  0
   26.0958   -4.5192  105.6886 N   0  0  0  0  0  0  0  0  0  0  0  0
   31.0787   -2.0189  106.9668 O   0  0  0  0  0  0  0  0  0  0  0  0
   31.2129   -0.9731  106.0536 C   0  0  0  0  0  0  0  0  0  0  0  0
   32.3030   -4.0250  108.0291 O   0  0  0  0  0  0  0  0  0  0  0  0
   29.3648   -4.0948  107.0530 C   0  0  0  0  0  0  0  0  0  0  0  0
   26.9676   -7.3486  108.4483 O   0  0  0  0  0  0  0  0  0  0  0  0
   27.1647   -6.9708  107.2962 C   0  0  0  0  0  0  0  0  0  0  0  0
   27.3640   -4.5990  106.3274 C   0  0  0  0  0  0  0  0  0  0  0  0
   32.4262   -1.7198  109.0670 O   0  5  0  0  0  0  0  0  0  0  0  0
   33.5949   -2.0490  107.1070 O   0  0  0  0  0  0  0  0  0  0  0  0
  1 17  1  0  0  0  0
  1 20  1  0  0  0  0
  2 15  1  1  0  0  0
  2  3  1  0  0  0  0
  2 11  1  0  0  0  0
  3  5  1  0  0  0  0
  4 16  1  1  0  0  0
  4 21  1  0  0  0  0
  4 22  2  0  0  0  0
  4 14  1  0  0  0  0
  5  1  1  1  0  0  0
  5  8  1  0  0  0  0
  6 17  2  0  0  0  0
  6 12  1  0  0  0  0
  8  7  1  6  0  0  0
  8 11  1  0  0  0  0
  9 19  1  0  0  0  0
 11 10  1  6  0  0  0
 12 20  2  0  0  0  0
 12 19  1  0  0  0  0
 13 20  1  0  0  0  0
 14 15  1  0  0  0  0
 18 19  2  0  0  0  0
M  CHG  1  21  -1
M  END
>  <CHROM.1>
51.25866026,-43.31536278,-145.41119698,175.10394318,-122.60542228,29.40180072
-3.09604562,106.82026410,2.38151846,0.32255069,2.84199332

>  <Name>
ligand

>  <RI>
0

>  <Rbt.Current_Directory>
/home/itssahil/PROJECTS/Mol_Feturizer/New_Systems/rnas/4XW7

>  <Rbt.Executable>
rbdock ($Id: //depot/dev/client3/rdock/2013.1/src/exe/rbdock.cxx#4 $)

>  <Rbt.Library>
libRbt.so (2013.1, Build901 2013/11/27)

>  <Rbt.Parameter_File>
/export/apps/rDock/src/rDock_2013.1_src/data/scripts/dock_solv.prm

>  <Rbt.Receptor>
prm/pocket_docking_3.prm

>  <SCORE>
-4.45299

>  <SCORE.INTER>
-5.06755

>  <SCORE.INTER.CONST>
1

>  <SCORE.INTER.POLAR>
0

>  <SCORE.INTER.ROT>
5

>  <SCORE.INTER.SOLV>
11.7047

>  <SCORE.INTER.VDW>
-14.2133

>  <SCORE.INTER.norm>
-0.230343

>  <SCORE.INTRA>
0.613029

>  <SCORE.INTRA.DIHEDRAL>
1.40219

>  <SCORE.INTRA.DIHEDRAL.0>
2.61549

>  <SCORE.INTRA.POLAR>
0

>  <SCORE.INTRA.POLAR.0>
0

>  <SCORE.INTRA.REPUL>
0

>  <SCORE.INTRA.REPUL.0>
0

>  <SCORE.INTRA.SOLV>
0.73443

>  <SCORE.INTRA.SOLV.lig_0>
-73.766

>  <SCORE.INTRA.VDW>
-0.455282

>  <SCORE.INTRA.VDW.0>
-1.95055

>  <SCORE.INTRA.norm>
0.0278649

>  <SCORE.RESTR>
0.00153434

>  <SCORE.RESTR.CAVITY>
0.00153434

>  <SCORE.RESTR.norm>
6.97425e-05

>  <SCORE.SYSTEM>
0

>  <SCORE.SYSTEM.CONST>
0

>  <SCORE.SYSTEM.DIHEDRAL>
0

>  <SCORE.SYSTEM.SOLV>
0

>  <SCORE.SYSTEM.norm>
0

>  <SCORE.heavy>
22

>  <SCORE.norm>
-0.202409

>  <RMSD>
6.286

$$$$
ligand
 OpenBabel11021811513D
libRbt.so/2013.1/901 2013/11/27
 22 23  0  0  0  0  0  0  0  0999 V2000
   30.2471   -4.1646  108.0980 N   0  0  0  0  0  0  0  0  0  0  0  0
   30.9310   -0.8537  107.5692 C   0  0  1  0  0  0  0  0  0  0  0  0
   30.2792   -1.8422  108.4405 O   0  0  0  0  0  0  0  0  0  0  0  0
   28.7783   -1.8871  104.5879 P   0  0  2  0  0  0  0  0  0  0  0  0
   31.0683   -3.0665  108.3741 C   0  0  2  0  0  0  0  0  0  0  0  0
   28.6700   -5.4102  107.2188 N   0  0  0  0  0  0  0  0  0  0  0  0
   33.2915   -3.5202  107.6198 O   0  0  0  0  0  0  0  0  0  0  0  0
   32.0518   -2.8763  107.2898 C   0  0  2  0  0  0  0  0  0  0  0  0
   28.0142   -8.2670  107.7742 N   0  0  0  0  0  0  0  0  0  0  0  0
   33.2450   -1.0017  108.1297 O   0  0  0  0  0  0  0  0  0  0  0  0
   32.2315   -1.4237  107.1907 C   0  0  2  0  0  0  0  0  0  0  0  0
   29.3463   -6.1689  108.1030 C   0  0  0  0  0  0  0  0  0  0  0  0
   31.2923   -5.8028  109.6506 N   0  0  0  0  0  0  0  0  0  0  0  0
   29.7556   -1.8655  105.8080 O   0  0  0  0  0  0  0  0  0  0  0  0
   30.1070   -0.6318  106.3557 C   0  0  0  0  0  0  0  0  0  0  0  0
   28.2873   -3.3711  104.3150 O   0  0  0  0  0  0  0  0  0  0  0  0
   29.2368   -4.1803  107.2277 C   0  0  0  0  0  0  0  0  0  0  0  0
   29.7398   -8.1898  109.2590 O   0  0  0  0  0  0  0  0  0  0  0  0
   29.0594   -7.6029  108.4214 C   0  0  0  0  0  0  0  0  0  0  0  0
   30.3475   -5.3933  108.6695 C   0  0  0  0  0  0  0  0  0  0  0  0
   29.4096   -1.3026  103.3833 O   0  5  0  0  0  0  0  0  0  0  0  0
   27.6230   -0.9744  104.8031 O   0  0  0  0  0  0  0  0  0  0  0  0
  1 17  1  0  0  0  0
  1 20  1  0  0  0  0
  2 15  1  6  0  0  0
  2  3  1  0  0  0  0
  2 11  1  0  0  0  0
  3  5  1  0  0  0  0
  4 16  1  6  0  0  0
  4 21  1  0  0  0  0
  4 22  2  0  0  0  0
  4 14  1  0  0  0  0
  5  1  1  6  0  0  0
  5  8  1  0  0  0  0
  6 17  2  0  0  0  0
  6 12  1  0  0  0  0
  8  7  1  1  0  0  0
  8 11  1  0  0  0  0
  9 19  1  0  0  0  0
 11 10  1  1  0  0  0
 12 20  2  0  0  0  0
 12 19  1  0  0  0  0
 13 20  1  0  0  0  0
 14 15  1  0  0  0  0
 18 19  2  0  0  0  0
M  CHG  1  21  -1
M  END
>  <CHROM.1>
40.97167754,-48.79883233,-168.62337597,174.72984222,0.20887377,30.06842712
-3.46044499,106.99836804,-1.59952741,-0.66011412,-0.53217865

>  <Name>
ligand

>  <RI>
0

>  <Rbt.Current_Directory>
/home/itssahil/PROJECTS/Mol_Feturizer/New_Systems/rnas/4XW7

>  <Rbt.Executable>
rbdock ($Id: //depot/dev/client3/rdock/2013.1/src/exe/rbdock.cxx#4 $)

>  <Rbt.Library>
libRbt.so (2013.1, Build901 2013/11/27)

>  <Rbt.Parameter_File>
/export/apps/rDock/src/rDock_2013.1_src/data/scripts/dock_solv.prm

>  <Rbt.Receptor>
prm/pocket_docking_5.prm

>  <SCORE>
-6.41474

>  <SCORE.INTER>
-6.03434

>  <SCORE.INTER.CONST>
1

>  <SCORE.INTER.POLAR>
0

>  <SCORE.INTER.ROT>
5

>  <SCORE.INTER.SOLV>
13.8702

>  <SCORE.INTER.VDW>
-15.5796

>  <SCORE.INTER.norm>
-0.274288

>  <SCORE.INTRA>
-0.380398

>  <SCORE.INTRA.DIHEDRAL>
-0.354427

>  <SCORE.INTRA.DIHEDRAL.0>
2.61549

>  <SCORE.INTRA.POLAR>
0

>  <SCORE.INTRA.POLAR.0>
0

>  <SCORE.INTRA.REPUL>
0

>  <SCORE.INTRA.REPUL.0>
0

>  <SCORE.INTRA.SOLV>
1.11022

>  <SCORE.INTRA.SOLV.lig_0>
-73.766

>  <SCORE.INTRA.VDW>
-0.758297

>  <SCORE.INTRA.VDW.0>
-1.95055

>  <SCORE.INTRA.norm>
-0.0172908

>  <SCORE.RESTR>
0

>  <SCORE.RESTR.CAVITY>
0

>  <SCORE.RESTR.norm>
0

>  <SCORE.SYSTEM>
0

>  <SCORE.SYSTEM.CONST>
0

>  <SCORE.SYSTEM.DIHEDRAL>
0

>  <SCORE.SYSTEM.SOLV>
0

>  <SCORE.SYSTEM.norm>
0

>  <SCORE.heavy>
22

>  <SCORE.norm>
-0.291579

>  <RMSD>
6.286

$$$$
ligand
 OpenBabel11021811513D
libRbt.so/2013.1/901 2013/11/27
 22 23  0  0  0  0  0  0  0  0999 V2000
   28.3562   -3.4835  106.2522 N   0  0  0  0  0  0  0  0  0  0  0  0
   30.4524   -0.8322  105.7173 C   0  0  1  0  0  0  0  0  0  0  0  0
   29.7740   -1.9925  105.1215 O   0  0  0  0  0  0  0  0  0  0  0  0
   32.4369   -3.2321  107.9325 P   0  0  2  0  0  0  0  0  0  0  0  0
   28.5065   -2.1610  105.8223 C   0  0  2  0  0  0  0  0  0  0  0  0
   28.6975   -5.3767  107.3063 N   0  0  0  0  0  0  0  0  0  0  0  0
   27.2318   -0.7112  107.2330 O   0  0  0  0  0  0  0  0  0  0  0  0
   28.5396   -1.2461  106.9802 C   0  0  2  0  0  0  0  0  0  0  0  0
   25.4465   -6.7722  106.7911 N   0  0  0  0  0  0  0  0  0  0  0  0
   28.7558    0.8385  105.8616 O   0  0  0  0  0  0  0  0  0  0  0  0
   29.4710   -0.1800  106.5953 C   0  0  2  0  0  0  0  0  0  0  0  0
   27.6090   -5.5315  106.5278 C   0  0  0  0  0  0  0  0  0  0  0  0
   26.3343   -4.0713  104.9282 N   0  0  0  0  0  0  0  0  0  0  0  0
   31.3623   -2.5630  107.0149 O   0  0  0  0  0  0  0  0  0  0  0  0
   31.6177   -1.2859  106.5154 C   0  0  0  0  0  0  0  0  0  0  0  0
   32.1343   -4.7831  108.0766 O   0  0  0  0  0  0  0  0  0  0  0  0
   29.1449   -4.1115  107.1252 C   0  0  0  0  0  0  0  0  0  0  0  0
   27.3076   -7.8099  105.9861 O   0  0  0  0  0  0  0  0  0  0  0  0
   26.7908   -6.7793  106.4101 C   0  0  0  0  0  0  0  0  0  0  0  0
   27.3811   -4.3412  105.8525 C   0  0  0  0  0  0  0  0  0  0  0  0
   32.4978   -2.5737  109.2569 O   0  5  0  0  0  0  0  0  0  0  0  0
   33.8119   -3.0033  107.4118 O   0  0  0  0  0  0  0  0  0  0  0  0
  1 17  1  0  0  0  0
  1 20  1  0  0  0  0
  2 15  1  1  0  0  0
  2  3  1  0  0  0  0
  2 11  1  0  0  0  0
  3  5  1  0  0  0  0
  4 16  1  1  0  0  0
  4 21  1  0  0  0  0
  4 22  2  0  0  0  0
  4 14  1  0  0  0  0
  5  1  1  1  0  0  0
  5  8  1  0  0  0  0
  6 17  2  0  0  0  0
  6 12  1  0  0  0  0
  8  7  1  6  0  0  0
  8 11  1  0  0  0  0
  9 19  1  0  0  0  0
 11 10  1  6  0  0  0
 12 20  2  0  0  0  0
 12 19  1  0  0  0  0
 13 20  1  0  0  0  0
 14 15  1  0  0  0  0
 18 19  2  0  0  0  0
M  CHG  1  21  -1
M  END
>  <CHROM.1>
62.67565909,-29.47550066,-165.42202120,-177.98897157,117.74867744,29.51188857
-3.22842755,106.75926025,2.52707881,0.33300586,2.98348374

>  <Name>
ligand

>  <RI>
0

>  <Rbt.Current_Directory>
/home/itssahil/PROJECTS/Mol_Feturizer/New_Systems/rnas/4XW7

>  <Rbt.Executable>
rbdock ($Id: //depot/dev/client3/rdock/2013.1/src/exe/rbdock.cxx#4 $)

>  <Rbt.Library>
libRbt.so (2013.1, Build901 2013/11/27)

>  <Rbt.Parameter_File>
/export/apps/rDock/src/rDock_2013.1_src/data/scripts/dock_solv.prm

>  <Rbt.Receptor>
prm/pocket_docking_5.prm

>  <SCORE>
-4.79126

>  <SCORE.INTER>
-5.45831

>  <SCORE.INTER.CONST>
1

>  <SCORE.INTER.POLAR>
0

>  <SCORE.INTER.ROT>
5

>  <SCORE.INTER.SOLV>
13.8368

>  <SCORE.INTER.VDW>
-15.1845

>  <SCORE.INTER.norm>
-0.248105

>  <SCORE.INTRA>
0.66705

>  <SCORE.INTRA.DIHEDRAL>
1.92217

>  <SCORE.INTRA.DIHEDRAL.0>
2.61549

>  <SCORE.INTRA.POLAR>
0

>  <SCORE.INTRA.POLAR.0>
0

>  <SCORE.INTRA.REPUL>
0

>  <SCORE.INTRA.REPUL.0>
0

>  <SCORE.INTRA.SOLV>
0.43212

>  <SCORE.INTRA.SOLV.lig_0>
-73.766

>  <SCORE.INTRA.VDW>
-0.510095

>  <SCORE.INTRA.VDW.0>
-1.95055

>  <SCORE.INTRA.norm>
0.0303204

>  <SCORE.RESTR>
0

>  <SCORE.RESTR.CAVITY>
0

>  <SCORE.RESTR.norm>
0

>  <SCORE.SYSTEM>
0

>  <SCORE.SYSTEM.CONST>
0

>  <SCORE.SYSTEM.DIHEDRAL>
0

>  <SCORE.SYSTEM.SOLV>
0

>  <SCORE.SYSTEM.norm>
0

>  <SCORE.heavy>
22

>  <SCORE.norm>
-0.217784

>  <RMSD>
6.306

$$$$
ligand
 OpenBabel11021811513D
libRbt.so/2013.1/901 2013/11/27
 22 23  0  0  0  0  0  0  0  0999 V2000
   29.5257   -3.8722  107.9043 N   0  0  0  0  0  0  0  0  0  0  0  0
   30.7880   -0.7643  107.2282 C   0  0  1  0  0  0  0  0  0  0  0  0
   29.9058   -1.5630  108.0913 O   0  0  0  0  0  0  0  0  0  0  0  0
   28.6861   -1.6609  104.1668 P   0  0  2  0  0  0  0  0  0  0  0  0
   30.4867   -2.8968  108.1899 C   0  0  2  0  0  0  0  0  0  0  0  0
   28.1239   -5.1460  106.7979 N   0  0  0  0  0  0  0  0  0  0  0  0
   32.6654   -3.7532  107.7036 O   0  0  0  0  0  0  0  0  0  0  0  0
   31.5836   -2.9533  107.2037 C   0  0  2  0  0  0  0  0  0  0  0  0
   26.1951   -6.2535  109.5850 N   0  0  0  0  0  0  0  0  0  0  0  0
   32.9850   -1.2249  108.0355 O   0  0  0  0  0  0  0  0  0  0  0  0
   32.0069   -1.5599  107.0264 C   0  0  2  0  0  0  0  0  0  0  0  0
   28.0673   -5.5047  108.0953 C   0  0  0  0  0  0  0  0  0  0  0  0
   29.2000   -4.7509  110.2082 N   0  0  0  0  0  0  0  0  0  0  0  0
   29.5408   -1.7019  105.4753 O   0  0  0  0  0  0  0  0  0  0  0  0
   30.1267   -0.5180  105.9233 C   0  0  0  0  0  0  0  0  0  0  0  0
   27.7048   -0.4144  104.2012 O   0  0  0  0  0  0  0  0  0  0  0  0
   29.0257   -4.1408  106.6975 C   0  0  0  0  0  0  0  0  0  0  0  0
   27.3703   -7.7483  108.3308 O   0  0  0  0  0  0  0  0  0  0  0  0
   27.1960   -6.5795  108.6662 C   0  0  0  0  0  0  0  0  0  0  0  0
   28.9486   -4.7056  108.8091 C   0  0  0  0  0  0  0  0  0  0  0  0
   27.9394   -2.9242  103.9728 O   0  5  0  0  0  0  0  0  0  0  0  0
   29.5506   -1.6256  102.9562 O   0  0  0  0  0  0  0  0  0  0  0  0
  1 17  1  0  0  0  0
  1 20  1  0  0  0  0
  2 15  1  6  0  0  0
  2  3  1  0  0  0  0
  2 11  1  0  0  0  0
  3  5  1  0  0  0  0
  4 16  1  1  0  0  0
  4 21  1  0  0  0  0
  4 22  2  0  0  0  0
  4 14  1  0  0  0  0
  5  1  1  6  0  0  0
  5  8  1  0  0  0  0
  6 17  2  0  0  0  0
  6 12  1  0  0  0  0
  8  7  1  1  0  0  0
  8 11  1  0  0  0  0
  9 19  1  0  0  0  0
 11 10  1  1  0  0  0
 12 20  2  0  0  0  0
 12 19  1  0  0  0  0
 13 20  1  0  0  0  0
 14 15  1  0  0  0  0
 18 19  2  0  0  0  0
M  CHG  1  21  -1
M  END
>  <CHROM.1>
72.36508792,-44.27422416,-45.83102033,175.29227327,-116.10585601,29.41779365
-3.13618417,106.83325216,-1.95898320,-0.58392176,-0.87434980

>  <Name>
ligand

>  <RI>
0

>  <Rbt.Current_Directory>
/home/itssahil/PROJECTS/Mol_Feturizer/New_Systems/rnas/4XW7

>  <Rbt.Executable>
rbdock ($Id: //depot/dev/client3/rdock/2013.1/src/exe/rbdock.cxx#4 $)

>  <Rbt.Library>
libRbt.so (2013.1, Build901 2013/11/27)

>  <Rbt.Parameter_File>
/export/apps/rDock/src/rDock_2013.1_src/data/scripts/dock_solv.prm

>  <Rbt.Receptor>
prm/pocket_docking_4.prm

>  <SCORE>
-4.80993

>  <SCORE.INTER>
-4.34434

>  <SCORE.INTER.CONST>
1

>  <SCORE.INTER.POLAR>
0

>  <SCORE.INTER.ROT>
5

>  <SCORE.INTER.SOLV>
13.3039

>  <SCORE.INTER.VDW>
-14.2642

>  <SCORE.INTER.norm>
-0.19747

>  <SCORE.INTRA>
-0.465595

>  <SCORE.INTRA.DIHEDRAL>
0.153641

>  <SCORE.INTRA.DIHEDRAL.0>
2.61549

>  <SCORE.INTRA.POLAR>
0

>  <SCORE.INTRA.POLAR.0>
0

>  <SCORE.INTRA.REPUL>
0

>  <SCORE.INTRA.REPUL.0>
0

>  <SCORE.INTRA.SOLV>
0.195837

>  <SCORE.INTRA.SOLV.lig_0>
-73.766

>  <SCORE.INTRA.VDW>
-0.640334

>  <SCORE.INTRA.VDW.0>
-1.95055

>  <SCORE.INTRA.norm>
-0.0211634

>  <SCORE.RESTR>
0

>  <SCORE.RESTR.CAVITY>
0

>  <SCORE.RESTR.norm>
0

>  <SCORE.SYSTEM>
0

>  <SCORE.SYSTEM.CONST>
0

>  <SCORE.SYSTEM.DIHEDRAL>
0

>  <SCORE.SYSTEM.SOLV>
0

>  <SCORE.SYSTEM.norm>
0

>  <SCORE.heavy>
22

>  <SCORE.norm>
-0.218633

>  <RMSD>
6.339

$$$$
ligand
 OpenBabel11021811513D
libRbt.so/2013.1/901 2013/11/27
 22 23  0  0  0  0  0  0  0  0999 V2000
   32.0332   -0.9314  108.7699 N   0  0  0  0  0  0  0  0  0  0  0  0
   32.9190   -4.1832  108.1772 C   0  0  1  0  0  0  0  0  0  0  0  0
   32.8832   -2.8114  107.6496 O   0  0  0  0  0  0  0  0  0  0  0  0
   29.1170   -4.2641  108.5388 P   0  0  2  0  0  0  0  0  0  0  0  0
   33.0359   -1.9066  108.7827 C   0  0  2  0  0  0  0  0  0  0  0  0
   30.3272    0.2855  108.1216 N   0  0  0  0  0  0  0  0  0  0  0  0
   33.8056   -2.2335  111.0228 O   0  0  0  0  0  0  0  0  0  0  0  0
   32.9309   -2.7340  110.0007 C   0  0  2  0  0  0  0  0  0  0  0  0
   30.8990    2.8223  110.7092 N   0  0  0  0  0  0  0  0  0  0  0  0
   34.7753   -4.1953  109.6753 O   0  0  0  0  0  0  0  0  0  0  0  0
   33.3384   -4.0796  109.5817 C   0  0  2  0  0  0  0  0  0  0  0  0
   30.7175    0.7372  109.3293 C   0  0  0  0  0  0  0  0  0  0  0  0
   32.5161    0.1192  110.9720 N   0  0  0  0  0  0  0  0  0  0  0  0
   30.6331   -3.8912  108.6203 O   0  0  0  0  0  0  0  0  0  0  0  0
   31.5664   -4.7875  108.0995 C   0  0  0  0  0  0  0  0  0  0  0  0
   28.8614   -5.6499  109.2682 O   0  0  0  0  0  0  0  0  0  0  0  0
   31.1467   -0.7410  107.7920 C   0  0  0  0  0  0  0  0  0  0  0  0
   28.8685    1.9548  110.1501 O   0  0  0  0  0  0  0  0  0  0  0  0
   30.0920    1.8705  110.0808 C   0  0  0  0  0  0  0  0  0  0  0  0
   31.7984   -0.0226  109.7524 C   0  0  0  0  0  0  0  0  0  0  0  0
   28.6481   -4.3041  107.1353 O   0  5  0  0  0  0  0  0  0  0  0  0
   28.2634   -3.1915  109.1177 O   0  0  0  0  0  0  0  0  0  0  0  0
  1 17  1  0  0  0  0
  1 20  1  0  0  0  0
  2 15  1  1  0  0  0
  2  3  1  0  0  0  0
  2 11  1  0  0  0  0
  3  5  1  0  0  0  0
  4 16  1  1  0  0  0
  4 21  1  0  0  0  0
  4 22  2  0  0  0  0
  4 14  1  0  0  0  0
  5  1  1  1  0  0  0
  5  8  1  0  0  0  0
  6 17  2  0  0  0  0
  6 12  1  0  0  0  0
  8  7  1  1  0  0  0
  8 11  1  0  0  0  0
  9 19  1  0  0  0  0
 11 10  1  6  0  0  0
 12 20  2  0  0  0  0
 12 19  1  0  0  0  0
 13 20  1  0  0  0  0
 14 15  1  0  0  0  0
 18 19  2  0  0  0  0
M  CHG  1  21  -1
M  END
>  <CHROM.1>
-7.18407886,-48.09798469,57.52891672,175.15769113,-136.14574441,31.17751998
-2.13298773,109.11505722,-1.57035911,0.19290157,-2.90582810

>  <Name>
ligand

>  <RI>
0

>  <Rbt.Current_Directory>
/home/itssahil/PROJECTS/Mol_Feturizer/New_Systems/rnas/4XW7

>  <Rbt.Executable>
rbdock ($Id: //depot/dev/client3/rdock/2013.1/src/exe/rbdock.cxx#4 $)

>  <Rbt.Library>
libRbt.so (2013.1, Build901 2013/11/27)

>  <Rbt.Parameter_File>
/export/apps/rDock/src/rDock_2013.1_src/data/scripts/dock_solv.prm

>  <Rbt.Receptor>
prm/pocket_docking_6.prm

>  <SCORE>
-3.89815

>  <SCORE.INTER>
-4.34626

>  <SCORE.INTER.CONST>
1

>  <SCORE.INTER.POLAR>
0

>  <SCORE.INTER.ROT>
5

>  <SCORE.INTER.SOLV>
12.5768

>  <SCORE.INTER.VDW>
-14.0231

>  <SCORE.INTER.norm>
-0.197557

>  <SCORE.INTRA>
0.44653

>  <SCORE.INTRA.DIHEDRAL>
-0.230544

>  <SCORE.INTRA.DIHEDRAL.0>
2.61549

>  <SCORE.INTRA.POLAR>
0

>  <SCORE.INTRA.POLAR.0>
0

>  <SCORE.INTRA.REPUL>
0

>  <SCORE.INTRA.REPUL.0>
0

>  <SCORE.INTRA.SOLV>
2.2169

>  <SCORE.INTRA.SOLV.lig_0>
-73.766

>  <SCORE.INTRA.VDW>
-0.54665

>  <SCORE.INTRA.VDW.0>
-1.95055

>  <SCORE.INTRA.norm>
0.0202968

>  <SCORE.RESTR>
0.00158272

>  <SCORE.RESTR.CAVITY>
0.00158272

>  <SCORE.RESTR.norm>
7.19419e-05

>  <SCORE.SYSTEM>
0

>  <SCORE.SYSTEM.CONST>
0

>  <SCORE.SYSTEM.DIHEDRAL>
0

>  <SCORE.SYSTEM.SOLV>
0

>  <SCORE.SYSTEM.norm>
0

>  <SCORE.heavy>
22

>  <SCORE.norm>
-0.177188

>  <RMSD>
6.344

$$$$
ligand
 OpenBabel11021811513D
libRbt.so/2013.1/901 2013/11/27
 22 23  0  0  0  0  0  0  0  0999 V2000
   28.4853   -3.6780  106.5747 N   0  0  0  0  0  0  0  0  0  0  0  0
   30.1622   -0.8517  105.6206 C   0  0  1  0  0  0  0  0  0  0  0  0
   29.6005   -2.1415  105.1935 O   0  0  0  0  0  0  0  0  0  0  0  0
   32.4512   -2.4476  108.2322 P   0  0  2  0  0  0  0  0  0  0  0  0
   28.4246   -2.3966  106.0170 C   0  0  2  0  0  0  0  0  0  0  0  0
   29.2240   -5.4456  107.6432 N   0  0  0  0  0  0  0  0  0  0  0  0
   27.0807   -0.9844  107.4015 O   0  0  0  0  0  0  0  0  0  0  0  0
   28.4246   -1.3738  107.0813 C   0  0  2  0  0  0  0  0  0  0  0  0
   27.8730   -8.0707  108.0739 N   0  0  0  0  0  0  0  0  0  0  0  0
   28.2744    0.5993  105.7669 O   0  0  0  0  0  0  0  0  0  0  0  0
   29.1733   -0.2432  106.5213 C   0  0  2  0  0  0  0  0  0  0  0  0
   27.9812   -5.7224  107.2029 C   0  0  0  0  0  0  0  0  0  0  0  0
   26.2301   -4.4792  105.8976 N   0  0  0  0  0  0  0  0  0  0  0  0
   31.2419   -2.0525  107.3234 O   0  0  0  0  0  0  0  0  0  0  0  0
   31.4356   -1.0739  106.3485 C   0  0  0  0  0  0  0  0  0  0  0  0
   33.6618   -2.9446  107.3348 O   0  0  0  0  0  0  0  0  0  0  0  0
   29.5189   -4.1842  107.2485 C   0  0  0  0  0  0  0  0  0  0  0  0
   26.1029   -7.1367  106.9862 O   0  0  0  0  0  0  0  0  0  0  0  0
   27.2492   -7.0114  107.4098 C   0  0  0  0  0  0  0  0  0  0  0  0
   27.5007   -4.6128  106.5226 C   0  0  0  0  0  0  0  0  0  0  0  0
   32.0642   -3.4751  109.2250 O   0  5  0  0  0  0  0  0  0  0  0  0
   32.8645   -1.3162  109.1058 O   0  0  0  0  0  0  0  0  0  0  0  0
  1 17  1  0  0  0  0
  1 20  1  0  0  0  0
  2 15  1  1  0  0  0
  2  3  1  0  0  0  0
  2 11  1  0  0  0  0
  3  5  1  0  0  0  0
  4 16  1  6  0  0  0
  4 21  1  0  0  0  0
  4 22  2  0  0  0  0
  4 14  1  0  0  0  0
  5  1  1  1  0  0  0
  5  8  1  0  0  0  0
  6 17  2  0  0  0  0
  6 12  1  0  0  0  0
  8  7  1  6  0  0  0
  8 11  1  0  0  0  0
  9 19  1  0  0  0  0
 11 10  1  6  0  0  0
 12 20  2  0  0  0  0
 12 19  1  0  0  0  0
 13 20  1  0  0  0  0
 14 15  1  0  0  0  0
 18 19  2  0  0  0  0
M  CHG  1  21  -1
M  END
>  <CHROM.1>
51.14395127,-49.49940239,-57.55607567,-179.44665009,-2.14908085,29.55301363
-3.12207946,107.11469871,2.41178011,0.35532594,2.86018759

>  <Name>
ligand

>  <RI>
0

>  <Rbt.Current_Directory>
/home/itssahil/PROJECTS/Mol_Feturizer/New_Systems/rnas/4XW7

>  <Rbt.Executable>
rbdock ($Id: //depot/dev/client3/rdock/2013.1/src/exe/rbdock.cxx#4 $)

>  <Rbt.Library>
libRbt.so (2013.1, Build901 2013/11/27)

>  <Rbt.Parameter_File>
/export/apps/rDock/src/rDock_2013.1_src/data/scripts/dock_solv.prm

>  <Rbt.Receptor>
prm/pocket_docking_3.prm

>  <SCORE>
-6.42243

>  <SCORE.INTER>
-5.64747

>  <SCORE.INTER.CONST>
1

>  <SCORE.INTER.POLAR>
0

>  <SCORE.INTER.ROT>
5

>  <SCORE.INTER.SOLV>
7.53242

>  <SCORE.INTER.VDW>
-13.2091

>  <SCORE.INTER.norm>
-0.256703

>  <SCORE.INTRA>
-0.774984

>  <SCORE.INTRA.DIHEDRAL>
-0.727593

>  <SCORE.INTRA.DIHEDRAL.0>
2.61549

>  <SCORE.INTRA.POLAR>
0

>  <SCORE.INTRA.POLAR.0>
0

>  <SCORE.INTRA.REPUL>
0

>  <SCORE.INTRA.REPUL.0>
0

>  <SCORE.INTRA.SOLV>
0.686268

>  <SCORE.INTRA.SOLV.lig_0>
-73.766

>  <SCORE.INTRA.VDW>
-0.754322

>  <SCORE.INTRA.VDW.0>
-1.95055

>  <SCORE.INTRA.norm>
-0.0352266

>  <SCORE.RESTR>
2.47152e-05

>  <SCORE.RESTR.CAVITY>
2.47152e-05

>  <SCORE.RESTR.norm>
1.12342e-06

>  <SCORE.SYSTEM>
0

>  <SCORE.SYSTEM.CONST>
0

>  <SCORE.SYSTEM.DIHEDRAL>
0

>  <SCORE.SYSTEM.SOLV>
0

>  <SCORE.SYSTEM.norm>
0

>  <SCORE.heavy>
22

>  <SCORE.norm>
-0.291929

>  <RMSD>
6.345

$$$$
ligand
 OpenBabel11021811513D
libRbt.so/2013.1/901 2013/11/27
 22 23  0  0  0  0  0  0  0  0999 V2000
   28.2440   -3.3923  106.0351 N   0  0  0  0  0  0  0  0  0  0  0  0
   30.1480   -0.6713  105.2101 C   0  0  1  0  0  0  0  0  0  0  0  0
   29.5682   -1.9413  104.7494 O   0  0  0  0  0  0  0  0  0  0  0  0
   32.0832   -2.3288  108.0587 P   0  0  2  0  0  0  0  0  0  0  0  0
   28.3040   -2.1218  105.4532 C   0  0  2  0  0  0  0  0  0  0  0  0
   28.7695   -5.1602  107.2227 N   0  0  0  0  0  0  0  0  0  0  0  0
   26.9001   -0.6170  106.6705 O   0  0  0  0  0  0  0  0  0  0  0  0
   28.2482   -1.0775  106.4950 C   0  0  2  0  0  0  0  0  0  0  0  0
   26.5196   -7.4389  105.6197 N   0  0  0  0  0  0  0  0  0  0  0  0
   28.3303    0.8718  105.1398 O   0  0  0  0  0  0  0  0  0  0  0  0
   29.1052    0.0033  105.9955 C   0  0  2  0  0  0  0  0  0  0  0  0
   27.5880   -5.4053  106.6234 C   0  0  0  0  0  0  0  0  0  0  0  0
   26.0731   -4.1332  105.0735 N   0  0  0  0  0  0  0  0  0  0  0  0
   30.9910   -1.8906  107.0294 O   0  0  0  0  0  0  0  0  0  0  0  0
   31.3289   -0.9390  106.0672 C   0  0  0  0  0  0  0  0  0  0  0  0
   33.3973   -2.7807  107.2927 O   0  0  0  0  0  0  0  0  0  0  0  0
   29.1592   -3.9178  106.8504 C   0  0  0  0  0  0  0  0  0  0  0  0
   26.3663   -7.0098  107.8515 O   0  0  0  0  0  0  0  0  0  0  0  0
   26.7897   -6.6649  106.7511 C   0  0  0  0  0  0  0  0  0  0  0  0
   27.2427   -4.2952  105.8663 C   0  0  0  0  0  0  0  0  0  0  0  0
   31.5850   -3.4039  108.9460 O   0  5  0  0  0  0  0  0  0  0  0  0
   32.3796   -1.2412  109.0299 O   0  0  0  0  0  0  0  0  0  0  0  0
  1 17  1  0  0  0  0
  1 20  1  0  0  0  0
  2 15  1  1  0  0  0
  2  3  1  0  0  0  0
  2 11  1  0  0  0  0
  3  5  1  0  0  0  0
  4 16  1  6  0  0  0
  4 21  1  0  0  0  0
  4 22  2  0  0  0  0
  4 14  1  0  0  0  0
  5  1  1  1  0  0  0
  5  8  1  0  0  0  0
  6 17  2  0  0  0  0
  6 12  1  0  0  0  0
  8  7  1  6  0  0  0
  8 11  1  0  0  0  0
  9 19  1  0  0  0  0
 11 10  1  6  0  0  0
 12 20  2  0  0  0  0
 12 19  1  0  0  0  0
 13 20  1  0  0  0  0
 14 15  1  0  0  0  0
 18 19  2  0  0  0  0
M  CHG  1  21  -1
M  END
>  <CHROM.1>
53.25147385,-49.22683543,-52.65596164,-179.67337789,-118.79317149,29.28453994
-2.88429172,106.66069924,2.48829020,0.44987019,2.80713085

>  <Name>
ligand

>  <RI>
0

>  <Rbt.Current_Directory>
/home/itssahil/PROJECTS/Mol_Feturizer/New_Systems/rnas/4XW7

>  <Rbt.Executable>
rbdock ($Id: //depot/dev/client3/rdock/2013.1/src/exe/rbdock.cxx#4 $)

>  <Rbt.Library>
libRbt.so (2013.1, Build901 2013/11/27)

>  <Rbt.Parameter_File>
/export/apps/rDock/src/rDock_2013.1_src/data/scripts/dock_solv.prm

>  <Rbt.Receptor>
prm/pocket_docking_6.prm

>  <SCORE>
-6.66035

>  <SCORE.INTER>
-5.8121

>  <SCORE.INTER.CONST>
1

>  <SCORE.INTER.POLAR>
0

>  <SCORE.INTER.ROT>
5

>  <SCORE.INTER.SOLV>
7.84014

>  <SCORE.INTER.VDW>
-13.4214

>  <SCORE.INTER.norm>
-0.264187

>  <SCORE.INTRA>
-0.852216

>  <SCORE.INTRA.DIHEDRAL>
-0.635264

>  <SCORE.INTRA.DIHEDRAL.0>
2.61549

>  <SCORE.INTRA.POLAR>
0

>  <SCORE.INTRA.POLAR.0>
0

>  <SCORE.INTRA.REPUL>
0

>  <SCORE.INTRA.REPUL.0>
0

>  <SCORE.INTRA.SOLV>
0.616917

>  <SCORE.INTRA.SOLV.lig_0>
-73.766

>  <SCORE.INTRA.VDW>
-0.843042

>  <SCORE.INTRA.VDW.0>
-1.95055

>  <SCORE.INTRA.norm>
-0.0387371

>  <SCORE.RESTR>
0.0039729

>  <SCORE.RESTR.CAVITY>
0.0039729

>  <SCORE.RESTR.norm>
0.000180586

>  <SCORE.SYSTEM>
0

>  <SCORE.SYSTEM.CONST>
0

>  <SCORE.SYSTEM.DIHEDRAL>
0

>  <SCORE.SYSTEM.SOLV>
0

>  <SCORE.SYSTEM.norm>
0

>  <SCORE.heavy>
22

>  <SCORE.norm>
-0.302743

>  <RMSD>
6.352

$$$$
ligand
 OpenBabel11021811513D
libRbt.so/2013.1/901 2013/11/27
 22 23  0  0  0  0  0  0  0  0999 V2000
   32.4666   -3.2497  108.7074 N   0  0  0  0  0  0  0  0  0  0  0  0
   30.0092   -1.4096  107.1957 C   0  0  1  0  0  0  0  0  0  0  0  0
   30.4034   -2.7267  107.7164 O   0  0  0  0  0  0  0  0  0  0  0  0
   28.6405   -0.5886  104.4589 P   0  0  2  0  0  0  0  0  0  0  0  0
   31.2957   -2.4971  108.8465 C   0  0  2  0  0  0  0  0  0  0  0  0
   34.3558   -4.0231  107.9046 N   0  0  0  0  0  0  0  0  0  0  0  0
   31.7369   -0.5729  110.1956 O   0  0  0  0  0  0  0  0  0  0  0  0
   31.6105   -1.0549  108.8495 C   0  0  2  0  0  0  0  0  0  0  0  0
   35.7318   -5.4822  110.7708 N   0  0  0  0  0  0  0  0  0  0  0  0
   29.4328   -0.1509  109.1383 O   0  0  0  0  0  0  0  0  0  0  0  0
   30.4751   -0.4171  108.1740 C   0  0  2  0  0  0  0  0  0  0  0  0
   34.0941   -4.6863  109.0476 C   0  0  0  0  0  0  0  0  0  0  0  0
   32.2575   -4.6353  110.7623 N   0  0  0  0  0  0  0  0  0  0  0  0
   29.9591   -0.1840  105.1950 O   0  0  0  0  0  0  0  0  0  0  0  0
   30.6634   -1.1700  105.8860 C   0  0  0  0  0  0  0  0  0  0  0  0
   28.9811   -1.4788  103.1903 O   0  0  0  0  0  0  0  0  0  0  0  0
   33.3451   -3.1431  107.7097 C   0  0  0  0  0  0  0  0  0  0  0  0
   34.9606   -6.8805  109.1464 O   0  0  0  0  0  0  0  0  0  0  0  0
   34.9470   -5.7595  109.6486 C   0  0  0  0  0  0  0  0  0  0  0  0
   32.8996   -4.2086  109.5671 C   0  0  0  0  0  0  0  0  0  0  0  0
   27.8497    0.6036  104.0789 O   0  5  0  0  0  0  0  0  0  0  0  0
   27.7059   -1.2989  105.3732 O   0  0  0  0  0  0  0  0  0  0  0  0
  1 17  1  0  0  0  0
  1 20  1  0  0  0  0
  2 15  1  6  0  0  0
  2  3  1  0  0  0  0
  2 11  1  0  0  0  0
  3  5  1  0  0  0  0
  4 16  1  6  0  0  0
  4 21  1  0  0  0  0
  4 22  2  0  0  0  0
  4 14  1  0  0  0  0
  5  1  1  6  0  0  0
  5  8  1  0  0  0  0
  6 17  2  0  0  0  0
  6 12  1  0  0  0  0
  8  7  1  1  0  0  0
  8 11  1  0  0  0  0
  9 19  1  0  0  0  0
 11 10  1  1  0  0  0
 12 20  2  0  0  0  0
 12 19  1  0  0  0  0
 13 20  1  0  0  0  0
 14 15  1  0  0  0  0
 18 19  2  0  0  0  0
M  CHG  1  21  -1
M  END
>  <CHROM.1>
61.05692602,159.58836319,-70.86318914,-79.26752220,105.08064318,31.27259019
-2.32430148,107.54086469,0.32336535,-0.82361432,1.18807912

>  <Name>
ligand

>  <RI>
0

>  <Rbt.Current_Directory>
/home/itssahil/PROJECTS/Mol_Feturizer/New_Systems/rnas/4XW7

>  <Rbt.Executable>
rbdock ($Id: //depot/dev/client3/rdock/2013.1/src/exe/rbdock.cxx#4 $)

>  <Rbt.Library>
libRbt.so (2013.1, Build901 2013/11/27)

>  <Rbt.Parameter_File>
/export/apps/rDock/src/rDock_2013.1_src/data/scripts/dock_solv.prm

>  <Rbt.Receptor>
prm/pocket_docking_6.prm

>  <SCORE>
-8.50904

>  <SCORE.INTER>
-10.0425

>  <SCORE.INTER.CONST>
1

>  <SCORE.INTER.POLAR>
0

>  <SCORE.INTER.ROT>
5

>  <SCORE.INTER.SOLV>
13.6643

>  <SCORE.INTER.VDW>
-18.1831

>  <SCORE.INTER.norm>
-0.456479

>  <SCORE.INTRA>
1.53349

>  <SCORE.INTRA.DIHEDRAL>
2.31065

>  <SCORE.INTRA.DIHEDRAL.0>
2.61549

>  <SCORE.INTRA.POLAR>
0

>  <SCORE.INTRA.POLAR.0>
0

>  <SCORE.INTRA.REPUL>
0

>  <SCORE.INTRA.REPUL.0>
0

>  <SCORE.INTRA.SOLV>
1.2557

>  <SCORE.INTRA.SOLV.lig_0>
-73.766

>  <SCORE.INTRA.VDW>
-0.249683

>  <SCORE.INTRA.VDW.0>
-1.95055

>  <SCORE.INTRA.norm>
0.0697042

>  <SCORE.RESTR>
0

>  <SCORE.RESTR.CAVITY>
0

>  <SCORE.RESTR.norm>
0

>  <SCORE.SYSTEM>
0

>  <SCORE.SYSTEM.CONST>
0

>  <SCORE.SYSTEM.DIHEDRAL>
0

>  <SCORE.SYSTEM.SOLV>
0

>  <SCORE.SYSTEM.norm>
0

>  <SCORE.heavy>
22

>  <SCORE.norm>
-0.386775

>  <RMSD>
6.362

$$$$
ligand
 OpenBabel11021811513D
libRbt.so/2013.1/901 2013/11/27
 22 23  0  0  0  0  0  0  0  0999 V2000
   29.3726   -4.0408  107.6288 N   0  0  0  0  0  0  0  0  0  0  0  0
   30.7364   -0.9220  107.2790 C   0  0  1  0  0  0  0  0  0  0  0  0
   29.7538   -1.7526  107.9902 O   0  0  0  0  0  0  0  0  0  0  0  0
   28.7423   -1.5183  104.0817 P   0  0  2  0  0  0  0  0  0  0  0  0
   30.3055   -3.0995  108.0763 C   0  0  2  0  0  0  0  0  0  0  0  0
   27.8937   -5.0655  106.3740 N   0  0  0  0  0  0  0  0  0  0  0  0
   32.5160   -3.9646  107.7891 O   0  0  0  0  0  0  0  0  0  0  0  0
   31.5062   -3.1195  107.2179 C   0  0  2  0  0  0  0  0  0  0  0  0
   28.0940   -8.2652  107.9503 N   0  0  0  0  0  0  0  0  0  0  0  0
   32.8230   -1.4646  108.3000 O   0  0  0  0  0  0  0  0  0  0  0  0
   31.9617   -1.7258  107.1699 C   0  0  2  0  0  0  0  0  0  0  0  0
   28.0647   -5.8011  107.4897 C   0  0  0  0  0  0  0  0  0  0  0  0
   29.4691   -5.6003  109.5641 N   0  0  0  0  0  0  0  0  0  0  0  0
   29.5562   -1.6970  105.4045 O   0  0  0  0  0  0  0  0  0  0  0  0
   30.2296   -0.5916  105.9246 C   0  0  0  0  0  0  0  0  0  0  0  0
   28.0156   -0.1077  104.0808 O   0  0  0  0  0  0  0  0  0  0  0  0
   28.7055   -3.9864  106.4754 C   0  0  0  0  0  0  0  0  0  0  0  0
   26.1393   -7.0960  107.9267 O   0  0  0  0  0  0  0  0  0  0  0  0
   27.3616   -7.0842  107.8051 C   0  0  0  0  0  0  0  0  0  0  0  0
   28.9975   -5.1640  108.2952 C   0  0  0  0  0  0  0  0  0  0  0  0
   27.7715   -2.6201  103.8950 O   0  5  0  0  0  0  0  0  0  0  0  0
   29.6135   -1.6699  102.8850 O   0  0  0  0  0  0  0  0  0  0  0  0
  1 17  1  0  0  0  0
  1 20  1  0  0  0  0
  2 15  1  6  0  0  0
  2  3  1  0  0  0  0
  2 11  1  0  0  0  0
  3  5  1  0  0  0  0
  4 16  1  6  0  0  0
  4 21  1  0  0  0  0
  4 22  2  0  0  0  0
  4 14  1  0  0  0  0
  5  1  1  6  0  0  0
  5  8  1  0  0  0  0
  6 17  2  0  0  0  0
  6 12  1  0  0  0  0
  8  7  1  1  0  0  0
  8 11  1  0  0  0  0
  9 19  1  0  0  0  0
 11 10  1  1  0  0  0
 12 20  2  0  0  0  0
 12 19  1  0  0  0  0
 13 20  1  0  0  0  0
 14 15  1  0  0  0  0
 18 19  2  0  0  0  0
M  CHG  1  21  -1
M  END
>  <CHROM.1>
50.67107118,-37.84608003,-38.69144373,170.59750257,117.28421989,29.41379036
-3.29077778,106.59784537,-1.92010408,-0.64032115,-0.71934008

>  <Name>
ligand

>  <RI>
0

>  <Rbt.Current_Directory>
/home/itssahil/PROJECTS/Mol_Feturizer/New_Systems/rnas/4XW7

>  <Rbt.Executable>
rbdock ($Id: //depot/dev/client3/rdock/2013.1/src/exe/rbdock.cxx#4 $)

>  <Rbt.Library>
libRbt.so (2013.1, Build901 2013/11/27)

>  <Rbt.Parameter_File>
/export/apps/rDock/src/rDock_2013.1_src/data/scripts/dock_solv.prm

>  <Rbt.Receptor>
prm/pocket_docking_4.prm

>  <SCORE>
-5.15323

>  <SCORE.INTER>
-5.58155

>  <SCORE.INTER.CONST>
1

>  <SCORE.INTER.POLAR>
0

>  <SCORE.INTER.ROT>
5

>  <SCORE.INTER.SOLV>
13.3418

>  <SCORE.INTER.VDW>
-15.1016

>  <SCORE.INTER.norm>
-0.253707

>  <SCORE.INTRA>
0.42832

>  <SCORE.INTRA.DIHEDRAL>
1.54667

>  <SCORE.INTRA.DIHEDRAL.0>
2.61549

>  <SCORE.INTRA.POLAR>
0

>  <SCORE.INTRA.POLAR.0>
0

>  <SCORE.INTRA.REPUL>
0

>  <SCORE.INTRA.REPUL.0>
0

>  <SCORE.INTRA.SOLV>
0.623469

>  <SCORE.INTRA.SOLV.lig_0>
-73.766

>  <SCORE.INTRA.VDW>
-0.65675

>  <SCORE.INTRA.VDW.0>
-1.95055

>  <SCORE.INTRA.norm>
0.0194691

>  <SCORE.RESTR>
0

>  <SCORE.RESTR.CAVITY>
0

>  <SCORE.RESTR.norm>
0

>  <SCORE.SYSTEM>
0

>  <SCORE.SYSTEM.CONST>
0

>  <SCORE.SYSTEM.DIHEDRAL>
0

>  <SCORE.SYSTEM.SOLV>
0

>  <SCORE.SYSTEM.norm>
0

>  <SCORE.heavy>
22

>  <SCORE.norm>
-0.234238

>  <RMSD>
6.366

$$$$
ligand
 OpenBabel11021811513D
libRbt.so/2013.1/901 2013/11/27
 22 23  0  0  0  0  0  0  0  0999 V2000
   28.5028   -3.3686  106.3462 N   0  0  0  0  0  0  0  0  0  0  0  0
   30.3871   -0.6528  105.4608 C   0  0  1  0  0  0  0  0  0  0  0  0
   29.7508   -1.8982  105.0074 O   0  0  0  0  0  0  0  0  0  0  0  0
   32.4891   -2.3803  108.1447 P   0  0  2  0  0  0  0  0  0  0  0  0
   28.5411   -2.0811  105.8008 C   0  0  2  0  0  0  0  0  0  0  0  0
   29.0420   -5.1492  107.5083 N   0  0  0  0  0  0  0  0  0  0  0  0
   27.2622   -0.5942  107.1684 O   0  0  0  0  0  0  0  0  0  0  0  0
   28.5843   -1.0701  106.8754 C   0  0  2  0  0  0  0  0  0  0  0  0
   27.5366   -7.7113  107.8020 N   0  0  0  0  0  0  0  0  0  0  0  0
   28.5977    0.9202  105.5785 O   0  0  0  0  0  0  0  0  0  0  0  0
   29.4200    0.0126  106.3447 C   0  0  2  0  0  0  0  0  0  0  0  0
   27.8958   -5.4186  106.8536 C   0  0  0  0  0  0  0  0  0  0  0  0
   26.4013   -4.1576  105.2749 N   0  0  0  0  0  0  0  0  0  0  0  0
   31.3371   -1.9177  107.1943 O   0  0  0  0  0  0  0  0  0  0  0  0
   31.6251   -0.9664  106.2156 C   0  0  0  0  0  0  0  0  0  0  0  0
   33.6992   -2.9488  107.2901 O   0  0  0  0  0  0  0  0  0  0  0  0
   29.4018   -3.8843  107.1854 C   0  0  0  0  0  0  0  0  0  0  0  0
   26.1727   -6.8839  106.1760 O   0  0  0  0  0  0  0  0  0  0  0  0
   27.1385   -6.7082  106.9145 C   0  0  0  0  0  0  0  0  0  0  0  0
   27.5424   -4.3007  106.1118 C   0  0  0  0  0  0  0  0  0  0  0  0
   32.0089   -3.3815  109.1236 O   0  5  0  0  0  0  0  0  0  0  0  0
   32.9369   -1.2729  109.0320 O   0  0  0  0  0  0  0  0  0  0  0  0
  1 17  1  0  0  0  0
  1 20  1  0  0  0  0
  2 15  1  1  0  0  0
  2  3  1  0  0  0  0
  2 11  1  0  0  0  0
  3  5  1  0  0  0  0
  4 16  1  6  0  0  0
  4 21  1  0  0  0  0
  4 22  2  0  0  0  0
  4 14  1  0  0  0  0
  5  1  1  1  0  0  0
  5  8  1  0  0  0  0
  6 17  2  0  0  0  0
  6 12  1  0  0  0  0
  8  7  1  6  0  0  0
  8 11  1  0  0  0  0
  9 19  1  0  0  0  0
 11 10  1  6  0  0  0
 12 20  2  0  0  0  0
 12 19  1  0  0  0  0
 13 20  1  0  0  0  0
 14 15  1  0  0  0  0
 18 19  2  0  0  0  0
M  CHG  1  21  -1
M  END
>  <CHROM.1>
60.68714066,-50.74788075,-56.76064061,-178.50121420,6.39333301,29.61280281
-2.89774932,106.88326820,2.46924582,0.40395898,2.86081378

>  <Name>
ligand

>  <RI>
0

>  <Rbt.Current_Directory>
/home/itssahil/PROJECTS/Mol_Feturizer/New_Systems/rnas/4XW7

>  <Rbt.Executable>
rbdock ($Id: //depot/dev/client3/rdock/2013.1/src/exe/rbdock.cxx#4 $)

>  <Rbt.Library>
libRbt.so (2013.1, Build901 2013/11/27)

>  <Rbt.Parameter_File>
/export/apps/rDock/src/rDock_2013.1_src/data/scripts/dock_solv.prm

>  <Rbt.Receptor>
prm/pocket_docking_4.prm

>  <SCORE>
-7.15988

>  <SCORE.INTER>
-6.35871

>  <SCORE.INTER.CONST>
1

>  <SCORE.INTER.POLAR>
0

>  <SCORE.INTER.ROT>
5

>  <SCORE.INTER.SOLV>
9.24102

>  <SCORE.INTER.VDW>
-14.2528

>  <SCORE.INTER.norm>
-0.289032

>  <SCORE.INTRA>
-0.801174

>  <SCORE.INTRA.DIHEDRAL>
-0.752362

>  <SCORE.INTRA.DIHEDRAL.0>
2.61549

>  <SCORE.INTRA.POLAR>
0

>  <SCORE.INTRA.POLAR.0>
0

>  <SCORE.INTRA.REPUL>
0

>  <SCORE.INTRA.REPUL.0>
0

>  <SCORE.INTRA.SOLV>
0.440094

>  <SCORE.INTRA.SOLV.lig_0>
-73.766

>  <SCORE.INTRA.VDW>
-0.64504

>  <SCORE.INTRA.VDW.0>
-1.95055

>  <SCORE.INTRA.norm>
-0.036417

>  <SCORE.RESTR>
0

>  <SCORE.RESTR.CAVITY>
0

>  <SCORE.RESTR.norm>
0

>  <SCORE.SYSTEM>
0

>  <SCORE.SYSTEM.CONST>
0

>  <SCORE.SYSTEM.DIHEDRAL>
0

>  <SCORE.SYSTEM.SOLV>
0

>  <SCORE.SYSTEM.norm>
0

>  <SCORE.heavy>
22

>  <SCORE.norm>
-0.325449

>  <RMSD>
6.406

$$$$
ligand
 OpenBabel11021811513D
libRbt.so/2013.1/901 2013/11/27
 22 23  0  0  0  0  0  0  0  0999 V2000
   28.6062   -3.5265  106.6389 N   0  0  0  0  0  0  0  0  0  0  0  0
   30.4775   -0.8321  105.6650 C   0  0  1  0  0  0  0  0  0  0  0  0
   29.8225   -2.0799  105.2461 O   0  0  0  0  0  0  0  0  0  0  0  0
   32.6558   -2.5747  108.2770 P   0  0  2  0  0  0  0  0  0  0  0  0
   28.6351   -2.2464  106.0758 C   0  0  2  0  0  0  0  0  0  0  0  0
   29.2188   -5.3362  107.7167 N   0  0  0  0  0  0  0  0  0  0  0  0
   27.4028   -0.7355  107.4598 O   0  0  0  0  0  0  0  0  0  0  0  0
   28.7137   -1.2218  107.1356 C   0  0  2  0  0  0  0  0  0  0  0  0
   27.6346   -7.8031  108.2767 N   0  0  0  0  0  0  0  0  0  0  0  0
   28.6997    0.7515  105.8130 O   0  0  0  0  0  0  0  0  0  0  0  0
   29.5391   -0.1504  106.5673 C   0  0  2  0  0  0  0  0  0  0  0  0
   27.9610   -5.5287  107.2741 C   0  0  0  0  0  0  0  0  0  0  0  0
   26.3028   -4.1735  105.9589 N   0  0  0  0  0  0  0  0  0  0  0  0
   31.4815   -2.1199  107.3505 O   0  0  0  0  0  0  0  0  0  0  0  0
   31.7350   -1.1423  106.3883 C   0  0  0  0  0  0  0  0  0  0  0  0
   33.8474   -3.1457  107.3983 O   0  0  0  0  0  0  0  0  0  0  0  0
   29.6008   -4.0997  107.3176 C   0  0  0  0  0  0  0  0  0  0  0  0
   26.0394   -6.8621  106.9507 O   0  0  0  0  0  0  0  0  0  0  0  0
   27.1415   -6.7634  107.4842 C   0  0  0  0  0  0  0  0  0  0  0  0
   27.5597   -4.3916  106.5879 C   0  0  0  0  0  0  0  0  0  0  0  0
   32.2002   -3.5712  109.2723 O   0  5  0  0  0  0  0  0  0  0  0  0
   33.1213   -1.4614  109.1475 O   0  0  0  0  0  0  0  0  0  0  0  0
  1 17  1  0  0  0  0
  1 20  1  0  0  0  0
  2 15  1  1  0  0  0
  2  3  1  0  0  0  0
  2 11  1  0  0  0  0
  3  5  1  0  0  0  0
  4 16  1  6  0  0  0
  4 21  1  0  0  0  0
  4 22  2  0  0  0  0
  4 14  1  0  0  0  0
  5  1  1  1  0  0  0
  5  8  1  0  0  0  0
  6 17  2  0  0  0  0
  6 12  1  0  0  0  0
  8  7  1  6  0  0  0
  8 11  1  0  0  0  0
  9 19  1  0  0  0  0
 11 10  1  6  0  0  0
 12 20  2  0  0  0  0
 12 19  1  0  0  0  0
 13 20  1  0  0  0  0
 14 15  1  0  0  0  0
 18 19  2  0  0  0  0
M  CHG  1  21  -1
M  END
>  <CHROM.1>
51.59020481,-48.32287499,-58.79191453,-177.90524437,4.75344096,29.71387127
-3.04673251,107.17061321,2.48356255,0.33559899,2.82934011

>  <Name>
ligand

>  <RI>
0

>  <Rbt.Current_Directory>
/home/itssahil/PROJECTS/Mol_Feturizer/New_Systems/rnas/4XW7

>  <Rbt.Executable>
rbdock ($Id: //depot/dev/client3/rdock/2013.1/src/exe/rbdock.cxx#4 $)

>  <Rbt.Library>
libRbt.so (2013.1, Build901 2013/11/27)

>  <Rbt.Parameter_File>
/export/apps/rDock/src/rDock_2013.1_src/data/scripts/dock_solv.prm

>  <Rbt.Receptor>
prm/pocket_docking_3.prm

>  <SCORE>
-6.74297

>  <SCORE.INTER>
-6.15549

>  <SCORE.INTER.CONST>
1

>  <SCORE.INTER.POLAR>
0

>  <SCORE.INTER.ROT>
5

>  <SCORE.INTER.SOLV>
8.67906

>  <SCORE.INTER.VDW>
-13.93

>  <SCORE.INTER.norm>
-0.279795

>  <SCORE.INTRA>
-0.701423

>  <SCORE.INTRA.DIHEDRAL>
-0.60383

>  <SCORE.INTRA.DIHEDRAL.0>
2.61549

>  <SCORE.INTRA.POLAR>
0

>  <SCORE.INTRA.POLAR.0>
0

>  <SCORE.INTRA.REPUL>
0

>  <SCORE.INTRA.REPUL.0>
0

>  <SCORE.INTRA.SOLV>
0.702499

>  <SCORE.INTRA.SOLV.lig_0>
-73.766

>  <SCORE.INTRA.VDW>
-0.750757

>  <SCORE.INTRA.VDW.0>
-1.95055

>  <SCORE.INTRA.norm>
-0.0318828

>  <SCORE.RESTR>
0.113936

>  <SCORE.RESTR.CAVITY>
0.113936

>  <SCORE.RESTR.norm>
0.00517892

>  <SCORE.SYSTEM>
0

>  <SCORE.SYSTEM.CONST>
0

>  <SCORE.SYSTEM.DIHEDRAL>
0

>  <SCORE.SYSTEM.SOLV>
0

>  <SCORE.SYSTEM.norm>
0

>  <SCORE.heavy>
22

>  <SCORE.norm>
-0.306499

>  <RMSD>
6.410

$$$$
ligand
 OpenBabel11021811513D
libRbt.so/2013.1/901 2013/11/27
 22 23  0  0  0  0  0  0  0  0999 V2000
   28.3466   -3.2955  105.8459 N   0  0  0  0  0  0  0  0  0  0  0  0
   30.5187   -0.6686  106.1488 C   0  0  1  0  0  0  0  0  0  0  0  0
   30.1275   -1.8453  105.3589 O   0  0  0  0  0  0  0  0  0  0  0  0
   32.7534   -3.0642  107.9456 P   0  0  2  0  0  0  0  0  0  0  0  0
   28.6814   -1.9877  105.4796 C   0  0  2  0  0  0  0  0  0  0  0  0
   28.3230   -5.2129  106.9111 N   0  0  0  0  0  0  0  0  0  0  0  0
   26.9620   -0.4900  106.1990 O   0  0  0  0  0  0  0  0  0  0  0  0
   28.2492   -1.0365  106.5224 C   0  0  2  0  0  0  0  0  0  0  0  0
   26.6154   -7.6082  106.4139 N   0  0  0  0  0  0  0  0  0  0  0  0
   28.9397    1.0108  105.5349 O   0  0  0  0  0  0  0  0  0  0  0  0
   29.2732    0.0140  106.5260 C   0  0  2  0  0  0  0  0  0  0  0  0
   27.4039   -5.2786  105.9282 C   0  0  0  0  0  0  0  0  0  0  0  0
   26.5919   -3.7172  104.1343 N   0  0  0  0  0  0  0  0  0  0  0  0
   32.3305   -1.8940  106.9989 O   0  0  0  0  0  0  0  0  0  0  0  0
   31.2447   -1.1001  107.3683 C   0  0  0  0  0  0  0  0  0  0  0  0
   31.7241   -4.2647  107.8140 O   0  0  0  0  0  0  0  0  0  0  0  0
   28.8937   -3.9865  106.8467 C   0  0  0  0  0  0  0  0  0  0  0  0
   25.7513   -6.4116  104.6791 O   0  0  0  0  0  0  0  0  0  0  0  0
   26.5322   -6.4573  105.6262 C   0  0  0  0  0  0  0  0  0  0  0  0
   27.4082   -4.0720  105.2436 C   0  0  0  0  0  0  0  0  0  0  0  0
   32.8646   -2.6066  109.3490 O   0  5  0  0  0  0  0  0  0  0  0  0
   34.1413   -3.5180  107.6593 O   0  0  0  0  0  0  0  0  0  0  0  0
  1 17  1  0  0  0  0
  1 20  1  0  0  0  0
  2 15  1  1  0  0  0
  2  3  1  0  0  0  0
  2 11  1  0  0  0  0
  3  5  1  0  0  0  0
  4 16  1  6  0  0  0
  4 21  1  0  0  0  0
  4 22  2  0  0  0  0
  4 14  1  0  0  0  0
  5  1  1  1  0  0  0
  5  8  1  0  0  0  0
  6 17  2  0  0  0  0
  6 12  1  0  0  0  0
  8  7  1  6  0  0  0
  8 11  1  0  0  0  0
  9 19  1  0  0  0  0
 11 10  1  6  0  0  0
 12 20  2  0  0  0  0
 12 19  1  0  0  0  0
 13 20  1  0  0  0  0
 14 15  1  0  0  0  0
 18 19  2  0  0  0  0
M  CHG  1  21  -1
M  END
>  <CHROM.1>
49.09543683,55.57787629,74.96328172,-146.35230794,1.36183826,29.53359701
-3.02024089,106.49752129,2.71618986,0.42994426,3.01185939

>  <Name>
ligand

>  <RI>
0

>  <Rbt.Current_Directory>
/home/itssahil/PROJECTS/Mol_Feturizer/New_Systems/rnas/4XW7

>  <Rbt.Executable>
rbdock ($Id: //depot/dev/client3/rdock/2013.1/src/exe/rbdock.cxx#4 $)

>  <Rbt.Library>
libRbt.so (2013.1, Build901 2013/11/27)

>  <Rbt.Parameter_File>
/export/apps/rDock/src/rDock_2013.1_src/data/scripts/dock_solv.prm

>  <Rbt.Receptor>
prm/pocket_docking_3.prm

>  <SCORE>
-4.39952

>  <SCORE.INTER>
-5.23548

>  <SCORE.INTER.CONST>
1

>  <SCORE.INTER.POLAR>
0

>  <SCORE.INTER.ROT>
5

>  <SCORE.INTER.SOLV>
15.5822

>  <SCORE.INTER.VDW>
-15.6177

>  <SCORE.INTER.norm>
-0.237976

>  <SCORE.INTRA>
0.835262

>  <SCORE.INTRA.DIHEDRAL>
3.55454

>  <SCORE.INTRA.DIHEDRAL.0>
2.61549

>  <SCORE.INTRA.POLAR>
0

>  <SCORE.INTRA.POLAR.0>
0

>  <SCORE.INTRA.REPUL>
0

>  <SCORE.INTRA.REPUL.0>
0

>  <SCORE.INTRA.SOLV>
-0.185825

>  <SCORE.INTRA.SOLV.lig_0>
-73.766

>  <SCORE.INTRA.VDW>
-0.849094

>  <SCORE.INTRA.VDW.0>
-1.95055

>  <SCORE.INTRA.norm>
0.0379664

>  <SCORE.RESTR>
0.000693318

>  <SCORE.RESTR.CAVITY>
0.000693318

>  <SCORE.RESTR.norm>
3.15145e-05

>  <SCORE.SYSTEM>
0

>  <SCORE.SYSTEM.CONST>
0

>  <SCORE.SYSTEM.DIHEDRAL>
0

>  <SCORE.SYSTEM.SOLV>
0

>  <SCORE.SYSTEM.norm>
0

>  <SCORE.heavy>
22

>  <SCORE.norm>
-0.199978

>  <RMSD>
6.410

$$$$
ligand
 OpenBabel11021811513D
libRbt.so/2013.1/901 2013/11/27
 22 23  0  0  0  0  0  0  0  0999 V2000
   28.5132   -3.2822  106.2705 N   0  0  0  0  0  0  0  0  0  0  0  0
   30.5961   -0.6970  105.4410 C   0  0  1  0  0  0  0  0  0  0  0  0
   29.8862   -1.8939  104.9669 O   0  0  0  0  0  0  0  0  0  0  0  0
   32.5210   -2.5961  108.1411 P   0  0  2  0  0  0  0  0  0  0  0  0
   28.6505   -1.9978  105.7339 C   0  0  2  0  0  0  0  0  0  0  0  0
   28.9346   -5.1237  107.3854 N   0  0  0  0  0  0  0  0  0  0  0  0
   27.4471   -0.4337  107.0838 O   0  0  0  0  0  0  0  0  0  0  0  0
   28.7397   -0.9971  106.8154 C   0  0  2  0  0  0  0  0  0  0  0  0
   27.2953   -7.6102  107.5747 N   0  0  0  0  0  0  0  0  0  0  0  0
   28.9158    0.9937  105.5313 O   0  0  0  0  0  0  0  0  0  0  0  0
   29.6581    0.0286  106.3088 C   0  0  2  0  0  0  0  0  0  0  0  0
   27.7318   -5.2676  106.7958 C   0  0  0  0  0  0  0  0  0  0  0  0
   26.2855   -3.8415  105.3160 N   0  0  0  0  0  0  0  0  0  0  0  0
   31.4303   -2.0683  107.1530 O   0  0  0  0  0  0  0  0  0  0  0  0
   31.7937   -1.0978  106.2194 C   0  0  0  0  0  0  0  0  0  0  0  0
   33.7245   -3.2338  107.3270 O   0  0  0  0  0  0  0  0  0  0  0  0
   29.4016   -3.8970  107.0523 C   0  0  0  0  0  0  0  0  0  0  0  0
   25.7463   -6.4677  106.3566 O   0  0  0  0  0  0  0  0  0  0  0  0
   26.8528   -6.4754  106.8902 C   0  0  0  0  0  0  0  0  0  0  0  0
   27.4518   -4.1099  106.0845 C   0  0  0  0  0  0  0  0  0  0  0  0
   31.9511   -3.5674  109.1017 O   0  5  0  0  0  0  0  0  0  0  0  0
   33.0016   -1.5159  109.0446 O   0  0  0  0  0  0  0  0  0  0  0  0
  1 17  1  0  0  0  0
  1 20  1  0  0  0  0
  2 15  1  1  0  0  0
  2  3  1  0  0  0  0
  2 11  1  0  0  0  0
  3  5  1  0  0  0  0
  4 16  1  6  0  0  0
  4 21  1  0  0  0  0
  4 22  2  0  0  0  0
  4 14  1  0  0  0  0
  5  1  1  1  0  0  0
  5  8  1  0  0  0  0
  6 17  2  0  0  0  0
  6 12  1  0  0  0  0
  8  7  1  6  0  0  0
  8 11  1  0  0  0  0
  9 19  1  0  0  0  0
 11 10  1  6  0  0  0
 12 20  2  0  0  0  0
 12 19  1  0  0  0  0
 13 20  1  0  0  0  0
 14 15  1  0  0  0  0
 18 19  2  0  0  0  0
M  CHG  1  21  -1
M  END
>  <CHROM.1>
55.82037853,-48.57107712,-59.18470800,-177.07493488,-3.76731829,29.62850264
-2.88580363,106.85037579,2.55523816,0.37919650,2.83110121

>  <Name>
ligand

>  <RI>
0

>  <Rbt.Current_Directory>
/home/itssahil/PROJECTS/Mol_Feturizer/New_Systems/rnas/4XW7

>  <Rbt.Executable>
rbdock ($Id: //depot/dev/client3/rdock/2013.1/src/exe/rbdock.cxx#4 $)

>  <Rbt.Library>
libRbt.so (2013.1, Build901 2013/11/27)

>  <Rbt.Parameter_File>
/export/apps/rDock/src/rDock_2013.1_src/data/scripts/dock_solv.prm

>  <Rbt.Receptor>
prm/pocket_docking_3.prm

>  <SCORE>
-6.25791

>  <SCORE.INTER>
-5.57011

>  <SCORE.INTER.CONST>
1

>  <SCORE.INTER.POLAR>
0

>  <SCORE.INTER.ROT>
5

>  <SCORE.INTER.SOLV>
9.67947

>  <SCORE.INTER.VDW>
-13.8732

>  <SCORE.INTER.norm>
-0.253187

>  <SCORE.INTRA>
-0.69668

>  <SCORE.INTRA.DIHEDRAL>
-0.613771

>  <SCORE.INTRA.DIHEDRAL.0>
2.61549

>  <SCORE.INTRA.POLAR>
0

>  <SCORE.INTRA.POLAR.0>
0

>  <SCORE.INTRA.REPUL>
0

>  <SCORE.INTRA.REPUL.0>
0

>  <SCORE.INTRA.SOLV>
0.607806

>  <SCORE.INTRA.SOLV.lig_0>
-73.766

>  <SCORE.INTRA.VDW>
-0.693697

>  <SCORE.INTRA.VDW.0>
-1.95055

>  <SCORE.INTRA.norm>
-0.0316673

>  <SCORE.RESTR>
0.00888473

>  <SCORE.RESTR.CAVITY>
0.00888473

>  <SCORE.RESTR.norm>
0.000403851

>  <SCORE.SYSTEM>
0

>  <SCORE.SYSTEM.CONST>
0

>  <SCORE.SYSTEM.DIHEDRAL>
0

>  <SCORE.SYSTEM.SOLV>
0

>  <SCORE.SYSTEM.norm>
0

>  <SCORE.heavy>
22

>  <SCORE.norm>
-0.28445

>  <RMSD>
6.419

$$$$
ligand
 OpenBabel11021811513D
libRbt.so/2013.1/901 2013/11/27
 22 23  0  0  0  0  0  0  0  0999 V2000
   28.6211   -3.6777  106.7599 N   0  0  0  0  0  0  0  0  0  0  0  0
   30.3425   -0.8999  105.7448 C   0  0  1  0  0  0  0  0  0  0  0  0
   29.7358   -2.1764  105.3401 O   0  0  0  0  0  0  0  0  0  0  0  0
   32.6665   -2.5561  108.2868 P   0  0  2  0  0  0  0  0  0  0  0  0
   28.5776   -2.3975  106.1979 C   0  0  2  0  0  0  0  0  0  0  0  0
   29.3666   -5.4869  107.7513 N   0  0  0  0  0  0  0  0  0  0  0  0
   27.3106   -0.9451  107.6129 O   0  0  0  0  0  0  0  0  0  0  0  0
   28.6343   -1.3706  107.2567 C   0  0  2  0  0  0  0  0  0  0  0  0
   26.2071   -6.8558  108.6791 N   0  0  0  0  0  0  0  0  0  0  0  0
   28.4977    0.6002  105.9373 O   0  0  0  0  0  0  0  0  0  0  0  0
   29.3957   -0.2622  106.6701 C   0  0  2  0  0  0  0  0  0  0  0  0
   28.0631   -5.6804  107.4713 C   0  0  0  0  0  0  0  0  0  0  0  0
   26.2508   -4.3266  106.3766 N   0  0  0  0  0  0  0  0  0  0  0  0
   31.4442   -2.1380  107.4063 O   0  0  0  0  0  0  0  0  0  0  0  0
   31.6299   -1.1519  106.4374 C   0  0  0  0  0  0  0  0  0  0  0  0
   33.8441   -3.0815  107.3621 O   0  0  0  0  0  0  0  0  0  0  0  0
   29.6940   -4.2502  107.3073 C   0  0  0  0  0  0  0  0  0  0  0  0
   27.5835   -7.9823  107.2561 O   0  0  0  0  0  0  0  0  0  0  0  0
   27.2777   -6.9158  107.7833 C   0  0  0  0  0  0  0  0  0  0  0  0
   27.5773   -4.5437  106.8416 C   0  0  0  0  0  0  0  0  0  0  0  0
   32.2821   -3.5722  109.2923 O   0  5  0  0  0  0  0  0  0  0  0  0
   33.1249   -1.4312  109.1463 O   0  0  0  0  0  0  0  0  0  0  0  0
  1 17  1  0  0  0  0
  1 20  1  0  0  0  0
  2 15  1  1  0  0  0
  2  3  1  0  0  0  0
  2 11  1  0  0  0  0
  3  5  1  0  0  0  0
  4 16  1  6  0  0  0
  4 21  1  0  0  0  0
  4 22  2  0  0  0  0
  4 14  1  0  0  0  0
  5  1  1  1  0  0  0
  5  8  1  0  0  0  0
  6 17  2  0  0  0  0
  6 12  1  0  0  0  0
  8  7  1  6  0  0  0
  8 11  1  0  0  0  0
  9 19  1  0  0  0  0
 11 10  1  6  0  0  0
 12 20  2  0  0  0  0
 12 19  1  0  0  0  0
 13 20  1  0  0  0  0
 14 15  1  0  0  0  0
 18 19  2  0  0  0  0
M  CHG  1  21  -1
M  END
>  <CHROM.1>
45.15362535,-48.46454770,-58.52165711,-178.98731906,116.17532468,29.70940982
-3.13857367,107.29375102,2.42578925,0.28674811,2.84580034

>  <Name>
ligand

>  <RI>
0

>  <Rbt.Current_Directory>
/home/itssahil/PROJECTS/Mol_Feturizer/New_Systems/rnas/4XW7

>  <Rbt.Executable>
rbdock ($Id: //depot/dev/client3/rdock/2013.1/src/exe/rbdock.cxx#4 $)

>  <Rbt.Library>
libRbt.so (2013.1, Build901 2013/11/27)

>  <Rbt.Parameter_File>
/export/apps/rDock/src/rDock_2013.1_src/data/scripts/dock_solv.prm

>  <Rbt.Receptor>
prm/pocket_docking_3.prm

>  <SCORE>
-6.68937

>  <SCORE.INTER>
-5.82571

>  <SCORE.INTER.CONST>
1

>  <SCORE.INTER.POLAR>
0

>  <SCORE.INTER.ROT>
5

>  <SCORE.INTER.SOLV>
8.14951

>  <SCORE.INTER.VDW>
-13.5336

>  <SCORE.INTER.norm>
-0.264805

>  <SCORE.INTRA>
-0.863841

>  <SCORE.INTRA.DIHEDRAL>
-0.64196

>  <SCORE.INTRA.DIHEDRAL.0>
2.61549

>  <SCORE.INTRA.POLAR>
0

>  <SCORE.INTRA.POLAR.0>
0

>  <SCORE.INTRA.REPUL>
0

>  <SCORE.INTRA.REPUL.0>
0

>  <SCORE.INTRA.SOLV>
0.80986

>  <SCORE.INTRA.SOLV.lig_0>
-73.766

>  <SCORE.INTRA.VDW>
-0.94779

>  <SCORE.INTRA.VDW.0>
-1.95055

>  <SCORE.INTRA.norm>
-0.0392655

>  <SCORE.RESTR>
0.00017416

>  <SCORE.RESTR.CAVITY>
0.00017416

>  <SCORE.RESTR.norm>
7.91636e-06

>  <SCORE.SYSTEM>
0

>  <SCORE.SYSTEM.CONST>
0

>  <SCORE.SYSTEM.DIHEDRAL>
0

>  <SCORE.SYSTEM.SOLV>
0

>  <SCORE.SYSTEM.norm>
0

>  <SCORE.heavy>
22

>  <SCORE.norm>
-0.304062

>  <RMSD>
6.420

$$$$
ligand
 OpenBabel11021811513D
libRbt.so/2013.1/901 2013/11/27
 22 23  0  0  0  0  0  0  0  0999 V2000
   30.5195   -4.2909  108.3389 N   0  0  0  0  0  0  0  0  0  0  0  0
   31.0660   -1.1058  107.2134 C   0  0  1  0  0  0  0  0  0  0  0  0
   30.3270   -1.9581  108.1561 O   0  0  0  0  0  0  0  0  0  0  0  0
   28.3288   -0.7983  104.5685 P   0  0  2  0  0  0  0  0  0  0  0  0
   31.1955   -3.0772  108.5019 C   0  0  2  0  0  0  0  0  0  0  0  0
   30.1303   -6.4376  108.1112 N   0  0  0  0  0  0  0  0  0  0  0  0
   33.5480   -3.4334  108.2654 O   0  0  0  0  0  0  0  0  0  0  0  0
   32.3544   -3.0093  107.5903 C   0  0  2  0  0  0  0  0  0  0  0  0
   27.5088   -7.8483  107.8966 N   0  0  0  0  0  0  0  0  0  0  0  0
   33.2329   -0.8840  108.1860 O   0  0  0  0  0  0  0  0  0  0  0  0
   32.4507   -1.5975  107.2031 C   0  0  2  0  0  0  0  0  0  0  0  0
   28.9429   -5.8014  108.0923 C   0  0  0  0  0  0  0  0  0  0  0  0
   28.1952   -3.4084  108.2655 N   0  0  0  0  0  0  0  0  0  0  0  0
   29.2080   -0.6533  105.8531 O   0  0  0  0  0  0  0  0  0  0  0  0
   30.4785   -1.2292  105.8568 C   0  0  0  0  0  0  0  0  0  0  0  0
   29.2584   -0.9673  103.2937 O   0  0  0  0  0  0  0  0  0  0  0  0
   31.0897   -5.4940  108.2636 C   0  0  0  0  0  0  0  0  0  0  0  0
   26.5954   -5.7624  107.8413 O   0  0  0  0  0  0  0  0  0  0  0  0
   27.6052   -6.4551  107.9388 C   0  0  0  0  0  0  0  0  0  0  0  0
   29.1731   -4.4407  108.2339 C   0  0  0  0  0  0  0  0  0  0  0  0
   27.4114    0.3529  104.4124 O   0  5  0  0  0  0  0  0  0  0  0  0
   27.3772   -1.9358  104.6889 O   0  0  0  0  0  0  0  0  0  0  0  0
  1 17  1  0  0  0  0
  1 20  1  0  0  0  0
  2 15  1  6  0  0  0
  2  3  1  0  0  0  0
  2 11  1  0  0  0  0
  3  5  1  0  0  0  0
  4 16  1  6  0  0  0
  4 21  1  0  0  0  0
  4 22  2  0  0  0  0
  4 14  1  0  0  0  0
  5  1  1  6  0  0  0
  5  8  1  0  0  0  0
  6 17  2  0  0  0  0
  6 12  1  0  0  0  0
  8  7  1  1  0  0  0
  8 11  1  0  0  0  0
  9 19  1  0  0  0  0
 11 10  1  1  0  0  0
 12 20  2  0  0  0  0
 12 19  1  0  0  0  0
 13 20  1  0  0  0  0
 14 15  1  0  0  0  0
 18 19  2  0  0  0  0
M  CHG  1  21  -1
M  END
>  <CHROM.1>
163.42364580,68.31142146,-26.86449429,-173.57246624,4.65434220,29.72324409
-2.96143144,106.92544057,-1.55852833,-0.42365832,-0.54972025

>  <Name>
ligand

>  <RI>
0

>  <Rbt.Current_Directory>
/home/itssahil/PROJECTS/Mol_Feturizer/New_Systems/rnas/4XW7

>  <Rbt.Executable>
rbdock ($Id: //depot/dev/client3/rdock/2013.1/src/exe/rbdock.cxx#4 $)

>  <Rbt.Library>
libRbt.so (2013.1, Build901 2013/11/27)

>  <Rbt.Parameter_File>
/export/apps/rDock/src/rDock_2013.1_src/data/scripts/dock_solv.prm

>  <Rbt.Receptor>
prm/pocket_docking_4.prm

>  <SCORE>
-4.90558

>  <SCORE.INTER>
-7.02546

>  <SCORE.INTER.CONST>
1

>  <SCORE.INTER.POLAR>
0

>  <SCORE.INTER.ROT>
5

>  <SCORE.INTER.SOLV>
9.08401

>  <SCORE.INTER.VDW>
-14.645

>  <SCORE.INTER.norm>
-0.319339

>  <SCORE.INTRA>
2.11988

>  <SCORE.INTRA.DIHEDRAL>
0.715183

>  <SCORE.INTRA.DIHEDRAL.0>
2.61549

>  <SCORE.INTRA.POLAR>
0

>  <SCORE.INTRA.POLAR.0>
0

>  <SCORE.INTRA.REPUL>
0

>  <SCORE.INTRA.REPUL.0>
0

>  <SCORE.INTRA.SOLV>
2.55496

>  <SCORE.INTRA.SOLV.lig_0>
-73.766

>  <SCORE.INTRA.VDW>
0.484807

>  <SCORE.INTRA.VDW.0>
-1.95055

>  <SCORE.INTRA.norm>
0.0963582

>  <SCORE.RESTR>
0

>  <SCORE.RESTR.CAVITY>
0

>  <SCORE.RESTR.norm>
0

>  <SCORE.SYSTEM>
0

>  <SCORE.SYSTEM.CONST>
0

>  <SCORE.SYSTEM.DIHEDRAL>
0

>  <SCORE.SYSTEM.SOLV>
0

>  <SCORE.SYSTEM.norm>
0

>  <SCORE.heavy>
22

>  <SCORE.norm>
-0.222981

>  <RMSD>
6.425

$$$$
ligand
 OpenBabel11021811513D
libRbt.so/2013.1/901 2013/11/27
 22 23  0  0  0  0  0  0  0  0999 V2000
   28.5412   -3.3919  106.4256 N   0  0  0  0  0  0  0  0  0  0  0  0
   30.3412   -0.6432  105.4693 C   0  0  1  0  0  0  0  0  0  0  0  0
   29.7254   -1.9085  105.0438 O   0  0  0  0  0  0  0  0  0  0  0  0
   32.5269   -2.2406  108.1665 P   0  0  2  0  0  0  0  0  0  0  0  0
   28.5374   -2.1105  105.8646 C   0  0  2  0  0  0  0  0  0  0  0  0
   29.1829   -5.1716  107.5357 N   0  0  0  0  0  0  0  0  0  0  0  0
   27.2522   -0.6379  107.2419 O   0  0  0  0  0  0  0  0  0  0  0  0
   28.5788   -1.0859  106.9265 C   0  0  2  0  0  0  0  0  0  0  0  0
   26.8544   -7.4607  106.0692 N   0  0  0  0  0  0  0  0  0  0  0  0
   28.5176    0.8885  105.6068 O   0  0  0  0  0  0  0  0  0  0  0  0
   29.3772    0.0098  106.3657 C   0  0  2  0  0  0  0  0  0  0  0  0
   27.9623   -5.4251  107.0249 C   0  0  0  0  0  0  0  0  0  0  0  0
   26.3134   -4.1505  105.6207 N   0  0  0  0  0  0  0  0  0  0  0  0
   31.3485   -1.8331  107.2233 O   0  0  0  0  0  0  0  0  0  0  0  0
   31.6018   -0.9183  106.2012 C   0  0  0  0  0  0  0  0  0  0  0  0
   33.0403   -0.9717  108.9690 O   0  0  0  0  0  0  0  0  0  0  0  0
   29.5244   -3.9168  107.1578 C   0  0  0  0  0  0  0  0  0  0  0  0
   26.8585   -7.0676  108.3129 O   0  0  0  0  0  0  0  0  0  0  0  0
   27.1948   -6.6994  107.1902 C   0  0  0  0  0  0  0  0  0  0  0  0
   27.5432   -4.3076  106.3176 C   0  0  0  0  0  0  0  0  0  0  0  0
   33.6281   -2.8749  107.4075 O   0  5  0  0  0  0  0  0  0  0  0  0
   32.1250   -3.3318  109.0949 O   0  0  0  0  0  0  0  0  0  0  0  0
  1 17  1  0  0  0  0
  1 20  1  0  0  0  0
  2 15  1  1  0  0  0
  2  3  1  0  0  0  0
  2 11  1  0  0  0  0
  3  5  1  0  0  0  0
  4 16  1  1  0  0  0
  4 21  1  0  0  0  0
  4 22  2  0  0  0  0
  4 14  1  0  0  0  0
  5  1  1  1  0  0  0
  5  8  1  0  0  0  0
  6 17  2  0  0  0  0
  6 12  1  0  0  0  0
  8  7  1  6  0  0  0
  8 11  1  0  0  0  0
  9 19  1  0  0  0  0
 11 10  1  6  0  0  0
 12 20  2  0  0  0  0
 12 19  1  0  0  0  0
 13 20  1  0  0  0  0
 14 15  1  0  0  0  0
 18 19  2  0  0  0  0
M  CHG  1  21  -1
M  END
>  <CHROM.1>
54.56490000,-52.57108555,63.04519165,-177.96856353,-118.51168671,29.63082954
-2.86476621,106.97199877,2.44276632,0.38495929,2.84168518

>  <Name>
ligand

>  <RI>
0

>  <Rbt.Current_Directory>
/home/itssahil/PROJECTS/Mol_Feturizer/New_Systems/rnas/4XW7

>  <Rbt.Executable>
rbdock ($Id: //depot/dev/client3/rdock/2013.1/src/exe/rbdock.cxx#4 $)

>  <Rbt.Library>
libRbt.so (2013.1, Build901 2013/11/27)

>  <Rbt.Parameter_File>
/export/apps/rDock/src/rDock_2013.1_src/data/scripts/dock_solv.prm

>  <Rbt.Receptor>
prm/pocket_docking_4.prm

>  <SCORE>
-5.80648

>  <SCORE.INTER>
-4.82994

>  <SCORE.INTER.CONST>
1

>  <SCORE.INTER.POLAR>
0

>  <SCORE.INTER.ROT>
5

>  <SCORE.INTER.SOLV>
12.805

>  <SCORE.INTER.VDW>
-14.4216

>  <SCORE.INTER.norm>
-0.219543

>  <SCORE.INTRA>
-0.976536

>  <SCORE.INTRA.DIHEDRAL>
-0.897832

>  <SCORE.INTRA.DIHEDRAL.0>
2.61549

>  <SCORE.INTRA.POLAR>
0

>  <SCORE.INTRA.POLAR.0>
0

>  <SCORE.INTRA.REPUL>
0

>  <SCORE.INTRA.REPUL.0>
0

>  <SCORE.INTRA.SOLV>
0.580155

>  <SCORE.INTRA.SOLV.lig_0>
-73.766

>  <SCORE.INTRA.VDW>
-0.817698

>  <SCORE.INTRA.VDW.0>
-1.95055

>  <SCORE.INTRA.norm>
-0.044388

>  <SCORE.RESTR>
0

>  <SCORE.RESTR.CAVITY>
0

>  <SCORE.RESTR.norm>
0

>  <SCORE.SYSTEM>
0

>  <SCORE.SYSTEM.CONST>
0

>  <SCORE.SYSTEM.DIHEDRAL>
0

>  <SCORE.SYSTEM.SOLV>
0

>  <SCORE.SYSTEM.norm>
0

>  <SCORE.heavy>
22

>  <SCORE.norm>
-0.263931

>  <RMSD>
6.427

$$$$
ligand
 OpenBabel11021811513D
libRbt.so/2013.1/901 2013/11/27
 22 23  0  0  0  0  0  0  0  0999 V2000
   28.6158   -3.4919  106.5627 N   0  0  0  0  0  0  0  0  0  0  0  0
   30.4605   -0.7420  105.6994 C   0  0  1  0  0  0  0  0  0  0  0  0
   29.8205   -1.9797  105.2306 O   0  0  0  0  0  0  0  0  0  0  0  0
   32.6486   -2.5784  108.2355 P   0  0  2  0  0  0  0  0  0  0  0  0
   28.6325   -2.1908  106.0493 C   0  0  2  0  0  0  0  0  0  0  0  0
   29.2261   -5.3190  107.6119 N   0  0  0  0  0  0  0  0  0  0  0  0
   27.3796   -0.7476  107.4860 O   0  0  0  0  0  0  0  0  0  0  0  0
   28.6967   -1.2069  107.1479 C   0  0  2  0  0  0  0  0  0  0  0  0
   26.9204   -7.5464  106.0466 N   0  0  0  0  0  0  0  0  0  0  0  0
   28.6651    0.8155  105.9020 O   0  0  0  0  0  0  0  0  0  0  0  0
   29.5121   -0.1056  106.6239 C   0  0  2  0  0  0  0  0  0  0  0  0
   28.0071   -5.5384  107.0819 C   0  0  0  0  0  0  0  0  0  0  0  0
   26.3862   -4.1927  105.7117 N   0  0  0  0  0  0  0  0  0  0  0  0
   31.4912   -2.1335  107.2833 O   0  0  0  0  0  0  0  0  0  0  0  0
   31.7191   -1.0662  106.4146 C   0  0  0  0  0  0  0  0  0  0  0  0
   33.8696   -3.1261  107.3829 O   0  0  0  0  0  0  0  0  0  0  0  0
   29.5860   -4.0555  107.2833 C   0  0  0  0  0  0  0  0  0  0  0  0
   26.8391   -7.1932  108.2954 O   0  0  0  0  0  0  0  0  0  0  0  0
   27.2227   -6.8082  107.1937 C   0  0  0  0  0  0  0  0  0  0  0  0
   27.6078   -4.3906  106.4127 C   0  0  0  0  0  0  0  0  0  0  0  0
   32.1827   -3.5885  109.2122 O   0  5  0  0  0  0  0  0  0  0  0  0
   33.0764   -1.4650  109.1251 O   0  0  0  0  0  0  0  0  0  0  0  0
  1 17  1  0  0  0  0
  1 20  1  0  0  0  0
  2 15  1  1  0  0  0
  2  3  1  0  0  0  0
  2 11  1  0  0  0  0
  3  5  1  0  0  0  0
  4 16  1  6  0  0  0
  4 21  1  0  0  0  0
  4 22  2  0  0  0  0
  4 14  1  0  0  0  0
  5  1  1  1  0  0  0
  5  8  1  0  0  0  0
  6 17  2  0  0  0  0
  6 12  1  0  0  0  0
  8  7  1  6  0  0  0
  8 11  1  0  0  0  0
  9 19  1  0  0  0  0
 11 10  1  6  0  0  0
 12 20  2  0  0  0  0
 12 19  1  0  0  0  0
 13 20  1  0  0  0  0
 14 15  1  0  0  0  0
 18 19  2  0  0  0  0
M  CHG  1  21  -1
M  END
>  <CHROM.1>
55.38095621,-44.99674380,-64.30817818,-175.02359325,-116.43050319,29.72421854
-3.03316729,107.09467971,2.45857850,0.35360132,2.88073670

>  <Name>
ligand

>  <RI>
0

>  <Rbt.Current_Directory>
/home/itssahil/PROJECTS/Mol_Feturizer/New_Systems/rnas/4XW7

>  <Rbt.Executable>
rbdock ($Id: //depot/dev/client3/rdock/2013.1/src/exe/rbdock.cxx#4 $)

>  <Rbt.Library>
libRbt.so (2013.1, Build901 2013/11/27)

>  <Rbt.Parameter_File>
/export/apps/rDock/src/rDock_2013.1_src/data/scripts/dock_solv.prm

>  <Rbt.Receptor>
prm/pocket_docking_6.prm

>  <SCORE>
-7.14423

>  <SCORE.INTER>
-6.56678

>  <SCORE.INTER.CONST>
1

>  <SCORE.INTER.POLAR>
0

>  <SCORE.INTER.ROT>
5

>  <SCORE.INTER.SOLV>
9.28326

>  <SCORE.INTER.VDW>
-14.4056

>  <SCORE.INTER.norm>
-0.29849

>  <SCORE.INTRA>
-0.577451

>  <SCORE.INTRA.DIHEDRAL>
-0.190328

>  <SCORE.INTRA.DIHEDRAL.0>
2.61549

>  <SCORE.INTRA.POLAR>
0

>  <SCORE.INTRA.POLAR.0>
0

>  <SCORE.INTRA.REPUL>
0

>  <SCORE.INTRA.REPUL.0>
0

>  <SCORE.INTRA.SOLV>
0.675473

>  <SCORE.INTRA.SOLV.lig_0>
-73.766

>  <SCORE.INTRA.VDW>
-0.820024

>  <SCORE.INTRA.VDW.0>
-1.95055

>  <SCORE.INTRA.norm>
-0.0262478

>  <SCORE.RESTR>
0

>  <SCORE.RESTR.CAVITY>
0

>  <SCORE.RESTR.norm>
0

>  <SCORE.SYSTEM>
0

>  <SCORE.SYSTEM.CONST>
0

>  <SCORE.SYSTEM.DIHEDRAL>
0

>  <SCORE.SYSTEM.SOLV>
0

>  <SCORE.SYSTEM.norm>
0

>  <SCORE.heavy>
22

>  <SCORE.norm>
-0.324738

>  <RMSD>
6.427

$$$$
ligand
 OpenBabel11021811513D
libRbt.so/2013.1/901 2013/11/27
 22 23  0  0  0  0  0  0  0  0999 V2000
   28.4946   -3.3776  106.3890 N   0  0  0  0  0  0  0  0  0  0  0  0
   30.3901   -0.6780  105.4784 C   0  0  1  0  0  0  0  0  0  0  0  0
   29.7401   -1.9196  105.0343 O   0  0  0  0  0  0  0  0  0  0  0  0
   32.4974   -2.3935  108.1646 P   0  0  2  0  0  0  0  0  0  0  0  0
   28.5371   -2.0917  105.8401 C   0  0  2  0  0  0  0  0  0  0  0  0
   29.0787   -5.1960  107.4679 N   0  0  0  0  0  0  0  0  0  0  0  0
   27.2827   -0.5921  107.2166 O   0  0  0  0  0  0  0  0  0  0  0  0
   28.5983   -1.0785  106.9117 C   0  0  2  0  0  0  0  0  0  0  0  0
   26.6246   -7.3675  106.0353 N   0  0  0  0  0  0  0  0  0  0  0  0
   28.6136    0.9086  105.6099 O   0  0  0  0  0  0  0  0  0  0  0  0
   29.4367   -0.0033  106.3701 C   0  0  2  0  0  0  0  0  0  0  0  0
   27.8365   -5.3881  106.9831 C   0  0  0  0  0  0  0  0  0  0  0  0
   26.2167   -4.0252  105.6287 N   0  0  0  0  0  0  0  0  0  0  0  0
   31.3509   -1.9570  107.1954 O   0  0  0  0  0  0  0  0  0  0  0  0
   31.6331   -0.9989  106.2217 C   0  0  0  0  0  0  0  0  0  0  0  0
   33.7448   -2.9075  107.3293 O   0  0  0  0  0  0  0  0  0  0  0  0
   29.4689   -3.9544  107.0937 C   0  0  0  0  0  0  0  0  0  0  0  0
   26.6790   -6.9858  108.2803 O   0  0  0  0  0  0  0  0  0  0  0  0
   27.0151   -6.6276  107.1543 C   0  0  0  0  0  0  0  0  0  0  0  0
   27.4534   -4.2455  106.2957 C   0  0  0  0  0  0  0  0  0  0  0  0
   32.0311   -3.4248  109.1187 O   0  5  0  0  0  0  0  0  0  0  0  0
   32.8871   -1.2844  109.0768 O   0  0  0  0  0  0  0  0  0  0  0  0
  1 17  1  0  0  0  0
  1 20  1  0  0  0  0
  2 15  1  1  0  0  0
  2  3  1  0  0  0  0
  2 11  1  0  0  0  0
  3  5  1  0  0  0  0
  4 16  1  6  0  0  0
  4 21  1  0  0  0  0
  4 22  2  0  0  0  0
  4 14  1  0  0  0  0
  5  1  1  1  0  0  0
  5  8  1  0  0  0  0
  6 17  2  0  0  0  0
  6 12  1  0  0  0  0
  8  7  1  6  0  0  0
  8 11  1  0  0  0  0
  9 19  1  0  0  0  0
 11 10  1  6  0  0  0
 12 20  2  0  0  0  0
 12 19  1  0  0  0  0
 13 20  1  0  0  0  0
 14 15  1  0  0  0  0
 18 19  2  0  0  0  0
M  CHG  1  21  -1
M  END
>  <CHROM.1>
52.43977361,-50.07215269,-55.67726718,-176.50190699,-117.95693558,29.58959813
-2.89040450,106.95828011,2.48657041,0.37509150,2.82938610

>  <Name>
ligand

>  <RI>
0

>  <Rbt.Current_Directory>
/home/itssahil/PROJECTS/Mol_Feturizer/New_Systems/rnas/4XW7

>  <Rbt.Executable>
rbdock ($Id: //depot/dev/client3/rdock/2013.1/src/exe/rbdock.cxx#4 $)

>  <Rbt.Library>
libRbt.so (2013.1, Build901 2013/11/27)

>  <Rbt.Parameter_File>
/export/apps/rDock/src/rDock_2013.1_src/data/scripts/dock_solv.prm

>  <Rbt.Receptor>
prm/pocket_docking_4.prm

>  <SCORE>
-7.22199

>  <SCORE.INTER>
-6.3452

>  <SCORE.INTER.CONST>
1

>  <SCORE.INTER.POLAR>
0

>  <SCORE.INTER.ROT>
5

>  <SCORE.INTER.SOLV>
9.01065

>  <SCORE.INTER.VDW>
-14.167

>  <SCORE.INTER.norm>
-0.288418

>  <SCORE.INTRA>
-0.876788

>  <SCORE.INTRA.DIHEDRAL>
-0.688793

>  <SCORE.INTRA.DIHEDRAL.0>
2.61549

>  <SCORE.INTRA.POLAR>
0

>  <SCORE.INTRA.POLAR.0>
0

>  <SCORE.INTRA.REPUL>
0

>  <SCORE.INTRA.REPUL.0>
0

>  <SCORE.INTRA.SOLV>
0.649201

>  <SCORE.INTRA.SOLV.lig_0>
-73.766

>  <SCORE.INTRA.VDW>
-0.856991

>  <SCORE.INTRA.VDW.0>
-1.95055

>  <SCORE.INTRA.norm>
-0.039854

>  <SCORE.RESTR>
0

>  <SCORE.RESTR.CAVITY>
0

>  <SCORE.RESTR.norm>
0

>  <SCORE.SYSTEM>
0

>  <SCORE.SYSTEM.CONST>
0

>  <SCORE.SYSTEM.DIHEDRAL>
0

>  <SCORE.SYSTEM.SOLV>
0

>  <SCORE.SYSTEM.norm>
0

>  <SCORE.heavy>
22

>  <SCORE.norm>
-0.328272

>  <RMSD>
6.431

$$$$
ligand
 OpenBabel11021811513D
libRbt.so/2013.1/901 2013/11/27
 22 23  0  0  0  0  0  0  0  0999 V2000
   28.5574   -2.3986  104.7852 N   0  0  0  0  0  0  0  0  0  0  0  0
   29.6321   -2.9520  107.9866 C   0  0  1  0  0  0  0  0  0  0  0  0
   28.9598   -2.0222  107.0674 O   0  0  0  0  0  0  0  0  0  0  0  0
   33.2678   -3.6307  108.8707 P   0  0  2  0  0  0  0  0  0  0  0  0
   28.2483   -2.8261  106.0807 C   0  0  2  0  0  0  0  0  0  0  0  0
   29.4697   -1.2929  103.1249 N   0  0  0  0  0  0  0  0  0  0  0  0
   27.6003   -5.1271  106.0308 O   0  0  0  0  0  0  0  0  0  0  0  0
   28.6863   -4.2218  106.2783 C   0  0  2  0  0  0  0  0  0  0  0  0
   28.6757   -3.6015  100.5251 N   0  0  0  0  0  0  0  0  0  0  0  0
   27.9655   -4.5751  108.5141 O   0  0  0  0  0  0  0  0  0  0  0  0
   29.1110   -4.2915  107.6808 C   0  0  2  0  0  0  0  0  0  0  0  0
   28.6170   -2.1932  102.5983 C   0  0  0  0  0  0  0  0  0  0  0  0
   27.0701   -3.9436  103.5253 N   0  0  0  0  0  0  0  0  0  0  0  0
   31.7250   -3.7720  108.6608 O   0  0  0  0  0  0  0  0  0  0  0  0
   31.0969   -2.9174  107.7548 C   0  0  0  0  0  0  0  0  0  0  0  0
   34.0114   -3.6907  107.4702 O   0  0  0  0  0  0  0  0  0  0  0  0
   29.4212   -1.4324  104.4710 C   0  0  0  0  0  0  0  0  0  0  0  0
   27.8454   -1.4808  100.4836 O   0  0  0  0  0  0  0  0  0  0  0  0
   28.3474   -2.3902  101.1393 C   0  0  0  0  0  0  0  0  0  0  0  0
   28.0301   -2.9002  103.6378 C   0  0  0  0  0  0  0  0  0  0  0  0
   33.7818   -4.6673  109.7939 O   0  5  0  0  0  0  0  0  0  0  0  0
   33.6028   -2.3770  109.5989 O   0  0  0  0  0  0  0  0  0  0  0  0
  1 17  1  0  0  0  0
  1 20  1  0  0  0  0
  2 15  1  6  0  0  0
  2  3  1  0  0  0  0
  2 11  1  0  0  0  0
  3  5  1  0  0  0  0
  4 16  1  6  0  0  0
  4 21  1  0  0  0  0
  4 22  2  0  0  0  0
  4 14  1  0  0  0  0
  5  1  1  6  0  0  0
  5  8  1  0  0  0  0
  6 17  2  0  0  0  0
  6 12  1  0  0  0  0
  8  7  1  1  0  0  0
  8 11  1  0  0  0  0
  9 19  1  0  0  0  0
 11 10  1  1  0  0  0
 12 20  2  0  0  0  0
 12 19  1  0  0  0  0
 13 20  1  0  0  0  0
 14 15  1  0  0  0  0
 18 19  2  0  0  0  0
M  CHG  1  21  -1
M  END
>  <CHROM.1>
2.65912500,178.16450804,-52.68321375,-164.17274139,116.22331844,29.98149130
-3.18187519,106.01594401,2.19109397,-0.24876976,-1.23554970

>  <Name>
ligand

>  <RI>
0

>  <Rbt.Current_Directory>
/home/itssahil/PROJECTS/Mol_Feturizer/New_Systems/rnas/4XW7

>  <Rbt.Executable>
rbdock ($Id: //depot/dev/client3/rdock/2013.1/src/exe/rbdock.cxx#4 $)

>  <Rbt.Library>
libRbt.so (2013.1, Build901 2013/11/27)

>  <Rbt.Parameter_File>
/export/apps/rDock/src/rDock_2013.1_src/data/scripts/dock_solv.prm

>  <Rbt.Receptor>
prm/pocket_docking_6.prm

>  <SCORE>
-6.75021

>  <SCORE.INTER>
-7.47964

>  <SCORE.INTER.CONST>
1

>  <SCORE.INTER.POLAR>
0

>  <SCORE.INTER.ROT>
5

>  <SCORE.INTER.SOLV>
9.53183

>  <SCORE.INTER.VDW>
-15.097

>  <SCORE.INTER.norm>
-0.339984

>  <SCORE.INTRA>
0.729436

>  <SCORE.INTRA.DIHEDRAL>
0.139711

>  <SCORE.INTRA.DIHEDRAL.0>
2.61549

>  <SCORE.INTRA.POLAR>
0

>  <SCORE.INTRA.POLAR.0>
0

>  <SCORE.INTRA.REPUL>
0

>  <SCORE.INTRA.REPUL.0>
0

>  <SCORE.INTRA.SOLV>
1.25135

>  <SCORE.INTRA.SOLV.lig_0>
-73.766

>  <SCORE.INTRA.VDW>
0.0339061

>  <SCORE.INTRA.VDW.0>
-1.95055

>  <SCORE.INTRA.norm>
0.0331562

>  <SCORE.RESTR>
0

>  <SCORE.RESTR.CAVITY>
0

>  <SCORE.RESTR.norm>
0

>  <SCORE.SYSTEM>
0

>  <SCORE.SYSTEM.CONST>
0

>  <SCORE.SYSTEM.DIHEDRAL>
0

>  <SCORE.SYSTEM.SOLV>
0

>  <SCORE.SYSTEM.norm>
0

>  <SCORE.heavy>
22

>  <SCORE.norm>
-0.306828

>  <RMSD>
6.431

$$$$
ligand
 OpenBabel11021811513D
libRbt.so/2013.1/901 2013/11/27
 22 23  0  0  0  0  0  0  0  0999 V2000
   28.5179   -3.4181  106.4071 N   0  0  0  0  0  0  0  0  0  0  0  0
   30.3307   -0.6701  105.4732 C   0  0  1  0  0  0  0  0  0  0  0  0
   29.7196   -1.9351  105.0400 O   0  0  0  0  0  0  0  0  0  0  0  0
   32.4905   -2.2964  108.1744 P   0  0  2  0  0  0  0  0  0  0  0  0
   28.5215   -2.1366  105.8463 C   0  0  2  0  0  0  0  0  0  0  0  0
   29.1420   -5.1956  107.5307 N   0  0  0  0  0  0  0  0  0  0  0  0
   27.2203   -0.6636  107.2081 O   0  0  0  0  0  0  0  0  0  0  0  0
   28.5505   -1.1122  106.9087 C   0  0  2  0  0  0  0  0  0  0  0  0
   25.8695   -6.7110  107.6589 N   0  0  0  0  0  0  0  0  0  0  0  0
   28.5063    0.8624  105.5887 O   0  0  0  0  0  0  0  0  0  0  0  0
   29.3562   -0.0168  106.3579 C   0  0  2  0  0  0  0  0  0  0  0  0
   27.9337   -5.4535  106.9935 C   0  0  0  0  0  0  0  0  0  0  0  0
   26.3109   -4.1847  105.5539 N   0  0  0  0  0  0  0  0  0  0  0  0
   31.3190   -1.8714  107.2303 O   0  0  0  0  0  0  0  0  0  0  0  0
   31.5822   -0.9459  106.2204 C   0  0  0  0  0  0  0  0  0  0  0  0
   33.7010   -2.8568  107.3150 O   0  0  0  0  0  0  0  0  0  0  0  0
   29.4869   -3.9395  107.1604 C   0  0  0  0  0  0  0  0  0  0  0  0
   27.6870   -7.7951  106.8163 O   0  0  0  0  0  0  0  0  0  0  0  0
   27.1675   -6.7307  107.1420 C   0  0  0  0  0  0  0  0  0  0  0  0
   27.5259   -4.3375  106.2774 C   0  0  0  0  0  0  0  0  0  0  0  0
   32.0405   -3.2895  109.1756 O   0  5  0  0  0  0  0  0  0  0  0  0
   32.9278   -1.1660  109.0375 O   0  0  0  0  0  0  0  0  0  0  0  0
  1 17  1  0  0  0  0
  1 20  1  0  0  0  0
  2 15  1  1  0  0  0
  2  3  1  0  0  0  0
  2 11  1  0  0  0  0
  3  5  1  0  0  0  0
  4 16  1  6  0  0  0
  4 21  1  0  0  0  0
  4 22  2  0  0  0  0
  4 14  1  0  0  0  0
  5  1  1  1  0  0  0
  5  8  1  0  0  0  0
  6 17  2  0  0  0  0
  6 12  1  0  0  0  0
  8  7  1  6  0  0  0
  8 11  1  0  0  0  0
  9 19  1  0  0  0  0
 11 10  1  6  0  0  0
 12 20  2  0  0  0  0
 12 19  1  0  0  0  0
 13 20  1  0  0  0  0
 14 15  1  0  0  0  0
 18 19  2  0  0  0  0
M  CHG  1  21  -1
M  END
>  <CHROM.1>
55.15983585,-51.95151651,-55.87158906,-178.77049012,123.79683494,29.60522858
-2.89870516,106.95915501,2.44292631,0.36729799,2.86322011

>  <Name>
ligand

>  <RI>
0

>  <Rbt.Current_Directory>
/home/itssahil/PROJECTS/Mol_Feturizer/New_Systems/rnas/4XW7

>  <Rbt.Executable>
rbdock ($Id: //depot/dev/client3/rdock/2013.1/src/exe/rbdock.cxx#4 $)

>  <Rbt.Library>
libRbt.so (2013.1, Build901 2013/11/27)

>  <Rbt.Parameter_File>
/export/apps/rDock/src/rDock_2013.1_src/data/scripts/dock_solv.prm

>  <Rbt.Receptor>
prm/pocket_docking_4.prm

>  <SCORE>
-7.20568

>  <SCORE.INTER>
-6.23894

>  <SCORE.INTER.CONST>
1

>  <SCORE.INTER.POLAR>
0

>  <SCORE.INTER.ROT>
5

>  <SCORE.INTER.SOLV>
8.94095

>  <SCORE.INTER.VDW>
-14.0729

>  <SCORE.INTER.norm>
-0.283588

>  <SCORE.INTRA>
-0.966745

>  <SCORE.INTRA.DIHEDRAL>
-0.850108

>  <SCORE.INTRA.DIHEDRAL.0>
2.61549

>  <SCORE.INTRA.POLAR>
0

>  <SCORE.INTRA.POLAR.0>
0

>  <SCORE.INTRA.REPUL>
0

>  <SCORE.INTRA.REPUL.0>
0

>  <SCORE.INTRA.SOLV>
0.563191

>  <SCORE.INTRA.SOLV.lig_0>
-73.766

>  <SCORE.INTRA.VDW>
-0.823286

>  <SCORE.INTRA.VDW.0>
-1.95055

>  <SCORE.INTRA.norm>
-0.0439429

>  <SCORE.RESTR>
0

>  <SCORE.RESTR.CAVITY>
0

>  <SCORE.RESTR.norm>
0

>  <SCORE.SYSTEM>
0

>  <SCORE.SYSTEM.CONST>
0

>  <SCORE.SYSTEM.DIHEDRAL>
0

>  <SCORE.SYSTEM.SOLV>
0

>  <SCORE.SYSTEM.norm>
0

>  <SCORE.heavy>
22

>  <SCORE.norm>
-0.327531

>  <RMSD>
6.436

$$$$
ligand
 OpenBabel11021811513D
libRbt.so/2013.1/901 2013/11/27
 22 23  0  0  0  0  0  0  0  0999 V2000
   28.5136   -3.3749  106.3559 N   0  0  0  0  0  0  0  0  0  0  0  0
   30.3921   -0.6598  105.4561 C   0  0  1  0  0  0  0  0  0  0  0  0
   29.7547   -1.9066  105.0083 O   0  0  0  0  0  0  0  0  0  0  0  0
   32.5050   -2.3791  108.1360 P   0  0  2  0  0  0  0  0  0  0  0  0
   28.5487   -2.0887  105.8073 C   0  0  2  0  0  0  0  0  0  0  0  0
   29.0880   -5.1730  107.4733 N   0  0  0  0  0  0  0  0  0  0  0  0
   27.2745   -0.5996  107.1770 O   0  0  0  0  0  0  0  0  0  0  0  0
   28.5957   -1.0751  106.8794 C   0  0  2  0  0  0  0  0  0  0  0  0
   25.7850   -6.6318  107.5223 N   0  0  0  0  0  0  0  0  0  0  0  0
   28.6019    0.9122  105.5779 O   0  0  0  0  0  0  0  0  0  0  0  0
   29.4282    0.0070  106.3426 C   0  0  2  0  0  0  0  0  0  0  0  0
   27.8849   -5.4052  106.9134 C   0  0  0  0  0  0  0  0  0  0  0  0
   26.3088   -4.0958  105.4583 N   0  0  0  0  0  0  0  0  0  0  0  0
   31.3558   -1.9379  107.1722 O   0  0  0  0  0  0  0  0  0  0  0  0
   31.6335   -0.9706  106.2063 C   0  0  0  0  0  0  0  0  0  0  0  0
   33.7161   -2.9699  107.2980 O   0  0  0  0  0  0  0  0  0  0  0  0
   29.4606   -3.9197  107.1207 C   0  0  0  0  0  0  0  0  0  0  0  0
   27.6046   -7.7416  106.7185 O   0  0  0  0  0  0  0  0  0  0  0  0
   27.0946   -6.6703  107.0369 C   0  0  0  0  0  0  0  0  0  0  0  0
   27.5085   -4.2759  106.2008 C   0  0  0  0  0  0  0  0  0  0  0  0
   32.0212   -3.3555  109.1378 O   0  5  0  0  0  0  0  0  0  0  0  0
   32.9527   -1.2512  108.9971 O   0  0  0  0  0  0  0  0  0  0  0  0
  1 17  1  0  0  0  0
  1 20  1  0  0  0  0
  2 15  1  1  0  0  0
  2  3  1  0  0  0  0
  2 11  1  0  0  0  0
  3  5  1  0  0  0  0
  4 16  1  6  0  0  0
  4 21  1  0  0  0  0
  4 22  2  0  0  0  0
  4 14  1  0  0  0  0
  5  1  1  1  0  0  0
  5  8  1  0  0  0  0
  6 17  2  0  0  0  0
  6 12  1  0  0  0  0
  8  7  1  6  0  0  0
  8 11  1  0  0  0  0
  9 19  1  0  0  0  0
 11 10  1  6  0  0  0
 12 20  2  0  0  0  0
 12 19  1  0  0  0  0
 13 20  1  0  0  0  0
 14 15  1  0  0  0  0
 18 19  2  0  0  0  0
M  CHG  1  21  -1
M  END
>  <CHROM.1>
55.93665391,-49.66818908,-59.33662468,-177.21196786,124.28119385,29.61248017
-2.89250118,106.90967373,2.46545171,0.36368426,2.86746957

>  <Name>
ligand

>  <RI>
0

>  <Rbt.Current_Directory>
/home/itssahil/PROJECTS/Mol_Feturizer/New_Systems/rnas/4XW7

>  <Rbt.Executable>
rbdock ($Id: //depot/dev/client3/rdock/2013.1/src/exe/rbdock.cxx#4 $)

>  <Rbt.Library>
libRbt.so (2013.1, Build901 2013/11/27)

>  <Rbt.Parameter_File>
/export/apps/rDock/src/rDock_2013.1_src/data/scripts/dock_solv.prm

>  <Rbt.Receptor>
prm/pocket_docking_4.prm

>  <SCORE>
-7.25067

>  <SCORE.INTER>
-6.37688

>  <SCORE.INTER.CONST>
1

>  <SCORE.INTER.POLAR>
0

>  <SCORE.INTER.ROT>
5

>  <SCORE.INTER.SOLV>
9.27227

>  <SCORE.INTER.VDW>
-14.2753

>  <SCORE.INTER.norm>
-0.289858

>  <SCORE.INTRA>
-0.873788

>  <SCORE.INTRA.DIHEDRAL>
-0.694076

>  <SCORE.INTRA.DIHEDRAL.0>
2.61549

>  <SCORE.INTRA.POLAR>
0

>  <SCORE.INTRA.POLAR.0>
0

>  <SCORE.INTRA.REPUL>
0

>  <SCORE.INTRA.REPUL.0>
0

>  <SCORE.INTRA.SOLV>
0.599765

>  <SCORE.INTRA.SOLV.lig_0>
-73.766

>  <SCORE.INTRA.VDW>
-0.826633

>  <SCORE.INTRA.VDW.0>
-1.95055

>  <SCORE.INTRA.norm>
-0.0397176

>  <SCORE.RESTR>
0

>  <SCORE.RESTR.CAVITY>
0

>  <SCORE.RESTR.norm>
0

>  <SCORE.SYSTEM>
0

>  <SCORE.SYSTEM.CONST>
0

>  <SCORE.SYSTEM.DIHEDRAL>
0

>  <SCORE.SYSTEM.SOLV>
0

>  <SCORE.SYSTEM.norm>
0

>  <SCORE.heavy>
22

>  <SCORE.norm>
-0.329576

>  <RMSD>
6.441

$$$$
ligand
 OpenBabel11021811513D
libRbt.so/2013.1/901 2013/11/27
 22 23  0  0  0  0  0  0  0  0999 V2000
   28.1999   -3.2640  105.7675 N   0  0  0  0  0  0  0  0  0  0  0  0
   30.4631   -0.7142  106.0613 C   0  0  1  0  0  0  0  0  0  0  0  0
   30.0182   -1.8666  105.2642 O   0  0  0  0  0  0  0  0  0  0  0  0
   32.7429   -3.1130  107.8649 P   0  0  2  0  0  0  0  0  0  0  0  0
   28.5707   -1.9631  105.4115 C   0  0  2  0  0  0  0  0  0  0  0  0
   28.1485   -5.2022  106.7934 N   0  0  0  0  0  0  0  0  0  0  0  0
   26.9159   -0.4196  106.1838 O   0  0  0  0  0  0  0  0  0  0  0  0
   28.1903   -1.0124  106.4747 C   0  0  2  0  0  0  0  0  0  0  0  0
   26.2586   -7.4778  106.3905 N   0  0  0  0  0  0  0  0  0  0  0  0
   28.9291    1.0243  105.5002 O   0  0  0  0  0  0  0  0  0  0  0  0
   29.2485    0.0038  106.4716 C   0  0  2  0  0  0  0  0  0  0  0  0
   27.1803   -5.2084  105.8567 C   0  0  0  0  0  0  0  0  0  0  0  0
   26.3471   -3.5755  104.1377 N   0  0  0  0  0  0  0  0  0  0  0  0
   32.2367   -2.0265  106.8611 O   0  0  0  0  0  0  0  0  0  0  0  0
   31.1978   -1.1857  107.2607 C   0  0  0  0  0  0  0  0  0  0  0  0
   31.7322   -4.3359  107.8925 O   0  0  0  0  0  0  0  0  0  0  0  0
   28.7661   -3.9989  106.7255 C   0  0  0  0  0  0  0  0  0  0  0  0
   25.4766   -6.2773  104.6197 O   0  0  0  0  0  0  0  0  0  0  0  0
   26.2463   -6.3435  105.5748 C   0  0  0  0  0  0  0  0  0  0  0  0
   27.2014   -3.9879  105.1973 C   0  0  0  0  0  0  0  0  0  0  0  0
   32.9340   -2.5464  109.2190 O   0  5  0  0  0  0  0  0  0  0  0  0
   34.1187   -3.5661  107.5242 O   0  0  0  0  0  0  0  0  0  0  0  0
  1 17  1  0  0  0  0
  1 20  1  0  0  0  0
  2 15  1  1  0  0  0
  2  3  1  0  0  0  0
  2 11  1  0  0  0  0
  3  5  1  0  0  0  0
  4 16  1  1  0  0  0
  4 21  1  0  0  0  0
  4 22  2  0  0  0  0
  4 14  1  0  0  0  0
  5  1  1  1  0  0  0
  5  8  1  0  0  0  0
  6 17  2  0  0  0  0
  6 12  1  0  0  0  0
  8  7  1  6  0  0  0
  8 11  1  0  0  0  0
  9 19  1  0  0  0  0
 11 10  1  6  0  0  0
 12 20  2  0  0  0  0
 12 19  1  0  0  0  0
 13 20  1  0  0  0  0
 14 15  1  0  0  0  0
 18 19  2  0  0  0  0
M  CHG  1  21  -1
M  END
>  <CHROM.1>
47.24089053,54.66087919,77.63867805,-153.58362095,5.67345375,29.42733499
-3.00578776,106.42967003,2.76670704,0.41036831,3.00087215

>  <Name>
ligand

>  <RI>
0

>  <Rbt.Current_Directory>
/home/itssahil/PROJECTS/Mol_Feturizer/New_Systems/rnas/4XW7

>  <Rbt.Executable>
rbdock ($Id: //depot/dev/client3/rdock/2013.1/src/exe/rbdock.cxx#4 $)

>  <Rbt.Library>
libRbt.so (2013.1, Build901 2013/11/27)

>  <Rbt.Parameter_File>
/export/apps/rDock/src/rDock_2013.1_src/data/scripts/dock_solv.prm

>  <Rbt.Receptor>
prm/pocket_docking_3.prm

>  <SCORE>
-4.5626

>  <SCORE.INTER>
-4.94084

>  <SCORE.INTER.CONST>
1

>  <SCORE.INTER.POLAR>
0

>  <SCORE.INTER.ROT>
5

>  <SCORE.INTER.SOLV>
15.8509

>  <SCORE.INTER.VDW>
-15.5109

>  <SCORE.INTER.norm>
-0.224584

>  <SCORE.INTRA>
0.378238

>  <SCORE.INTRA.DIHEDRAL>
2.38952

>  <SCORE.INTRA.DIHEDRAL.0>
2.61549

>  <SCORE.INTRA.POLAR>
0

>  <SCORE.INTRA.POLAR.0>
0

>  <SCORE.INTRA.REPUL>
0

>  <SCORE.INTRA.REPUL.0>
0

>  <SCORE.INTRA.SOLV>
-0.163342

>  <SCORE.INTRA.SOLV.lig_0>
-73.766

>  <SCORE.INTRA.VDW>
-0.73485

>  <SCORE.INTRA.VDW.0>
-1.95055

>  <SCORE.INTRA.norm>
0.0171926

>  <SCORE.RESTR>
0

>  <SCORE.RESTR.CAVITY>
0

>  <SCORE.RESTR.norm>
0

>  <SCORE.SYSTEM>
0

>  <SCORE.SYSTEM.CONST>
0

>  <SCORE.SYSTEM.DIHEDRAL>
0

>  <SCORE.SYSTEM.SOLV>
0

>  <SCORE.SYSTEM.norm>
0

>  <SCORE.heavy>
22

>  <SCORE.norm>
-0.207391

>  <RMSD>
6.447

$$$$
ligand
 OpenBabel11021811513D
libRbt.so/2013.1/901 2013/11/27
 22 23  0  0  0  0  0  0  0  0999 V2000
   29.1568   -2.6934  106.6459 N   0  0  0  0  0  0  0  0  0  0  0  0
   31.9652   -1.0336  107.6794 C   0  0  1  0  0  0  0  0  0  0  0  0
   31.0546   -1.3138  106.5597 O   0  0  0  0  0  0  0  0  0  0  0  0
   32.7692   -4.5863  108.7671 P   0  0  2  0  0  0  0  0  0  0  0  0
   29.7227   -1.5058  107.1213 C   0  0  2  0  0  0  0  0  0  0  0  0
   28.6700   -4.8212  106.4288 N   0  0  0  0  0  0  0  0  0  0  0  0
   28.7660   -0.9566  109.2426 O   0  0  0  0  0  0  0  0  0  0  0  0
   29.8874   -1.5670  108.5869 C   0  0  2  0  0  0  0  0  0  0  0  0
   27.3586   -4.7023  103.1285 N   0  0  0  0  0  0  0  0  0  0  0  0
   30.8078    0.5845  108.9959 O   0  0  0  0  0  0  0  0  0  0  0  0
   31.1196   -0.8198  108.8620 C   0  0  2  0  0  0  0  0  0  0  0  0
   27.9758   -4.1443  105.4934 C   0  0  0  0  0  0  0  0  0  0  0  0
   27.7598   -1.7308  104.8270 N   0  0  0  0  0  0  0  0  0  0  0  0
   32.0841   -3.3335  108.1304 O   0  0  0  0  0  0  0  0  0  0  0  0
   32.8590   -2.1960  107.9039 C   0  0  0  0  0  0  0  0  0  0  0  0
   34.1966   -4.8130  108.1121 O   0  0  0  0  0  0  0  0  0  0  0  0
   29.3912   -3.9140  107.1292 C   0  0  0  0  0  0  0  0  0  0  0  0
   26.0027   -5.2791  104.8655 O   0  0  0  0  0  0  0  0  0  0  0  0
   27.0453   -4.7495  104.4893 C   0  0  0  0  0  0  0  0  0  0  0  0
   28.2750   -2.7953  105.6172 C   0  0  0  0  0  0  0  0  0  0  0  0
   31.9203   -5.7911  108.6294 O   0  5  0  0  0  0  0  0  0  0  0  0
   32.8761   -4.4527  110.2452 O   0  0  0  0  0  0  0  0  0  0  0  0
  1 17  1  0  0  0  0
  1 20  1  0  0  0  0
  2 15  1  1  0  0  0
  2  3  1  0  0  0  0
  2 11  1  0  0  0  0
  3  5  1  0  0  0  0
  4 16  1  6  0  0  0
  4 21  1  0  0  0  0
  4 22  2  0  0  0  0
  4 14  1  0  0  0  0
  5  1  1  6  0  0  0
  5  8  1  0  0  0  0
  6 17  2  0  0  0  0
  6 12  1  0  0  0  0
  8  7  1  1  0  0  0
  8 11  1  0  0  0  0
  9 19  1  0  0  0  0
 11 10  1  6  0  0  0
 12 20  2  0  0  0  0
 12 19  1  0  0  0  0
 13 20  1  0  0  0  0
 14 15  1  0  0  0  0
 18 19  2  0  0  0  0
M  CHG  1  21  -1
M  END
>  <CHROM.1>
82.09124961,-56.72824481,-42.20443819,-163.68796426,-113.99278040,30.29664668
-3.11546049,107.31079799,2.85884785,0.60427607,-2.86391734

>  <Name>
ligand

>  <RI>
0

>  <Rbt.Current_Directory>
/home/itssahil/PROJECTS/Mol_Feturizer/New_Systems/rnas/4XW7

>  <Rbt.Executable>
rbdock ($Id: //depot/dev/client3/rdock/2013.1/src/exe/rbdock.cxx#4 $)

>  <Rbt.Library>
libRbt.so (2013.1, Build901 2013/11/27)

>  <Rbt.Parameter_File>
/export/apps/rDock/src/rDock_2013.1_src/data/scripts/dock_solv.prm

>  <Rbt.Receptor>
prm/pocket_docking_4.prm

>  <SCORE>
-5.02794

>  <SCORE.INTER>
-5.29662

>  <SCORE.INTER.CONST>
1

>  <SCORE.INTER.POLAR>
0

>  <SCORE.INTER.ROT>
5

>  <SCORE.INTER.SOLV>
11.4349

>  <SCORE.INTER.VDW>
-14.276

>  <SCORE.INTER.norm>
-0.240756

>  <SCORE.INTRA>
0.268683

>  <SCORE.INTRA.DIHEDRAL>
0.661264

>  <SCORE.INTRA.DIHEDRAL.0>
2.61549

>  <SCORE.INTRA.POLAR>
0

>  <SCORE.INTRA.POLAR.0>
0

>  <SCORE.INTRA.REPUL>
0

>  <SCORE.INTRA.REPUL.0>
0

>  <SCORE.INTRA.SOLV>
0.362143

>  <SCORE.INTRA.SOLV.lig_0>
-73.766

>  <SCORE.INTRA.VDW>
-0.24302

>  <SCORE.INTRA.VDW.0>
-1.95055

>  <SCORE.INTRA.norm>
0.0122129

>  <SCORE.RESTR>
0

>  <SCORE.RESTR.CAVITY>
0

>  <SCORE.RESTR.norm>
0

>  <SCORE.SYSTEM>
0

>  <SCORE.SYSTEM.CONST>
0

>  <SCORE.SYSTEM.DIHEDRAL>
0

>  <SCORE.SYSTEM.SOLV>
0

>  <SCORE.SYSTEM.norm>
0

>  <SCORE.heavy>
22

>  <SCORE.norm>
-0.228543

>  <RMSD>
6.448

$$$$
ligand
 OpenBabel11021811513D
libRbt.so/2013.1/901 2013/11/27
 22 23  0  0  0  0  0  0  0  0999 V2000
   28.2846   -3.1697  103.4480 N   0  0  0  0  0  0  0  0  0  0  0  0
   28.3284   -6.1834  101.8276 C   0  0  1  0  0  0  0  0  0  0  0  0
   28.6542   -5.4560  103.0629 O   0  0  0  0  0  0  0  0  0  0  0  0
   31.6489   -4.8685  100.4677 P   0  0  2  0  0  0  0  0  0  0  0  0
   27.6605   -4.4006  103.2200 C   0  0  2  0  0  0  0  0  0  0  0  0
   29.4202   -1.3229  103.1139 N   0  0  0  0  0  0  0  0  0  0  0  0
   25.5140   -4.0383  102.2308 O   0  0  0  0  0  0  0  0  0  0  0  0
   26.8874   -4.3584  101.9632 C   0  0  2  0  0  0  0  0  0  0  0  0
   30.2233   -0.5138  106.4436 N   0  0  0  0  0  0  0  0  0  0  0  0
   25.9752   -6.5518  101.9581 O   0  0  0  0  0  0  0  0  0  0  0  0
   27.0057   -5.7076  101.3993 C   0  0  2  0  0  0  0  0  0  0  0  0
   29.0223   -1.3323  104.4009 C   0  0  0  0  0  0  0  0  0  0  0  0
   27.7028   -2.9040  105.8516 N   0  0  0  0  0  0  0  0  0  0  0  0
   30.4312   -5.2462  101.3725 O   0  0  0  0  0  0  0  0  0  0  0  0
   29.3357   -5.8766  100.7826 C   0  0  0  0  0  0  0  0  0  0  0  0
   32.6871   -3.9985  101.2943 O   0  0  0  0  0  0  0  0  0  0  0  0
   28.9582   -2.4601  102.5418 C   0  0  0  0  0  0  0  0  0  0  0  0
   28.7439    0.8178  105.3361 O   0  0  0  0  0  0  0  0  0  0  0  0
   29.3136   -0.2678  105.4120 C   0  0  0  0  0  0  0  0  0  0  0  0
   28.3032   -2.4967  104.6282 C   0  0  0  0  0  0  0  0  0  0  0  0
   31.2102   -4.1586   99.2450 O   0  5  0  0  0  0  0  0  0  0  0  0
   32.3003   -6.0809   99.9023 O   0  0  0  0  0  0  0  0  0  0  0  0
  1 17  1  0  0  0  0
  1 20  1  0  0  0  0
  2 15  1  6  0  0  0
  2  3  1  0  0  0  0
  2 11  1  0  0  0  0
  3  5  1  0  0  0  0
  4 16  1  1  0  0  0
  4 21  1  0  0  0  0
  4 22  2  0  0  0  0
  4 14  1  0  0  0  0
  5  1  1  6  0  0  0
  5  8  1  0  0  0  0
  6 17  2  0  0  0  0
  6 12  1  0  0  0  0
  8  7  1  1  0  0  0
  8 11  1  0  0  0  0
  9 19  1  0  0  0  0
 11 10  1  1  0  0  0
 12 20  2  0  0  0  0
 12 19  1  0  0  0  0
 13 20  1  0  0  0  0
 14 15  1  0  0  0  0
 18 19  2  0  0  0  0
M  CHG  1  21  -1
M  END
>  <CHROM.1>
71.89637206,13.30636458,172.54252404,177.97092761,-108.45072825,29.16210190
-3.78863304,102.53227976,1.86998458,0.32930321,0.70486424

>  <Name>
ligand

>  <RI>
0

>  <Rbt.Current_Directory>
/home/itssahil/PROJECTS/Mol_Feturizer/New_Systems/rnas/4XW7

>  <Rbt.Executable>
rbdock ($Id: //depot/dev/client3/rdock/2013.1/src/exe/rbdock.cxx#4 $)

>  <Rbt.Library>
libRbt.so (2013.1, Build901 2013/11/27)

>  <Rbt.Parameter_File>
/export/apps/rDock/src/rDock_2013.1_src/data/scripts/dock_solv.prm

>  <Rbt.Receptor>
prm/pocket_docking_7.prm

>  <SCORE>
-6.40592

>  <SCORE.INTER>
-8.20393

>  <SCORE.INTER.CONST>
1

>  <SCORE.INTER.POLAR>
0

>  <SCORE.INTER.ROT>
5

>  <SCORE.INTER.SOLV>
12.3132

>  <SCORE.INTER.VDW>
-16.507

>  <SCORE.INTER.norm>
-0.372906

>  <SCORE.INTRA>
1.78766

>  <SCORE.INTRA.DIHEDRAL>
3.73265

>  <SCORE.INTRA.DIHEDRAL.0>
2.61549

>  <SCORE.INTRA.POLAR>
0

>  <SCORE.INTRA.POLAR.0>
0

>  <SCORE.INTRA.REPUL>
0

>  <SCORE.INTRA.REPUL.0>
0

>  <SCORE.INTRA.SOLV>
-0.23304

>  <SCORE.INTRA.SOLV.lig_0>
-73.766

>  <SCORE.INTRA.VDW>
0.0378609

>  <SCORE.INTRA.VDW.0>
-1.95055

>  <SCORE.INTRA.norm>
0.0812574

>  <SCORE.RESTR>
0.0103471

>  <SCORE.RESTR.CAVITY>
0.0103471

>  <SCORE.RESTR.norm>
0.000470323

>  <SCORE.SYSTEM>
0

>  <SCORE.SYSTEM.CONST>
0

>  <SCORE.SYSTEM.DIHEDRAL>
0

>  <SCORE.SYSTEM.SOLV>
0

>  <SCORE.SYSTEM.norm>
0

>  <SCORE.heavy>
22

>  <SCORE.norm>
-0.291178

>  <RMSD>
6.451

$$$$
ligand
 OpenBabel11021811513D
libRbt.so/2013.1/901 2013/11/27
 22 23  0  0  0  0  0  0  0  0999 V2000
   28.6821   -3.6799  106.8519 N   0  0  0  0  0  0  0  0  0  0  0  0
   30.3777   -0.8914  105.8228 C   0  0  1  0  0  0  0  0  0  0  0  0
   29.7520   -2.1589  105.4187 O   0  0  0  0  0  0  0  0  0  0  0  0
   32.7618   -2.5317  108.3172 P   0  0  2  0  0  0  0  0  0  0  0  0
   28.6239   -2.3904  106.3131 C   0  0  2  0  0  0  0  0  0  0  0  0
   29.4476   -5.4972  107.8128 N   0  0  0  0  0  0  0  0  0  0  0  0
   27.4134   -0.9575  107.7959 O   0  0  0  0  0  0  0  0  0  0  0  0
   28.7221   -1.3815  107.3861 C   0  0  2  0  0  0  0  0  0  0  0  0
   26.4130   -6.9638  108.8226 N   0  0  0  0  0  0  0  0  0  0  0  0
   28.5469    0.6115  106.1053 O   0  0  0  0  0  0  0  0  0  0  0  0
   29.4667   -0.2661  106.7915 C   0  0  2  0  0  0  0  0  0  0  0  0
   28.1476   -5.7023  107.5248 C   0  0  0  0  0  0  0  0  0  0  0  0
   26.3216   -4.3521  106.4487 N   0  0  0  0  0  0  0  0  0  0  0  0
   31.5295   -2.1506  107.4337 O   0  0  0  0  0  0  0  0  0  0  0  0
   31.6878   -1.1594  106.4651 C   0  0  0  0  0  0  0  0  0  0  0  0
   33.9553   -3.0256  107.3955 O   0  0  0  0  0  0  0  0  0  0  0  0
   29.7605   -4.2484  107.3925 C   0  0  0  0  0  0  0  0  0  0  0  0
   27.6023   -7.9706  107.1612 O   0  0  0  0  0  0  0  0  0  0  0  0
   27.3773   -6.9531  107.8116 C   0  0  0  0  0  0  0  0  0  0  0  0
   27.6492   -4.5605  106.9142 C   0  0  0  0  0  0  0  0  0  0  0  0
   32.4047   -3.5560  109.3244 O   0  5  0  0  0  0  0  0  0  0  0  0
   33.1866   -1.3922  109.1746 O   0  0  0  0  0  0  0  0  0  0  0  0
  1 17  1  0  0  0  0
  1 20  1  0  0  0  0
  2 15  1  1  0  0  0
  2  3  1  0  0  0  0
  2 11  1  0  0  0  0
  3  5  1  0  0  0  0
  4 16  1  6  0  0  0
  4 21  1  0  0  0  0
  4 22  2  0  0  0  0
  4 14  1  0  0  0  0
  5  1  1  1  0  0  0
  5  8  1  0  0  0  0
  6 17  2  0  0  0  0
  6 12  1  0  0  0  0
  8  7  1  6  0  0  0
  8 11  1  0  0  0  0
  9 19  1  0  0  0  0
 11 10  1  6  0  0  0
 12 20  2  0  0  0  0
 12 19  1  0  0  0  0
 13 20  1  0  0  0  0
 14 15  1  0  0  0  0
 18 19  2  0  0  0  0
M  CHG  1  21  -1
M  END
>  <CHROM.1>
47.56642435,-49.10769882,-58.68975866,-175.78331317,108.29123280,29.78753948
-3.13933773,107.36196714,2.41501013,0.27817299,2.86468124

>  <Name>
ligand

>  <RI>
0

>  <Rbt.Current_Directory>
/home/itssahil/PROJECTS/Mol_Feturizer/New_Systems/rnas/4XW7

>  <Rbt.Executable>
rbdock ($Id: //depot/dev/client3/rdock/2013.1/src/exe/rbdock.cxx#4 $)

>  <Rbt.Library>
libRbt.so (2013.1, Build901 2013/11/27)

>  <Rbt.Parameter_File>
/export/apps/rDock/src/rDock_2013.1_src/data/scripts/dock_solv.prm

>  <Rbt.Receptor>
prm/pocket_docking_3.prm

>  <SCORE>
-6.74229

>  <SCORE.INTER>
-5.9544

>  <SCORE.INTER.CONST>
1

>  <SCORE.INTER.POLAR>
0

>  <SCORE.INTER.ROT>
5

>  <SCORE.INTER.SOLV>
8.45742

>  <SCORE.INTER.VDW>
-13.7221

>  <SCORE.INTER.norm>
-0.270655

>  <SCORE.INTRA>
-0.799399

>  <SCORE.INTRA.DIHEDRAL>
-0.476398

>  <SCORE.INTRA.DIHEDRAL.0>
2.61549

>  <SCORE.INTRA.POLAR>
0

>  <SCORE.INTRA.POLAR.0>
0

>  <SCORE.INTRA.REPUL>
0

>  <SCORE.INTRA.REPUL.0>
0

>  <SCORE.INTRA.SOLV>
0.726416

>  <SCORE.INTRA.SOLV.lig_0>
-73.766

>  <SCORE.INTRA.VDW>
-0.924407

>  <SCORE.INTRA.VDW.0>
-1.95055

>  <SCORE.INTRA.norm>
-0.0363363

>  <SCORE.RESTR>
0.0115064

>  <SCORE.RESTR.CAVITY>
0.0115064

>  <SCORE.RESTR.norm>
0.000523018

>  <SCORE.SYSTEM>
0

>  <SCORE.SYSTEM.CONST>
0

>  <SCORE.SYSTEM.DIHEDRAL>
0

>  <SCORE.SYSTEM.SOLV>
0

>  <SCORE.SYSTEM.norm>
0

>  <SCORE.heavy>
22

>  <SCORE.norm>
-0.306468

>  <RMSD>
6.453

$$$$
ligand
 OpenBabel11021811513D
libRbt.so/2013.1/901 2013/11/27
 22 23  0  0  0  0  0  0  0  0999 V2000
   28.7470   -3.6854  106.8668 N   0  0  0  0  0  0  0  0  0  0  0  0
   30.4244   -0.8776  105.8606 C   0  0  1  0  0  0  0  0  0  0  0  0
   29.8196   -2.1526  105.4483 O   0  0  0  0  0  0  0  0  0  0  0  0
   32.8045   -2.5181  108.3606 P   0  0  2  0  0  0  0  0  0  0  0  0
   28.6814   -2.3969  106.3264 C   0  0  2  0  0  0  0  0  0  0  0  0
   29.5120   -5.4835  107.8634 N   0  0  0  0  0  0  0  0  0  0  0  0
   27.4328   -0.9777  107.7906 O   0  0  0  0  0  0  0  0  0  0  0  0
   28.7522   -1.3864  107.4001 C   0  0  2  0  0  0  0  0  0  0  0  0
   26.9368   -7.7030  106.6871 N   0  0  0  0  0  0  0  0  0  0  0  0
   28.5721    0.6038  106.1155 O   0  0  0  0  0  0  0  0  0  0  0  0
   29.4921   -0.2625  106.8155 C   0  0  2  0  0  0  0  0  0  0  0  0
   28.2336   -5.7223  107.5116 C   0  0  0  0  0  0  0  0  0  0  0  0
   26.4278   -4.4187  106.3474 N   0  0  0  0  0  0  0  0  0  0  0  0
   31.5579   -2.0892  107.5202 O   0  0  0  0  0  0  0  0  0  0  0  0
   31.7280   -1.1298  106.5220 C   0  0  0  0  0  0  0  0  0  0  0  0
   33.9469   -3.0533  107.3982 O   0  0  0  0  0  0  0  0  0  0  0  0
   29.8121   -4.2263  107.4596 C   0  0  0  0  0  0  0  0  0  0  0  0
   27.3428   -7.4047  108.9085 O   0  0  0  0  0  0  0  0  0  0  0  0
   27.4833   -6.9935  107.7595 C   0  0  0  0  0  0  0  0  0  0  0  0
   27.7359   -4.5930  106.8777 C   0  0  0  0  0  0  0  0  0  0  0  0
   32.4441   -3.5312  109.3779 O   0  5  0  0  0  0  0  0  0  0  0  0
   33.3002   -1.3975  109.2048 O   0  0  0  0  0  0  0  0  0  0  0  0
  1 17  1  0  0  0  0
  1 20  1  0  0  0  0
  2 15  1  1  0  0  0
  2  3  1  0  0  0  0
  2 11  1  0  0  0  0
  3  5  1  0  0  0  0
  4 16  1  6  0  0  0
  4 21  1  0  0  0  0
  4 22  2  0  0  0  0
  4 14  1  0  0  0  0
  5  1  1  1  0  0  0
  5  8  1  0  0  0  0
  6 17  2  0  0  0  0
  6 12  1  0  0  0  0
  8  7  1  6  0  0  0
  8 11  1  0  0  0  0
  9 19  1  0  0  0  0
 11 10  1  6  0  0  0
 12 20  2  0  0  0  0
 12 19  1  0  0  0  0
 13 20  1  0  0  0  0
 14 15  1  0  0  0  0
 18 19  2  0  0  0  0
M  CHG  1  21  -1
M  END
>  <CHROM.1>
49.73061899,-51.13299917,-56.86239538,-179.92359072,-121.72634802,29.84519692
-3.14403249,107.37334196,2.41448262,0.31587117,2.85599873

>  <Name>
ligand

>  <RI>
0

>  <Rbt.Current_Directory>
/home/itssahil/PROJECTS/Mol_Feturizer/New_Systems/rnas/4XW7

>  <Rbt.Executable>
rbdock ($Id: //depot/dev/client3/rdock/2013.1/src/exe/rbdock.cxx#4 $)

>  <Rbt.Library>
libRbt.so (2013.1, Build901 2013/11/27)

>  <Rbt.Parameter_File>
/export/apps/rDock/src/rDock_2013.1_src/data/scripts/dock_solv.prm

>  <Rbt.Receptor>
prm/pocket_docking_3.prm

>  <SCORE>
-6.81661

>  <SCORE.INTER>
-5.84908

>  <SCORE.INTER.CONST>
1

>  <SCORE.INTER.POLAR>
0

>  <SCORE.INTER.ROT>
5

>  <SCORE.INTER.SOLV>
8.7925

>  <SCORE.INTER.VDW>
-13.7636

>  <SCORE.INTER.norm>
-0.265867

>  <SCORE.INTRA>
-0.971327

>  <SCORE.INTRA.DIHEDRAL>
-0.835108

>  <SCORE.INTRA.DIHEDRAL.0>
2.61549

>  <SCORE.INTRA.POLAR>
0

>  <SCORE.INTRA.POLAR.0>
0

>  <SCORE.INTRA.REPUL>
0

>  <SCORE.INTRA.REPUL.0>
0

>  <SCORE.INTRA.SOLV>
0.697539

>  <SCORE.INTRA.SOLV.lig_0>
-73.766

>  <SCORE.INTRA.VDW>
-0.902542

>  <SCORE.INTRA.VDW.0>
-1.95055

>  <SCORE.INTRA.norm>
-0.0441512

>  <SCORE.RESTR>
0.00379026

>  <SCORE.RESTR.CAVITY>
0.00379026

>  <SCORE.RESTR.norm>
0.000172284

>  <SCORE.SYSTEM>
0

>  <SCORE.SYSTEM.CONST>
0

>  <SCORE.SYSTEM.DIHEDRAL>
0

>  <SCORE.SYSTEM.SOLV>
0

>  <SCORE.SYSTEM.norm>
0

>  <SCORE.heavy>
22

>  <SCORE.norm>
-0.309846

>  <RMSD>
6.454

$$$$
ligand
 OpenBabel11021811513D
libRbt.so/2013.1/901 2013/11/27
 22 23  0  0  0  0  0  0  0  0999 V2000
   28.8283   -3.7782  106.9697 N   0  0  0  0  0  0  0  0  0  0  0  0
   30.7932   -1.0690  106.2562 C   0  0  1  0  0  0  0  0  0  0  0  0
   30.0609   -2.2231  105.7149 O   0  0  0  0  0  0  0  0  0  0  0  0
   32.9870   -3.2475  108.5028 P   0  0  2  0  0  0  0  0  0  0  0  0
   28.8996   -2.4397  106.5696 C   0  0  2  0  0  0  0  0  0  0  0  0
   29.3412   -5.6999  107.8947 N   0  0  0  0  0  0  0  0  0  0  0  0
   27.7988   -1.0621  108.1843 O   0  0  0  0  0  0  0  0  0  0  0  0
   29.0702   -1.5619  107.7440 C   0  0  2  0  0  0  0  0  0  0  0  0
   27.7101   -8.2005  108.0173 N   0  0  0  0  0  0  0  0  0  0  0  0
   29.1040    0.5614  106.6791 O   0  0  0  0  0  0  0  0  0  0  0  0
   29.9257   -0.4653  107.2771 C   0  0  2  0  0  0  0  0  0  0  0  0
   28.1519   -5.8458  107.2789 C   0  0  0  0  0  0  0  0  0  0  0  0
   26.6405   -4.3534  105.9359 N   0  0  0  0  0  0  0  0  0  0  0  0
   31.7969   -2.6078  107.7163 O   0  0  0  0  0  0  0  0  0  0  0  0
   32.0606   -1.5241  106.8785 C   0  0  0  0  0  0  0  0  0  0  0  0
   34.1333   -3.6769  107.4932 O   0  0  0  0  0  0  0  0  0  0  0  0
   29.7434   -4.4223  107.6950 C   0  0  0  0  0  0  0  0  0  0  0  0
   26.3507   -7.1653  106.5111 O   0  0  0  0  0  0  0  0  0  0  0  0
   27.3388   -7.1018  107.2380 C   0  0  0  0  0  0  0  0  0  0  0  0
   27.8144   -4.6374  106.6868 C   0  0  0  0  0  0  0  0  0  0  0  0
   32.5355   -4.3967  109.3194 O   0  5  0  0  0  0  0  0  0  0  0  0
   33.5112   -2.3195  109.5411 O   0  0  0  0  0  0  0  0  0  0  0  0
  1 17  1  0  0  0  0
  1 20  1  0  0  0  0
  2 15  1  1  0  0  0
  2  3  1  0  0  0  0
  2 11  1  0  0  0  0
  3  5  1  0  0  0  0
  4 16  1  6  0  0  0
  4 21  1  0  0  0  0
  4 22  2  0  0  0  0
  4 14  1  0  0  0  0
  5  1  1  1  0  0  0
  5  8  1  0  0  0  0
  6 17  2  0  0  0  0
  6 12  1  0  0  0  0
  8  7  1  6  0  0  0
  8 11  1  0  0  0  0
  9 19  1  0  0  0  0
 11 10  1  6  0  0  0
 12 20  2  0  0  0  0
 12 19  1  0  0  0  0
 13 20  1  0  0  0  0
 14 15  1  0  0  0  0
 18 19  2  0  0  0  0
M  CHG  1  21  -1
M  END
>  <CHROM.1>
61.75072288,-48.00204275,-55.30115874,-179.11440400,8.40808624,30.00227330
-3.44285886,107.44856711,2.50082437,0.31260165,2.96889255

>  <Name>
ligand

>  <RI>
0

>  <Rbt.Current_Directory>
/home/itssahil/PROJECTS/Mol_Feturizer/New_Systems/rnas/4XW7

>  <Rbt.Executable>
rbdock ($Id: //depot/dev/client3/rdock/2013.1/src/exe/rbdock.cxx#4 $)

>  <Rbt.Library>
libRbt.so (2013.1, Build901 2013/11/27)

>  <Rbt.Parameter_File>
/export/apps/rDock/src/rDock_2013.1_src/data/scripts/dock_solv.prm

>  <Rbt.Receptor>
prm/pocket_docking_3.prm

>  <SCORE>
-6.59555

>  <SCORE.INTER>
-5.91613

>  <SCORE.INTER.CONST>
1

>  <SCORE.INTER.POLAR>
0

>  <SCORE.INTER.ROT>
5

>  <SCORE.INTER.SOLV>
9.89495

>  <SCORE.INTER.VDW>
-14.1757

>  <SCORE.INTER.norm>
-0.268915

>  <SCORE.INTRA>
-0.679424

>  <SCORE.INTRA.DIHEDRAL>
-0.50693

>  <SCORE.INTRA.DIHEDRAL.0>
2.61549

>  <SCORE.INTRA.POLAR>
0

>  <SCORE.INTRA.POLAR.0>
0

>  <SCORE.INTRA.REPUL>
0

>  <SCORE.INTRA.REPUL.0>
0

>  <SCORE.INTRA.SOLV>
0.436813

>  <SCORE.INTRA.SOLV.lig_0>
-73.766

>  <SCORE.INTRA.VDW>
-0.644366

>  <SCORE.INTRA.VDW.0>
-1.95055

>  <SCORE.INTRA.norm>
-0.0308829

>  <SCORE.RESTR>
0

>  <SCORE.RESTR.CAVITY>
0

>  <SCORE.RESTR.norm>
0

>  <SCORE.SYSTEM>
0

>  <SCORE.SYSTEM.CONST>
0

>  <SCORE.SYSTEM.DIHEDRAL>
0

>  <SCORE.SYSTEM.SOLV>
0

>  <SCORE.SYSTEM.norm>
0

>  <SCORE.heavy>
22

>  <SCORE.norm>
-0.299798

>  <RMSD>
6.455

$$$$
ligand
 OpenBabel11021811513D
libRbt.so/2013.1/901 2013/11/27
 22 23  0  0  0  0  0  0  0  0999 V2000
   30.6965   -4.4113  108.5657 N   0  0  0  0  0  0  0  0  0  0  0  0
   31.1922   -1.1919  107.5170 C   0  0  1  0  0  0  0  0  0  0  0  0
   30.4392   -2.0828  108.4118 O   0  0  0  0  0  0  0  0  0  0  0  0
   28.5342   -1.0139  104.7849 P   0  0  2  0  0  0  0  0  0  0  0  0
   31.3262   -3.1805  108.7783 C   0  0  2  0  0  0  0  0  0  0  0  0
   30.3903   -6.5558  108.2207 N   0  0  0  0  0  0  0  0  0  0  0  0
   33.6968   -3.4603  108.6420 O   0  0  0  0  0  0  0  0  0  0  0  0
   32.5217   -3.0613  107.9208 C   0  0  2  0  0  0  0  0  0  0  0  0
   27.8268   -8.0633  107.9770 N   0  0  0  0  0  0  0  0  0  0  0  0
   33.3057   -0.9208  108.5894 O   0  0  0  0  0  0  0  0  0  0  0  0
   32.5908   -1.6407  107.5610 C   0  0  2  0  0  0  0  0  0  0  0  0
   29.1771   -5.9735  108.2840 C   0  0  0  0  0  0  0  0  0  0  0  0
   28.3358   -3.6309  108.6307 N   0  0  0  0  0  0  0  0  0  0  0  0
   29.3693   -0.8065  106.0902 O   0  0  0  0  0  0  0  0  0  0  0  0
   30.6697   -1.3095  106.1336 C   0  0  0  0  0  0  0  0  0  0  0  0
   29.4808   -0.9105  103.5156 O   0  0  0  0  0  0  0  0  0  0  0  0
   31.3139   -5.5811  108.3960 C   0  0  0  0  0  0  0  0  0  0  0  0
   26.8201   -6.0277  108.1545 O   0  0  0  0  0  0  0  0  0  0  0  0
   27.8634   -6.6760  108.1391 C   0  0  0  0  0  0  0  0  0  0  0  0
   29.3546   -4.6147  108.5004 C   0  0  0  0  0  0  0  0  0  0  0  0
   27.4189   -0.0443  104.7007 O   0  5  0  0  0  0  0  0  0  0  0  0
   27.8105   -2.3139  104.8058 O   0  0  0  0  0  0  0  0  0  0  0  0
  1 17  1  0  0  0  0
  1 20  1  0  0  0  0
  2 15  1  6  0  0  0
  2  3  1  0  0  0  0
  2 11  1  0  0  0  0
  3  5  1  0  0  0  0
  4 16  1  6  0  0  0
  4 21  1  0  0  0  0
  4 22  2  0  0  0  0
  4 14  1  0  0  0  0
  5  1  1  6  0  0  0
  5  8  1  0  0  0  0
  6 17  2  0  0  0  0
  6 12  1  0  0  0  0
  8  7  1  1  0  0  0
  8 11  1  0  0  0  0
  9 19  1  0  0  0  0
 11 10  1  1  0  0  0
 12 20  2  0  0  0  0
 12 19  1  0  0  0  0
 13 20  1  0  0  0  0
 14 15  1  0  0  0  0
 18 19  2  0  0  0  0
M  CHG  1  21  -1
M  END
>  <CHROM.1>
158.03369580,66.69175881,-35.89039350,-171.19926187,2.84268950,29.91113979
-3.11348000,107.17748236,-1.58088540,-0.46783299,-0.54497953

>  <Name>
ligand

>  <RI>
0

>  <Rbt.Current_Directory>
/home/itssahil/PROJECTS/Mol_Feturizer/New_Systems/rnas/4XW7

>  <Rbt.Executable>
rbdock ($Id: //depot/dev/client3/rdock/2013.1/src/exe/rbdock.cxx#4 $)

>  <Rbt.Library>
libRbt.so (2013.1, Build901 2013/11/27)

>  <Rbt.Parameter_File>
/export/apps/rDock/src/rDock_2013.1_src/data/scripts/dock_solv.prm

>  <Rbt.Receptor>
prm/pocket_docking_5.prm

>  <SCORE>
-4.86201

>  <SCORE.INTER>
-6.40552

>  <SCORE.INTER.CONST>
1

>  <SCORE.INTER.POLAR>
0

>  <SCORE.INTER.ROT>
5

>  <SCORE.INTER.SOLV>
8.31309

>  <SCORE.INTER.VDW>
-13.9747

>  <SCORE.INTER.norm>
-0.29116

>  <SCORE.INTRA>
1.54351

>  <SCORE.INTRA.DIHEDRAL>
0.232117

>  <SCORE.INTRA.DIHEDRAL.0>
2.61549

>  <SCORE.INTRA.POLAR>
0

>  <SCORE.INTRA.POLAR.0>
0

>  <SCORE.INTRA.REPUL>
0

>  <SCORE.INTRA.REPUL.0>
0

>  <SCORE.INTRA.SOLV>
2.02686

>  <SCORE.INTRA.SOLV.lig_0>
-73.766

>  <SCORE.INTRA.VDW>
0.414022

>  <SCORE.INTRA.VDW.0>
-1.95055

>  <SCORE.INTRA.norm>
0.0701596

>  <SCORE.RESTR>
0

>  <SCORE.RESTR.CAVITY>
0

>  <SCORE.RESTR.norm>
0

>  <SCORE.SYSTEM>
0

>  <SCORE.SYSTEM.CONST>
0

>  <SCORE.SYSTEM.DIHEDRAL>
0

>  <SCORE.SYSTEM.SOLV>
0

>  <SCORE.SYSTEM.norm>
0

>  <SCORE.heavy>
22

>  <SCORE.norm>
-0.221001

>  <RMSD>
6.459

$$$$
ligand
 OpenBabel11021811513D
libRbt.so/2013.1/901 2013/11/27
 22 23  0  0  0  0  0  0  0  0999 V2000
   30.3898   -4.1514  108.1184 N   0  0  0  0  0  0  0  0  0  0  0  0
   31.1131   -0.9716  107.0813 C   0  0  1  0  0  0  0  0  0  0  0  0
   30.3331   -1.8070  108.0059 O   0  0  0  0  0  0  0  0  0  0  0  0
   28.2749   -0.7338  104.5459 P   0  0  2  0  0  0  0  0  0  0  0  0
   31.1372   -2.9847  108.3102 C   0  0  2  0  0  0  0  0  0  0  0  0
   28.8924   -5.5556  107.3452 N   0  0  0  0  0  0  0  0  0  0  0  0
   33.4627   -3.4705  108.0400 O   0  0  0  0  0  0  0  0  0  0  0  0
   32.2907   -2.9575  107.3894 C   0  0  2  0  0  0  0  0  0  0  0  0
   30.5188   -8.5217  108.6307 N   0  0  0  0  0  0  0  0  0  0  0  0
   33.2972   -0.9059  108.0385 O   0  0  0  0  0  0  0  0  0  0  0  0
   32.4665   -1.5428  107.0429 C   0  0  2  0  0  0  0  0  0  0  0  0
   29.6276   -6.2069  108.2673 C   0  0  0  0  0  0  0  0  0  0  0  0
   31.5596   -5.6093  109.7593 N   0  0  0  0  0  0  0  0  0  0  0  0
   29.1983   -0.5454  105.7933 O   0  0  0  0  0  0  0  0  0  0  0  0
   30.5084   -1.0198  105.7276 C   0  0  0  0  0  0  0  0  0  0  0  0
   29.1591   -0.9720  103.2501 O   0  0  0  0  0  0  0  0  0  0  0  0
   29.3742   -4.2925  107.2657 C   0  0  0  0  0  0  0  0  0  0  0  0
   28.3390   -8.0196  109.0604 O   0  0  0  0  0  0  0  0  0  0  0  0
   29.4421   -7.6329  108.6827 C   0  0  0  0  0  0  0  0  0  0  0  0
   30.5793   -5.3300  108.7673 C   0  0  0  0  0  0  0  0  0  0  0  0
   27.3677    0.4226  104.3692 O   0  5  0  0  0  0  0  0  0  0  0  0
   27.3131   -1.8511  104.7478 O   0  0  0  0  0  0  0  0  0  0  0  0
  1 17  1  0  0  0  0
  1 20  1  0  0  0  0
  2 15  1  6  0  0  0
  2  3  1  0  0  0  0
  2 11  1  0  0  0  0
  3  5  1  0  0  0  0
  4 16  1  6  0  0  0
  4 21  1  0  0  0  0
  4 22  2  0  0  0  0
  4 14  1  0  0  0  0
  5  1  1  6  0  0  0
  5  8  1  0  0  0  0
  6 17  2  0  0  0  0
  6 12  1  0  0  0  0
  8  7  1  1  0  0  0
  8 11  1  0  0  0  0
  9 19  1  0  0  0  0
 11 10  1  1  0  0  0
 12 20  2  0  0  0  0
 12 19  1  0  0  0  0
 13 20  1  0  0  0  0
 14 15  1  0  0  0  0
 18 19  2  0  0  0  0
M  CHG  1  21  -1
M  END
>  <CHROM.1>
27.97091245,59.85150449,-20.37632368,-169.38354983,125.75551157,30.08438867
-3.15120185,106.98969465,-1.36428074,-0.48813476,-0.47275303

>  <Name>
ligand

>  <RI>
0

>  <Rbt.Current_Directory>
/home/itssahil/PROJECTS/Mol_Feturizer/New_Systems/rnas/4XW7

>  <Rbt.Executable>
rbdock ($Id: //depot/dev/client3/rdock/2013.1/src/exe/rbdock.cxx#4 $)

>  <Rbt.Library>
libRbt.so (2013.1, Build901 2013/11/27)

>  <Rbt.Parameter_File>
/export/apps/rDock/src/rDock_2013.1_src/data/scripts/dock_solv.prm

>  <Rbt.Receptor>
prm/pocket_docking_5.prm

>  <SCORE>
-7.62712

>  <SCORE.INTER>
-7.97871

>  <SCORE.INTER.CONST>
1

>  <SCORE.INTER.POLAR>
0

>  <SCORE.INTER.ROT>
5

>  <SCORE.INTER.SOLV>
11.0051

>  <SCORE.INTER.VDW>
-15.9208

>  <SCORE.INTER.norm>
-0.362669

>  <SCORE.INTRA>
0.35159

>  <SCORE.INTRA.DIHEDRAL>
1.19435

>  <SCORE.INTRA.DIHEDRAL.0>
2.61549

>  <SCORE.INTRA.POLAR>
0

>  <SCORE.INTRA.POLAR.0>
0

>  <SCORE.INTRA.REPUL>
0

>  <SCORE.INTRA.REPUL.0>
0

>  <SCORE.INTRA.SOLV>
0.159148

>  <SCORE.INTRA.SOLV.lig_0>
-73.766

>  <SCORE.INTRA.VDW>
-0.325157

>  <SCORE.INTRA.VDW.0>
-1.95055

>  <SCORE.INTRA.norm>
0.0159814

>  <SCORE.RESTR>
0

>  <SCORE.RESTR.CAVITY>
0

>  <SCORE.RESTR.norm>
0

>  <SCORE.SYSTEM>
0

>  <SCORE.SYSTEM.CONST>
0

>  <SCORE.SYSTEM.DIHEDRAL>
0

>  <SCORE.SYSTEM.SOLV>
0

>  <SCORE.SYSTEM.norm>
0

>  <SCORE.heavy>
22

>  <SCORE.norm>
-0.346687

>  <RMSD>
6.460

$$$$
ligand
 OpenBabel11021811513D
libRbt.so/2013.1/901 2013/11/27
 22 23  0  0  0  0  0  0  0  0999 V2000
   34.4204   -5.1950  109.8463 N   0  0  0  0  0  0  0  0  0  0  0  0
   31.1415   -4.6133  109.0586 C   0  0  1  0  0  0  0  0  0  0  0  0
   32.1425   -4.7032  110.1316 O   0  0  0  0  0  0  0  0  0  0  0  0
   29.7000   -8.1315  109.4454 P   0  0  2  0  0  0  0  0  0  0  0  0
   33.4156   -4.2603  109.5755 C   0  0  2  0  0  0  0  0  0  0  0  0
   35.6662   -6.9970  109.7340 N   0  0  0  0  0  0  0  0  0  0  0  0
   33.9802   -3.0260  107.6071 O   0  0  0  0  0  0  0  0  0  0  0  0
   33.2169   -4.1286  108.1188 C   0  0  2  0  0  0  0  0  0  0  0  0
   37.3600   -7.7022  112.3397 N   0  0  0  0  0  0  0  0  0  0  0  0
   31.5147   -2.4720  108.0757 O   0  0  0  0  0  0  0  0  0  0  0  0
   31.7795   -3.8868  107.9520 C   0  0  2  0  0  0  0  0  0  0  0  0
   36.1613   -6.2168  110.7144 C   0  0  0  0  0  0  0  0  0  0  0  0
   35.5550   -3.9861  111.7003 N   0  0  0  0  0  0  0  0  0  0  0  0
   30.1601   -6.6547  109.6724 O   0  0  0  0  0  0  0  0  0  0  0  0
   30.7593   -5.9752  108.6117 C   0  0  0  0  0  0  0  0  0  0  0  0
   28.8001   -8.2228  108.1416 O   0  0  0  0  0  0  0  0  0  0  0  0
   34.5958   -6.3539  109.2101 C   0  0  0  0  0  0  0  0  0  0  0  0
   38.3049   -5.7674  111.5964 O   0  0  0  0  0  0  0  0  0  0  0  0
   37.3477   -6.5368  111.5690 C   0  0  0  0  0  0  0  0  0  0  0  0
   35.3816   -5.0723  110.7988 C   0  0  0  0  0  0  0  0  0  0  0  0
   28.9828   -8.6588  110.6281 O   0  5  0  0  0  0  0  0  0  0  0  0
   30.8642   -9.0538  109.3553 O   0  0  0  0  0  0  0  0  0  0  0  0
  1 17  1  0  0  0  0
  1 20  1  0  0  0  0
  2 15  1  6  0  0  0
  2  3  1  0  0  0  0
  2 11  1  0  0  0  0
  3  5  1  0  0  0  0
  4 16  1  6  0  0  0
  4 21  1  0  0  0  0
  4 22  2  0  0  0  0
  4 14  1  0  0  0  0
  5  1  1  6  0  0  0
  5  8  1  0  0  0  0
  6 17  2  0  0  0  0
  6 12  1  0  0  0  0
  8  7  1  1  0  0  0
  8 11  1  0  0  0  0
  9 19  1  0  0  0  0
 11 10  1  1  0  0  0
 12 20  2  0  0  0  0
 12 19  1  0  0  0  0
 13 20  1  0  0  0  0
 14 15  1  0  0  0  0
 18 19  2  0  0  0  0
M  CHG  1  21  -1
M  END
>  <CHROM.1>
76.98170399,62.96380516,-51.44299001,-178.64864467,-58.27714971,32.93484982
-5.94690319,109.68399039,0.11377254,-0.33322138,-0.41020605

>  <Name>
ligand

>  <RI>
0

>  <Rbt.Current_Directory>
/home/itssahil/PROJECTS/Mol_Feturizer/New_Systems/rnas/4XW7

>  <Rbt.Executable>
rbdock ($Id: //depot/dev/client3/rdock/2013.1/src/exe/rbdock.cxx#4 $)

>  <Rbt.Library>
libRbt.so (2013.1, Build901 2013/11/27)

>  <Rbt.Parameter_File>
/export/apps/rDock/src/rDock_2013.1_src/data/scripts/dock_solv.prm

>  <Rbt.Receptor>
prm/pocket_docking_8.prm

>  <SCORE>
-7.85184

>  <SCORE.INTER>
-7.57937

>  <SCORE.INTER.CONST>
1

>  <SCORE.INTER.POLAR>
0

>  <SCORE.INTER.ROT>
5

>  <SCORE.INTER.SOLV>
10.0897

>  <SCORE.INTER.VDW>
-15.3495

>  <SCORE.INTER.norm>
-0.344517

>  <SCORE.INTRA>
-0.272471

>  <SCORE.INTRA.DIHEDRAL>
0.673981

>  <SCORE.INTRA.DIHEDRAL.0>
2.61549

>  <SCORE.INTRA.POLAR>
0

>  <SCORE.INTRA.POLAR.0>
0

>  <SCORE.INTRA.REPUL>
0

>  <SCORE.INTRA.REPUL.0>
0

>  <SCORE.INTRA.SOLV>
-1.11944

>  <SCORE.INTRA.SOLV.lig_0>
-73.766

>  <SCORE.INTRA.VDW>
-0.0497417

>  <SCORE.INTRA.VDW.0>
-1.95055

>  <SCORE.INTRA.norm>
-0.0123851

>  <SCORE.RESTR>
0

>  <SCORE.RESTR.CAVITY>
0

>  <SCORE.RESTR.norm>
0

>  <SCORE.SYSTEM>
0

>  <SCORE.SYSTEM.CONST>
0

>  <SCORE.SYSTEM.DIHEDRAL>
0

>  <SCORE.SYSTEM.SOLV>
0

>  <SCORE.SYSTEM.norm>
0

>  <SCORE.heavy>
22

>  <SCORE.norm>
-0.356902

>  <RMSD>
6.464

$$$$
ligand
 OpenBabel11021811513D
libRbt.so/2013.1/901 2013/11/27
 22 23  0  0  0  0  0  0  0  0999 V2000
   28.8338   -4.0833  107.3046 N   0  0  0  0  0  0  0  0  0  0  0  0
   30.8613   -1.4083  106.6385 C   0  0  1  0  0  0  0  0  0  0  0  0
   30.0366   -2.4864  106.0737 O   0  0  0  0  0  0  0  0  0  0  0  0
   33.1195   -3.9011  108.4496 P   0  0  2  0  0  0  0  0  0  0  0  0
   28.9360   -2.7217  107.0007 C   0  0  2  0  0  0  0  0  0  0  0  0
   29.3506   -6.1056  107.9791 N   0  0  0  0  0  0  0  0  0  0  0  0
   28.0284   -1.4306  108.7968 O   0  0  0  0  0  0  0  0  0  0  0  0
   29.2374   -1.9455  108.2195 C   0  0  2  0  0  0  0  0  0  0  0  0
   25.9834   -7.3030  108.3131 N   0  0  0  0  0  0  0  0  0  0  0  0
   29.2873    0.2511  107.3162 O   0  0  0  0  0  0  0  0  0  0  0  0
   30.1042   -0.8514  107.7681 C   0  0  2  0  0  0  0  0  0  0  0  0
   28.0676   -6.1257  107.5684 C   0  0  0  0  0  0  0  0  0  0  0  0
   26.4676   -4.4339  106.6232 N   0  0  0  0  0  0  0  0  0  0  0  0
   31.9171   -3.1806  107.7572 O   0  0  0  0  0  0  0  0  0  0  0  0
   32.1505   -1.9613  107.1211 C   0  0  0  0  0  0  0  0  0  0  0  0
   32.7400   -5.4107  108.7578 O   0  0  0  0  0  0  0  0  0  0  0  0
   29.8071   -4.8419  107.8103 C   0  0  0  0  0  0  0  0  0  0  0  0
   27.4811   -8.3228  106.9327 O   0  0  0  0  0  0  0  0  0  0  0  0
   27.1686   -7.3224  107.5734 C   0  0  0  0  0  0  0  0  0  0  0  0
   27.7263   -4.8522  107.1367 C   0  0  0  0  0  0  0  0  0  0  0  0
   33.5343   -3.1919  109.6809 O   0  5  0  0  0  0  0  0  0  0  0  0
   34.3510   -3.8201  107.6184 O   0  0  0  0  0  0  0  0  0  0  0  0
  1 17  1  0  0  0  0
  1 20  1  0  0  0  0
  2 15  1  1  0  0  0
  2  3  1  0  0  0  0
  2 11  1  0  0  0  0
  3  5  1  0  0  0  0
  4 16  1  1  0  0  0
  4 21  1  0  0  0  0
  4 22  2  0  0  0  0
  4 14  1  0  0  0  0
  5  1  1  1  0  0  0
  5  8  1  0  0  0  0
  6 17  2  0  0  0  0
  6 12  1  0  0  0  0
  8  7  1  6  0  0  0
  8 11  1  0  0  0  0
  9 19  1  0  0  0  0
 11 10  1  6  0  0  0
 12 20  2  0  0  0  0
 12 19  1  0  0  0  0
 13 20  1  0  0  0  0
 14 15  1  0  0  0  0
 18 19  2  0  0  0  0
M  CHG  1  21  -1
M  END
>  <CHROM.1>
56.30695551,-40.93836654,-164.83800096,-175.27988395,120.26466003,30.04731413
-3.84347257,107.71366029,2.53192168,0.17208342,3.05193525

>  <Name>
ligand

>  <RI>
0

>  <Rbt.Current_Directory>
/home/itssahil/PROJECTS/Mol_Feturizer/New_Systems/rnas/4XW7

>  <Rbt.Executable>
rbdock ($Id: //depot/dev/client3/rdock/2013.1/src/exe/rbdock.cxx#4 $)

>  <Rbt.Library>
libRbt.so (2013.1, Build901 2013/11/27)

>  <Rbt.Parameter_File>
/export/apps/rDock/src/rDock_2013.1_src/data/scripts/dock_solv.prm

>  <Rbt.Receptor>
prm/pocket_docking_3.prm

>  <SCORE>
-4.62024

>  <SCORE.INTER>
-4.62444

>  <SCORE.INTER.CONST>
1

>  <SCORE.INTER.POLAR>
0

>  <SCORE.INTER.ROT>
5

>  <SCORE.INTER.SOLV>
15.0381

>  <SCORE.INTER.VDW>
-15.029

>  <SCORE.INTER.norm>
-0.210202

>  <SCORE.INTRA>
0.00419521

>  <SCORE.INTRA.DIHEDRAL>
0.538091

>  <SCORE.INTRA.DIHEDRAL.0>
2.61549

>  <SCORE.INTRA.POLAR>
0

>  <SCORE.INTRA.POLAR.0>
0

>  <SCORE.INTRA.REPUL>
0

>  <SCORE.INTRA.REPUL.0>
0

>  <SCORE.INTRA.SOLV>
0.720509

>  <SCORE.INTRA.SOLV.lig_0>
-73.766

>  <SCORE.INTRA.VDW>
-0.625105

>  <SCORE.INTRA.VDW.0>
-1.95055

>  <SCORE.INTRA.norm>
0.000190691

>  <SCORE.RESTR>
0

>  <SCORE.RESTR.CAVITY>
0

>  <SCORE.RESTR.norm>
0

>  <SCORE.SYSTEM>
0

>  <SCORE.SYSTEM.CONST>
0

>  <SCORE.SYSTEM.DIHEDRAL>
0

>  <SCORE.SYSTEM.SOLV>
0

>  <SCORE.SYSTEM.norm>
0

>  <SCORE.heavy>
22

>  <SCORE.norm>
-0.210011

>  <RMSD>
6.477

$$$$
ligand
 OpenBabel11021811513D
libRbt.so/2013.1/901 2013/11/27
 22 23  0  0  0  0  0  0  0  0999 V2000
   28.3056   -3.6250  106.2187 N   0  0  0  0  0  0  0  0  0  0  0  0
   30.1987   -0.7831  105.9959 C   0  0  1  0  0  0  0  0  0  0  0  0
   29.8866   -2.0923  105.4044 O   0  0  0  0  0  0  0  0  0  0  0  0
   32.8501   -2.5325  108.0632 P   0  0  2  0  0  0  0  0  0  0  0  0
   28.4746   -2.3561  105.6549 C   0  0  2  0  0  0  0  0  0  0  0  0
   28.6206   -5.4043  107.4624 N   0  0  0  0  0  0  0  0  0  0  0  0
   26.6537   -0.9460  106.2972 O   0  0  0  0  0  0  0  0  0  0  0  0
   28.0099   -1.3132  106.5905 C   0  0  2  0  0  0  0  0  0  0  0  0
   27.0177   -7.9180  107.5722 N   0  0  0  0  0  0  0  0  0  0  0  0
   28.4133    0.6306  105.2859 O   0  0  0  0  0  0  0  0  0  0  0  0
   28.9137   -0.1783  106.3732 C   0  0  2  0  0  0  0  0  0  0  0  0
   27.5291   -5.6226  106.7035 C   0  0  0  0  0  0  0  0  0  0  0  0
   26.2740   -4.3166  104.9615 N   0  0  0  0  0  0  0  0  0  0  0  0
   32.1110   -1.8060  106.8927 O   0  0  0  0  0  0  0  0  0  0  0  0
   31.0425   -0.9646  107.2025 C   0  0  0  0  0  0  0  0  0  0  0  0
   34.0801   -3.3588  107.4955 O   0  0  0  0  0  0  0  0  0  0  0  0
   29.0861   -4.1710  107.1521 C   0  0  0  0  0  0  0  0  0  0  0  0
   25.7264   -6.9550  105.9617 O   0  0  0  0  0  0  0  0  0  0  0  0
   26.6927   -6.8638  106.7147 C   0  0  0  0  0  0  0  0  0  0  0  0
   27.3177   -4.5050  105.9091 C   0  0  0  0  0  0  0  0  0  0  0  0
   31.9261   -3.4036  108.8239 O   0  5  0  0  0  0  0  0  0  0  0  0
   33.2920   -1.5678  109.1063 O   0  0  0  0  0  0  0  0  0  0  0  0
  1 17  1  0  0  0  0
  1 20  1  0  0  0  0
  2 15  1  1  0  0  0
  2  3  1  0  0  0  0
  2 11  1  0  0  0  0
  3  5  1  0  0  0  0
  4 16  1  6  0  0  0
  4 21  1  0  0  0  0
  4 22  2  0  0  0  0
  4 14  1  0  0  0  0
  5  1  1  1  0  0  0
  5  8  1  0  0  0  0
  6 17  2  0  0  0  0
  6 12  1  0  0  0  0
  8  7  1  6  0  0  0
  8 11  1  0  0  0  0
  9 19  1  0  0  0  0
 11 10  1  6  0  0  0
 12 20  2  0  0  0  0
 12 19  1  0  0  0  0
 13 20  1  0  0  0  0
 14 15  1  0  0  0  0
 18 19  2  0  0  0  0
M  CHG  1  21  -1
M  END
>  <CHROM.1>
40.73866773,49.62917715,-176.43511614,-159.54952250,0.47278387,29.48166482
-3.08756599,106.80770314,2.63479151,0.38144128,2.89221005

>  <Name>
ligand

>  <RI>
0

>  <Rbt.Current_Directory>
/home/itssahil/PROJECTS/Mol_Feturizer/New_Systems/rnas/4XW7

>  <Rbt.Executable>
rbdock ($Id: //depot/dev/client3/rdock/2013.1/src/exe/rbdock.cxx#4 $)

>  <Rbt.Library>
libRbt.so (2013.1, Build901 2013/11/27)

>  <Rbt.Parameter_File>
/export/apps/rDock/src/rDock_2013.1_src/data/scripts/dock_solv.prm

>  <Rbt.Receptor>
prm/pocket_docking_3.prm

>  <SCORE>
-5.83817

>  <SCORE.INTER>
-6.24309

>  <SCORE.INTER.CONST>
1

>  <SCORE.INTER.POLAR>
0

>  <SCORE.INTER.ROT>
5

>  <SCORE.INTER.SOLV>
9.2259

>  <SCORE.INTER.VDW>
-14.1707

>  <SCORE.INTER.norm>
-0.283777

>  <SCORE.INTRA>
0.374325

>  <SCORE.INTRA.DIHEDRAL>
1.11917

>  <SCORE.INTRA.DIHEDRAL.0>
2.61549

>  <SCORE.INTRA.POLAR>
0

>  <SCORE.INTRA.POLAR.0>
0

>  <SCORE.INTRA.REPUL>
0

>  <SCORE.INTRA.REPUL.0>
0

>  <SCORE.INTRA.SOLV>
0.992923

>  <SCORE.INTRA.SOLV.lig_0>
-73.766

>  <SCORE.INTRA.VDW>
-0.681723

>  <SCORE.INTRA.VDW.0>
-1.95055

>  <SCORE.INTRA.norm>
0.0170148

>  <SCORE.RESTR>
0.0306024

>  <SCORE.RESTR.CAVITY>
0.0306024

>  <SCORE.RESTR.norm>
0.00139102

>  <SCORE.SYSTEM>
0

>  <SCORE.SYSTEM.CONST>
0

>  <SCORE.SYSTEM.DIHEDRAL>
0

>  <SCORE.SYSTEM.SOLV>
0

>  <SCORE.SYSTEM.norm>
0

>  <SCORE.heavy>
22

>  <SCORE.norm>
-0.265371

>  <RMSD>
6.481

$$$$
ligand
 OpenBabel11021811513D
libRbt.so/2013.1/901 2013/11/27
 22 23  0  0  0  0  0  0  0  0999 V2000
   30.3454   -4.1793  108.1080 N   0  0  0  0  0  0  0  0  0  0  0  0
   31.0968   -0.9911  107.1176 C   0  0  1  0  0  0  0  0  0  0  0  0
   30.2960   -1.8338  108.0176 O   0  0  0  0  0  0  0  0  0  0  0  0
   28.3074   -0.7337  104.5318 P   0  0  2  0  0  0  0  0  0  0  0  0
   31.0912   -3.0163  108.3266 C   0  0  2  0  0  0  0  0  0  0  0  0
   28.8449   -5.5652  107.3082 N   0  0  0  0  0  0  0  0  0  0  0  0
   33.4207   -3.5050  108.0996 O   0  0  0  0  0  0  0  0  0  0  0  0
   32.2634   -2.9828  107.4301 C   0  0  2  0  0  0  0  0  0  0  0  0
   29.0417   -8.0199  109.8830 N   0  0  0  0  0  0  0  0  0  0  0  0
   33.2608   -0.9401  108.1200 O   0  0  0  0  0  0  0  0  0  0  0  0
   32.4494   -1.5652  107.1013 C   0  0  2  0  0  0  0  0  0  0  0  0
   29.5905   -6.2407  108.2043 C   0  0  0  0  0  0  0  0  0  0  0  0
   31.5344   -5.6804  109.6952 N   0  0  0  0  0  0  0  0  0  0  0  0
   29.2100   -0.5471  105.7946 O   0  0  0  0  0  0  0  0  0  0  0  0
   30.5199   -1.0246  105.7513 C   0  0  0  0  0  0  0  0  0  0  0  0
   29.2129   -0.9767  103.2515 O   0  0  0  0  0  0  0  0  0  0  0  0
   29.3224   -4.2988  107.2609 C   0  0  0  0  0  0  0  0  0  0  0  0
   29.6030   -8.5560  107.7415 O   0  0  0  0  0  0  0  0  0  0  0  0
   29.4129   -7.6786  108.5799 C   0  0  0  0  0  0  0  0  0  0  0  0
   30.5443   -5.3756  108.7208 C   0  0  0  0  0  0  0  0  0  0  0  0
   27.4077    0.4256  104.3381 O   0  5  0  0  0  0  0  0  0  0  0  0
   27.3383   -1.8473  104.7184 O   0  0  0  0  0  0  0  0  0  0  0  0
  1 17  1  0  0  0  0
  1 20  1  0  0  0  0
  2 15  1  6  0  0  0
  2  3  1  0  0  0  0
  2 11  1  0  0  0  0
  3  5  1  0  0  0  0
  4 16  1  6  0  0  0
  4 21  1  0  0  0  0
  4 22  2  0  0  0  0
  4 14  1  0  0  0  0
  5  1  1  6  0  0  0
  5  8  1  0  0  0  0
  6 17  2  0  0  0  0
  6 12  1  0  0  0  0
  8  7  1  1  0  0  0
  8 11  1  0  0  0  0
  9 19  1  0  0  0  0
 11 10  1  1  0  0  0
 12 20  2  0  0  0  0
 12 19  1  0  0  0  0
 13 20  1  0  0  0  0
 14 15  1  0  0  0  0
 18 19  2  0  0  0  0
M  CHG  1  21  -1
M  END
>  <CHROM.1>
25.92420408,59.88437726,-20.28899756,-168.77594846,-115.61600603,30.07247080
-3.17406270,106.97650895,-1.37290030,-0.53274314,-0.46139958

>  <Name>
ligand

>  <RI>
0

>  <Rbt.Current_Directory>
/home/itssahil/PROJECTS/Mol_Feturizer/New_Systems/rnas/4XW7

>  <Rbt.Executable>
rbdock ($Id: //depot/dev/client3/rdock/2013.1/src/exe/rbdock.cxx#4 $)

>  <Rbt.Library>
libRbt.so (2013.1, Build901 2013/11/27)

>  <Rbt.Parameter_File>
/export/apps/rDock/src/rDock_2013.1_src/data/scripts/dock_solv.prm

>  <Rbt.Receptor>
prm/pocket_docking_5.prm

>  <SCORE>
-7.76597

>  <SCORE.INTER>
-8.16602

>  <SCORE.INTER.CONST>
1

>  <SCORE.INTER.POLAR>
0

>  <SCORE.INTER.ROT>
5

>  <SCORE.INTER.SOLV>
10.9013

>  <SCORE.INTER.VDW>
-16.0111

>  <SCORE.INTER.norm>
-0.371183

>  <SCORE.INTRA>
0.400048

>  <SCORE.INTRA.DIHEDRAL>
1.24541

>  <SCORE.INTRA.DIHEDRAL.0>
2.61549

>  <SCORE.INTRA.POLAR>
0

>  <SCORE.INTRA.POLAR.0>
0

>  <SCORE.INTRA.REPUL>
0

>  <SCORE.INTRA.REPUL.0>
0

>  <SCORE.INTRA.SOLV>
0.199287

>  <SCORE.INTRA.SOLV.lig_0>
-73.766

>  <SCORE.INTRA.VDW>
-0.322299

>  <SCORE.INTRA.VDW.0>
-1.95055

>  <SCORE.INTRA.norm>
0.018184

>  <SCORE.RESTR>
0

>  <SCORE.RESTR.CAVITY>
0

>  <SCORE.RESTR.norm>
0

>  <SCORE.SYSTEM>
0

>  <SCORE.SYSTEM.CONST>
0

>  <SCORE.SYSTEM.DIHEDRAL>
0

>  <SCORE.SYSTEM.SOLV>
0

>  <SCORE.SYSTEM.norm>
0

>  <SCORE.heavy>
22

>  <SCORE.norm>
-0.352999

>  <RMSD>
6.485

$$$$
ligand
 OpenBabel11021811513D
libRbt.so/2013.1/901 2013/11/27
 22 23  0  0  0  0  0  0  0  0999 V2000
   28.8044   -4.1284  107.2760 N   0  0  0  0  0  0  0  0  0  0  0  0
   30.4114   -1.2326  106.4147 C   0  0  1  0  0  0  0  0  0  0  0  0
   29.7404   -2.4477  105.9302 O   0  0  0  0  0  0  0  0  0  0  0  0
   33.0190   -3.1358  108.4599 P   0  0  2  0  0  0  0  0  0  0  0  0
   28.7032   -2.7856  106.8977 C   0  0  2  0  0  0  0  0  0  0  0  0
   29.6144   -6.0106  108.0591 N   0  0  0  0  0  0  0  0  0  0  0  0
   27.6530   -1.5386  108.6467 O   0  0  0  0  0  0  0  0  0  0  0  0
   28.9125   -1.9068  108.0651 C   0  0  2  0  0  0  0  0  0  0  0  0
   27.3399   -8.2579  106.5525 N   0  0  0  0  0  0  0  0  0  0  0  0
   28.6275    0.2199  107.0457 O   0  0  0  0  0  0  0  0  0  0  0  0
   29.6035   -0.7271  107.5332 C   0  0  2  0  0  0  0  0  0  0  0  0
   28.3516   -6.2453  107.6528 C   0  0  0  0  0  0  0  0  0  0  0  0
   26.5218   -4.8668  106.6197 N   0  0  0  0  0  0  0  0  0  0  0  0
   31.7002   -2.6340  107.7867 O   0  0  0  0  0  0  0  0  0  0  0  0
   31.7759   -1.5674  106.8910 C   0  0  0  0  0  0  0  0  0  0  0  0
   34.1032   -3.4615  107.3481 O   0  0  0  0  0  0  0  0  0  0  0  0
   29.8773   -4.7037  107.8204 C   0  0  0  0  0  0  0  0  0  0  0  0
   27.3194   -8.0209  108.8178 O   0  0  0  0  0  0  0  0  0  0  0  0
   27.6421   -7.5613  107.7253 C   0  0  0  0  0  0  0  0  0  0  0  0
   27.8257   -5.0629  107.1527 C   0  0  0  0  0  0  0  0  0  0  0  0
   32.7680   -4.3120  109.3230 O   0  5  0  0  0  0  0  0  0  0  0  0
   33.5399   -2.1425  109.4377 O   0  0  0  0  0  0  0  0  0  0  0  0
  1 17  1  0  0  0  0
  1 20  1  0  0  0  0
  2 15  1  1  0  0  0
  2  3  1  0  0  0  0
  2 11  1  0  0  0  0
  3  5  1  0  0  0  0
  4 16  1  6  0  0  0
  4 21  1  0  0  0  0
  4 22  2  0  0  0  0
  4 14  1  0  0  0  0
  5  1  1  1  0  0  0
  5  8  1  0  0  0  0
  6 17  2  0  0  0  0
  6 12  1  0  0  0  0
  8  7  1  6  0  0  0
  8 11  1  0  0  0  0
  9 19  1  0  0  0  0
 11 10  1  6  0  0  0
 12 20  2  0  0  0  0
 12 19  1  0  0  0  0
 13 20  1  0  0  0  0
 14 15  1  0  0  0  0
 18 19  2  0  0  0  0
M  CHG  1  21  -1
M  END
>  <CHROM.1>
57.79059253,-51.20483752,-53.46319691,-178.06154199,-110.91480089,29.97254259
-3.65824551,107.68135734,2.38518444,0.22731319,3.00203115

>  <Name>
ligand

>  <RI>
0

>  <Rbt.Current_Directory>
/home/itssahil/PROJECTS/Mol_Feturizer/New_Systems/rnas/4XW7

>  <Rbt.Executable>
rbdock ($Id: //depot/dev/client3/rdock/2013.1/src/exe/rbdock.cxx#4 $)

>  <Rbt.Library>
libRbt.so (2013.1, Build901 2013/11/27)

>  <Rbt.Parameter_File>
/export/apps/rDock/src/rDock_2013.1_src/data/scripts/dock_solv.prm

>  <Rbt.Receptor>
prm/pocket_docking_5.prm

>  <SCORE>
-6.68934

>  <SCORE.INTER>
-5.77905

>  <SCORE.INTER.CONST>
1

>  <SCORE.INTER.POLAR>
0

>  <SCORE.INTER.ROT>
5

>  <SCORE.INTER.SOLV>
8.78318

>  <SCORE.INTER.VDW>
-13.7138

>  <SCORE.INTER.norm>
-0.262684

>  <SCORE.INTRA>
-0.913519

>  <SCORE.INTRA.DIHEDRAL>
-0.677173

>  <SCORE.INTRA.DIHEDRAL.0>
2.61549

>  <SCORE.INTRA.POLAR>
0

>  <SCORE.INTRA.POLAR.0>
0

>  <SCORE.INTRA.REPUL>
0

>  <SCORE.INTRA.REPUL.0>
0

>  <SCORE.INTRA.SOLV>
0.446322

>  <SCORE.INTRA.SOLV.lig_0>
-73.766

>  <SCORE.INTRA.VDW>
-0.798093

>  <SCORE.INTRA.VDW.0>
-1.95055

>  <SCORE.INTRA.norm>
-0.0415236

>  <SCORE.RESTR>
0.00322499

>  <SCORE.RESTR.CAVITY>
0.00322499

>  <SCORE.RESTR.norm>
0.00014659

>  <SCORE.SYSTEM>
0

>  <SCORE.SYSTEM.CONST>
0

>  <SCORE.SYSTEM.DIHEDRAL>
0

>  <SCORE.SYSTEM.SOLV>
0

>  <SCORE.SYSTEM.norm>
0

>  <SCORE.heavy>
22

>  <SCORE.norm>
-0.304061

>  <RMSD>
6.489

$$$$
ligand
 OpenBabel11021811513D
libRbt.so/2013.1/901 2013/11/27
 22 23  0  0  0  0  0  0  0  0999 V2000
   30.3234   -4.1772  108.0832 N   0  0  0  0  0  0  0  0  0  0  0  0
   31.1087   -0.9931  107.1060 C   0  0  1  0  0  0  0  0  0  0  0  0
   30.2957   -1.8310  107.9995 O   0  0  0  0  0  0  0  0  0  0  0  0
   28.3274   -0.7376  104.5122 P   0  0  2  0  0  0  0  0  0  0  0  0
   31.0786   -3.0216  108.3091 C   0  0  2  0  0  0  0  0  0  0  0  0
   28.8134   -5.5466  107.2730 N   0  0  0  0  0  0  0  0  0  0  0  0
   33.4047   -3.5307  108.0925 O   0  0  0  0  0  0  0  0  0  0  0  0
   32.2556   -2.9961  107.4187 C   0  0  2  0  0  0  0  0  0  0  0  0
   28.9644   -8.0129  109.8330 N   0  0  0  0  0  0  0  0  0  0  0  0
   33.2679   -0.9645  108.1197 O   0  0  0  0  0  0  0  0  0  0  0  0
   32.4561   -1.5793  107.0949 C   0  0  2  0  0  0  0  0  0  0  0  0
   29.5504   -6.2323  108.1684 C   0  0  0  0  0  0  0  0  0  0  0  0
   31.4946   -5.6953  109.6675 N   0  0  0  0  0  0  0  0  0  0  0  0
   29.2251   -0.5497  105.7783 O   0  0  0  0  0  0  0  0  0  0  0  0
   30.5386   -1.0174  105.7367 C   0  0  0  0  0  0  0  0  0  0  0  0
   29.2373   -0.9972  103.2384 O   0  0  0  0  0  0  0  0  0  0  0  0
   29.3020   -4.2842  107.2326 C   0  0  0  0  0  0  0  0  0  0  0  0
   29.5592   -8.5465  107.7000 O   0  0  0  0  0  0  0  0  0  0  0  0
   29.3592   -7.6702  108.5373 C   0  0  0  0  0  0  0  0  0  0  0  0
   30.5101   -5.3778  108.6914 C   0  0  0  0  0  0  0  0  0  0  0  0
   27.4384    0.4278  104.3058 O   0  5  0  0  0  0  0  0  0  0  0  0
   27.3480   -1.8417  104.7017 O   0  0  0  0  0  0  0  0  0  0  0  0
  1 17  1  0  0  0  0
  1 20  1  0  0  0  0
  2 15  1  6  0  0  0
  2  3  1  0  0  0  0
  2 11  1  0  0  0  0
  3  5  1  0  0  0  0
  4 16  1  6  0  0  0
  4 21  1  0  0  0  0
  4 22  2  0  0  0  0
  4 14  1  0  0  0  0
  5  1  1  6  0  0  0
  5  8  1  0  0  0  0
  6 17  2  0  0  0  0
  6 12  1  0  0  0  0
  8  7  1  1  0  0  0
  8 11  1  0  0  0  0
  9 19  1  0  0  0  0
 11 10  1  1  0  0  0
 12 20  2  0  0  0  0
 12 19  1  0  0  0  0
 13 20  1  0  0  0  0
 14 15  1  0  0  0  0
 18 19  2  0  0  0  0
M  CHG  1  21  -1
M  END
>  <CHROM.1>
25.77511990,58.87597373,-19.17358686,-168.43745667,-114.78055162,30.06371719
-3.17648203,106.95428603,-1.38375701,-0.53392090,-0.46455547

>  <Name>
ligand

>  <RI>
0

>  <Rbt.Current_Directory>
/home/itssahil/PROJECTS/Mol_Feturizer/New_Systems/rnas/4XW7

>  <Rbt.Executable>
rbdock ($Id: //depot/dev/client3/rdock/2013.1/src/exe/rbdock.cxx#4 $)

>  <Rbt.Library>
libRbt.so (2013.1, Build901 2013/11/27)

>  <Rbt.Parameter_File>
/export/apps/rDock/src/rDock_2013.1_src/data/scripts/dock_solv.prm

>  <Rbt.Receptor>
prm/pocket_docking_7.prm

>  <SCORE>
-7.7439

>  <SCORE.INTER>
-8.21444

>  <SCORE.INTER.CONST>
1

>  <SCORE.INTER.POLAR>
0

>  <SCORE.INTER.ROT>
5

>  <SCORE.INTER.SOLV>
11.1519

>  <SCORE.INTER.VDW>
-16.1269

>  <SCORE.INTER.norm>
-0.373384

>  <SCORE.INTRA>
0.470545

>  <SCORE.INTRA.DIHEDRAL>
1.35342

>  <SCORE.INTRA.DIHEDRAL.0>
2.61549

>  <SCORE.INTRA.POLAR>
0

>  <SCORE.INTRA.POLAR.0>
0

>  <SCORE.INTRA.REPUL>
0

>  <SCORE.INTRA.REPUL.0>
0

>  <SCORE.INTRA.SOLV>
0.211183

>  <SCORE.INTRA.SOLV.lig_0>
-73.766

>  <SCORE.INTRA.VDW>
-0.311758

>  <SCORE.INTRA.VDW.0>
-1.95055

>  <SCORE.INTRA.norm>
0.0213884

>  <SCORE.RESTR>
0

>  <SCORE.RESTR.CAVITY>
0

>  <SCORE.RESTR.norm>
0

>  <SCORE.SYSTEM>
0

>  <SCORE.SYSTEM.CONST>
0

>  <SCORE.SYSTEM.DIHEDRAL>
0

>  <SCORE.SYSTEM.SOLV>
0

>  <SCORE.SYSTEM.norm>
0

>  <SCORE.heavy>
22

>  <SCORE.norm>
-0.351995

>  <RMSD>
6.490

$$$$
ligand
 OpenBabel11021811513D
libRbt.so/2013.1/901 2013/11/27
 22 23  0  0  0  0  0  0  0  0999 V2000
   29.8531   -3.9949  107.8666 N   0  0  0  0  0  0  0  0  0  0  0  0
   31.1359   -0.9383  107.0171 C   0  0  1  0  0  0  0  0  0  0  0  0
   30.1425   -1.6655  107.8207 O   0  0  0  0  0  0  0  0  0  0  0  0
   28.3837   -0.7792  104.5427 P   0  0  2  0  0  0  0  0  0  0  0  0
   30.7306   -2.9510  108.1781 C   0  0  2  0  0  0  0  0  0  0  0  0
   28.3746   -5.2188  106.8046 N   0  0  0  0  0  0  0  0  0  0  0  0
   32.9793   -3.7634  108.1596 O   0  0  0  0  0  0  0  0  0  0  0  0
   31.9760   -3.0775  107.3959 C   0  0  2  0  0  0  0  0  0  0  0  0
   27.7002   -8.1085  107.4397 N   0  0  0  0  0  0  0  0  0  0  0  0
   33.1800   -1.2020  108.2183 O   0  0  0  0  0  0  0  0  0  0  0  0
   32.3898   -1.6982  107.1154 C   0  0  2  0  0  0  0  0  0  0  0  0
   28.7033   -5.8660  107.9395 C   0  0  0  0  0  0  0  0  0  0  0  0
   30.2503   -5.4167  109.8684 N   0  0  0  0  0  0  0  0  0  0  0  0
   29.4606   -0.2301  105.5343 O   0  0  0  0  0  0  0  0  0  0  0  0
   30.6931   -0.8797  105.6025 C   0  0  0  0  0  0  0  0  0  0  0  0
   27.6844   -2.0626  105.1607 O   0  0  0  0  0  0  0  0  0  0  0  0
   29.0907   -4.0698  106.7750 C   0  0  0  0  0  0  0  0  0  0  0  0
   28.0796   -7.4411  109.5843 O   0  0  0  0  0  0  0  0  0  0  0  0
   28.1480   -7.1825  108.3853 C   0  0  0  0  0  0  0  0  0  0  0  0
   29.6378   -5.1023  108.6239 C   0  0  0  0  0  0  0  0  0  0  0  0
   28.9746   -1.0775  103.2187 O   0  5  0  0  0  0  0  0  0  0  0  0
   27.3785    0.2640  104.2028 O   0  0  0  0  0  0  0  0  0  0  0  0
  1 17  1  0  0  0  0
  1 20  1  0  0  0  0
  2 15  1  6  0  0  0
  2  3  1  0  0  0  0
  2 11  1  0  0  0  0
  3  5  1  0  0  0  0
  4 16  1  1  0  0  0
  4 21  1  0  0  0  0
  4 22  2  0  0  0  0
  4 14  1  0  0  0  0
  5  1  1  6  0  0  0
  5  8  1  0  0  0  0
  6 17  2  0  0  0  0
  6 12  1  0  0  0  0
  8  7  1  1  0  0  0
  8 11  1  0  0  0  0
  9 19  1  0  0  0  0
 11 10  1  1  0  0  0
 12 20  2  0  0  0  0
 12 19  1  0  0  0  0
 13 20  1  0  0  0  0
 14 15  1  0  0  0  0
 18 19  2  0  0  0  0
M  CHG  1  21  -1
M  END
>  <CHROM.1>
39.66585802,59.45452961,78.24684325,-140.40394970,27.93369032,29.69693996
-3.06710095,106.88260736,-1.61729400,-0.51960774,-0.57737663

>  <Name>
ligand

>  <RI>
0

>  <Rbt.Current_Directory>
/home/itssahil/PROJECTS/Mol_Feturizer/New_Systems/rnas/4XW7

>  <Rbt.Executable>
rbdock ($Id: //depot/dev/client3/rdock/2013.1/src/exe/rbdock.cxx#4 $)

>  <Rbt.Library>
libRbt.so (2013.1, Build901 2013/11/27)

>  <Rbt.Parameter_File>
/export/apps/rDock/src/rDock_2013.1_src/data/scripts/dock_solv.prm

>  <Rbt.Receptor>
prm/pocket_docking_4.prm

>  <SCORE>
-4.10293

>  <SCORE.INTER>
-5.857

>  <SCORE.INTER.CONST>
1

>  <SCORE.INTER.POLAR>
0

>  <SCORE.INTER.ROT>
5

>  <SCORE.INTER.SOLV>
13.3606

>  <SCORE.INTER.VDW>
-15.2915

>  <SCORE.INTER.norm>
-0.266227

>  <SCORE.INTRA>
1.75407

>  <SCORE.INTRA.DIHEDRAL>
5.43103

>  <SCORE.INTRA.DIHEDRAL.0>
2.61549

>  <SCORE.INTRA.POLAR>
0

>  <SCORE.INTRA.POLAR.0>
0

>  <SCORE.INTRA.REPUL>
0

>  <SCORE.INTRA.REPUL.0>
0

>  <SCORE.INTRA.SOLV>
0.0848744

>  <SCORE.INTRA.SOLV.lig_0>
-73.766

>  <SCORE.INTRA.VDW>
-1.00388

>  <SCORE.INTRA.VDW.0>
-1.95055

>  <SCORE.INTRA.norm>
0.0797305

>  <SCORE.RESTR>
0

>  <SCORE.RESTR.CAVITY>
0

>  <SCORE.RESTR.norm>
0

>  <SCORE.SYSTEM>
0

>  <SCORE.SYSTEM.CONST>
0

>  <SCORE.SYSTEM.DIHEDRAL>
0

>  <SCORE.SYSTEM.SOLV>
0

>  <SCORE.SYSTEM.norm>
0

>  <SCORE.heavy>
22

>  <SCORE.norm>
-0.186497

>  <RMSD>
6.498

$$$$
ligand
 OpenBabel11021811513D
libRbt.so/2013.1/901 2013/11/27
 22 23  0  0  0  0  0  0  0  0999 V2000
   28.8439   -4.0009  107.2211 N   0  0  0  0  0  0  0  0  0  0  0  0
   30.6642   -1.2103  106.4405 C   0  0  1  0  0  0  0  0  0  0  0  0
   29.9435   -2.3827  105.9233 O   0  0  0  0  0  0  0  0  0  0  0  0
   33.0538   -3.2892  108.5787 P   0  0  2  0  0  0  0  0  0  0  0  0
   28.8431   -2.6549  106.8404 C   0  0  2  0  0  0  0  0  0  0  0  0
   29.5266   -5.9504  107.9594 N   0  0  0  0  0  0  0  0  0  0  0  0
   27.7902   -1.3432  108.5398 O   0  0  0  0  0  0  0  0  0  0  0  0
   29.0508   -1.7889  108.0176 C   0  0  2  0  0  0  0  0  0  0  0  0
   26.4160   -7.3924  108.7703 N   0  0  0  0  0  0  0  0  0  0  0  0
   28.9450    0.3498  106.9889 O   0  0  0  0  0  0  0  0  0  0  0  0
   29.8371   -0.6546  107.5204 C   0  0  2  0  0  0  0  0  0  0  0  0
   28.2213   -6.0648  107.6462 C   0  0  0  0  0  0  0  0  0  0  0  0
   26.4605   -4.5202  106.7355 N   0  0  0  0  0  0  0  0  0  0  0  0
   31.8023   -2.7080  107.8437 O   0  0  0  0  0  0  0  0  0  0  0  0
   31.9816   -1.6274  106.9800 C   0  0  0  0  0  0  0  0  0  0  0  0
   34.1670   -3.6854  107.5195 O   0  0  0  0  0  0  0  0  0  0  0  0
   29.8940   -4.6747  107.6921 C   0  0  0  0  0  0  0  0  0  0  0  0
   27.5942   -8.2538  107.0215 O   0  0  0  0  0  0  0  0  0  0  0  0
   27.3977   -7.3075  107.7796 C   0  0  0  0  0  0  0  0  0  0  0  0
   27.7750   -4.8384  107.1755 C   0  0  0  0  0  0  0  0  0  0  0  0
   32.6892   -4.4448  109.4289 O   0  5  0  0  0  0  0  0  0  0  0  0
   33.5890   -2.3274  109.5800 O   0  0  0  0  0  0  0  0  0  0  0  0
  1 17  1  0  0  0  0
  1 20  1  0  0  0  0
  2 15  1  1  0  0  0
  2  3  1  0  0  0  0
  2 11  1  0  0  0  0
  3  5  1  0  0  0  0
  4 16  1  6  0  0  0
  4 21  1  0  0  0  0
  4 22  2  0  0  0  0
  4 14  1  0  0  0  0
  5  1  1  1  0  0  0
  5  8  1  0  0  0  0
  6 17  2  0  0  0  0
  6 12  1  0  0  0  0
  8  7  1  6  0  0  0
  8 11  1  0  0  0  0
  9 19  1  0  0  0  0
 11 10  1  6  0  0  0
 12 20  2  0  0  0  0
 12 19  1  0  0  0  0
 13 20  1  0  0  0  0
 14 15  1  0  0  0  0
 18 19  2  0  0  0  0
M  CHG  1  21  -1
M  END
>  <CHROM.1>
50.70855585,-49.71503788,-55.16993069,-177.76070256,109.03468537,30.00789157
-3.59926444,107.71087220,2.46186029,0.22148535,2.98214374

>  <Name>
ligand

>  <RI>
0

>  <Rbt.Current_Directory>
/home/itssahil/PROJECTS/Mol_Feturizer/New_Systems/rnas/4XW7

>  <Rbt.Executable>
rbdock ($Id: //depot/dev/client3/rdock/2013.1/src/exe/rbdock.cxx#4 $)

>  <Rbt.Library>
libRbt.so (2013.1, Build901 2013/11/27)

>  <Rbt.Parameter_File>
/export/apps/rDock/src/rDock_2013.1_src/data/scripts/dock_solv.prm

>  <Rbt.Receptor>
prm/pocket_docking_3.prm

>  <SCORE>
-6.84917

>  <SCORE.INTER>
-5.98608

>  <SCORE.INTER.CONST>
1

>  <SCORE.INTER.POLAR>
0

>  <SCORE.INTER.ROT>
5

>  <SCORE.INTER.SOLV>
8.73246

>  <SCORE.INTER.VDW>
-13.8349

>  <SCORE.INTER.norm>
-0.272095

>  <SCORE.INTRA>
-0.864066

>  <SCORE.INTRA.DIHEDRAL>
-0.566406

>  <SCORE.INTRA.DIHEDRAL.0>
2.61549

>  <SCORE.INTRA.POLAR>
0

>  <SCORE.INTRA.POLAR.0>
0

>  <SCORE.INTRA.REPUL>
0

>  <SCORE.INTRA.REPUL.0>
0

>  <SCORE.INTRA.SOLV>
0.621269

>  <SCORE.INTRA.SOLV.lig_0>
-73.766

>  <SCORE.INTRA.VDW>
-0.891497

>  <SCORE.INTRA.VDW.0>
-1.95055

>  <SCORE.INTRA.norm>
-0.0392757

>  <SCORE.RESTR>
0.000977697

>  <SCORE.RESTR.CAVITY>
0.000977697

>  <SCORE.RESTR.norm>
4.44408e-05

>  <SCORE.SYSTEM>
0

>  <SCORE.SYSTEM.CONST>
0

>  <SCORE.SYSTEM.DIHEDRAL>
0

>  <SCORE.SYSTEM.SOLV>
0

>  <SCORE.SYSTEM.norm>
0

>  <SCORE.heavy>
22

>  <SCORE.norm>
-0.311326

>  <RMSD>
6.511

$$$$
ligand
 OpenBabel11021811513D
libRbt.so/2013.1/901 2013/11/27
 22 23  0  0  0  0  0  0  0  0999 V2000
   29.8780   -3.9730  107.8414 N   0  0  0  0  0  0  0  0  0  0  0  0
   31.0871   -0.8951  106.9615 C   0  0  1  0  0  0  0  0  0  0  0  0
   30.1221   -1.6387  107.7845 O   0  0  0  0  0  0  0  0  0  0  0  0
   28.4134   -0.7002  104.2966 P   0  0  2  0  0  0  0  0  0  0  0  0
   30.7407   -2.9118  108.1346 C   0  0  2  0  0  0  0  0  0  0  0  0
   28.3274   -5.1816  106.8683 N   0  0  0  0  0  0  0  0  0  0  0  0
   33.0038   -3.6814  108.0782 O   0  0  0  0  0  0  0  0  0  0  0  0
   31.9744   -3.0168  107.3307 C   0  0  2  0  0  0  0  0  0  0  0  0
   28.0802   -7.5721  109.5989 N   0  0  0  0  0  0  0  0  0  0  0  0
   33.1568   -1.1164  108.1268 O   0  0  0  0  0  0  0  0  0  0  0  0
   32.3568   -1.6308  107.0394 C   0  0  2  0  0  0  0  0  0  0  0  0
   28.8351   -5.9066  107.8839 C   0  0  0  0  0  0  0  0  0  0  0  0
   30.6055   -5.5412  109.6297 N   0  0  0  0  0  0  0  0  0  0  0  0
   29.3182   -0.3446  105.5210 O   0  0  0  0  0  0  0  0  0  0  0  0
   30.6183   -0.8489  105.5549 C   0  0  0  0  0  0  0  0  0  0  0  0
   29.3159   -1.1349  103.0660 O   0  0  0  0  0  0  0  0  0  0  0  0
   28.9798   -3.9949  106.8559 C   0  0  0  0  0  0  0  0  0  0  0  0
   28.3489   -8.1696  107.4174 O   0  0  0  0  0  0  0  0  0  0  0  0
   28.4055   -7.2874  108.2703 C   0  0  0  0  0  0  0  0  0  0  0  0
   29.8173   -5.1538  108.5110 C   0  0  0  0  0  0  0  0  0  0  0  0
   27.5271    0.4296  103.9371 O   0  5  0  0  0  0  0  0  0  0  0  0
   27.4314   -1.7643  104.6397 O   0  0  0  0  0  0  0  0  0  0  0  0
  1 17  1  0  0  0  0
  1 20  1  0  0  0  0
  2 15  1  6  0  0  0
  2  3  1  0  0  0  0
  2 11  1  0  0  0  0
  3  5  1  0  0  0  0
  4 16  1  6  0  0  0
  4 21  1  0  0  0  0
  4 22  2  0  0  0  0
  4 14  1  0  0  0  0
  5  1  1  6  0  0  0
  5  8  1  0  0  0  0
  6 17  2  0  0  0  0
  6 12  1  0  0  0  0
  8  7  1  1  0  0  0
  8 11  1  0  0  0  0
  9 19  1  0  0  0  0
 11 10  1  1  0  0  0
 12 20  2  0  0  0  0
 12 19  1  0  0  0  0
 13 20  1  0  0  0  0
 14 15  1  0  0  0  0
 18 19  2  0  0  0  0
M  CHG  1  21  -1
M  END
>  <CHROM.1>
30.90071050,53.62989883,-20.88620533,-156.54781420,-129.46390020,29.75744298
-3.04619609,106.76206254,-1.55452413,-0.54486779,-0.55806274

>  <Name>
ligand

>  <RI>
0

>  <Rbt.Current_Directory>
/home/itssahil/PROJECTS/Mol_Feturizer/New_Systems/rnas/4XW7

>  <Rbt.Executable>
rbdock ($Id: //depot/dev/client3/rdock/2013.1/src/exe/rbdock.cxx#4 $)

>  <Rbt.Library>
libRbt.so (2013.1, Build901 2013/11/27)

>  <Rbt.Parameter_File>
/export/apps/rDock/src/rDock_2013.1_src/data/scripts/dock_solv.prm

>  <Rbt.Receptor>
prm/pocket_docking_4.prm

>  <SCORE>
-6.90568

>  <SCORE.INTER>
-8.23978

>  <SCORE.INTER.CONST>
1

>  <SCORE.INTER.POLAR>
0

>  <SCORE.INTER.ROT>
5

>  <SCORE.INTER.SOLV>
11.1205

>  <SCORE.INTER.VDW>
-16.1334

>  <SCORE.INTER.norm>
-0.374535

>  <SCORE.INTRA>
1.3341

>  <SCORE.INTRA.DIHEDRAL>
3.21171

>  <SCORE.INTRA.DIHEDRAL.0>
2.61549

>  <SCORE.INTRA.POLAR>
0

>  <SCORE.INTRA.POLAR.0>
0

>  <SCORE.INTRA.REPUL>
0

>  <SCORE.INTRA.REPUL.0>
0

>  <SCORE.INTRA.SOLV>
0.555074

>  <SCORE.INTRA.SOLV.lig_0>
-73.766

>  <SCORE.INTRA.VDW>
-0.549294

>  <SCORE.INTRA.VDW.0>
-1.95055

>  <SCORE.INTRA.norm>
0.0606409

>  <SCORE.RESTR>
0

>  <SCORE.RESTR.CAVITY>
0

>  <SCORE.RESTR.norm>
0

>  <SCORE.SYSTEM>
0

>  <SCORE.SYSTEM.CONST>
0

>  <SCORE.SYSTEM.DIHEDRAL>
0

>  <SCORE.SYSTEM.SOLV>
0

>  <SCORE.SYSTEM.norm>
0

>  <SCORE.heavy>
22

>  <SCORE.norm>
-0.313894

>  <RMSD>
6.517

$$$$
ligand
 OpenBabel11021811513D
libRbt.so/2013.1/901 2013/11/27
 22 23  0  0  0  0  0  0  0  0999 V2000
   30.1680   -4.0355  107.9793 N   0  0  0  0  0  0  0  0  0  0  0  0
   31.1235   -0.8957  107.0103 C   0  0  1  0  0  0  0  0  0  0  0  0
   30.2561   -1.6910  107.8915 O   0  0  0  0  0  0  0  0  0  0  0  0
   28.3802   -0.7066  104.3622 P   0  0  2  0  0  0  0  0  0  0  0  0
   30.9748   -2.9176  108.2158 C   0  0  2  0  0  0  0  0  0  0  0  0
   28.6571   -5.3572  107.0950 N   0  0  0  0  0  0  0  0  0  0  0  0
   33.2766   -3.5399  108.0385 O   0  0  0  0  0  0  0  0  0  0  0  0
   32.1662   -2.9515  107.3449 C   0  0  2  0  0  0  0  0  0  0  0  0
   27.9165   -8.1391  107.8774 N   0  0  0  0  0  0  0  0  0  0  0  0
   33.2646   -0.9701  108.0594 O   0  0  0  0  0  0  0  0  0  0  0  0
   32.4408   -1.5470  107.0224 C   0  0  2  0  0  0  0  0  0  0  0  0
   29.2489   -6.0275  108.1026 C   0  0  0  0  0  0  0  0  0  0  0  0
   31.0620   -5.5168  109.7662 N   0  0  0  0  0  0  0  0  0  0  0  0
   29.2147   -0.5924  105.6793 O   0  0  0  0  0  0  0  0  0  0  0  0
   30.5754   -0.8955  105.6318 C   0  0  0  0  0  0  0  0  0  0  0  0
   29.3043   -1.2229  103.1800 O   0  0  0  0  0  0  0  0  0  0  0  0
   29.2341   -4.1336  107.0324 C   0  0  0  0  0  0  0  0  0  0  0  0
   29.5321   -7.9318  109.4697 O   0  0  0  0  0  0  0  0  0  0  0  0
   28.9211   -7.4231  108.5332 C   0  0  0  0  0  0  0  0  0  0  0  0
   30.2072   -5.2027  108.6737 C   0  0  0  0  0  0  0  0  0  0  0  0
   27.7414    0.5834  104.0172 O   0  5  0  0  0  0  0  0  0  0  0  0
   27.2005   -1.5951  104.5437 O   0  0  0  0  0  0  0  0  0  0  0  0
  1 17  1  0  0  0  0
  1 20  1  0  0  0  0
  2 15  1  6  0  0  0
  2  3  1  0  0  0  0
  2 11  1  0  0  0  0
  3  5  1  0  0  0  0
  4 16  1  6  0  0  0
  4 21  1  0  0  0  0
  4 22  2  0  0  0  0
  4 14  1  0  0  0  0
  5  1  1  6  0  0  0
  5  8  1  0  0  0  0
  6 17  2  0  0  0  0
  6 12  1  0  0  0  0
  8  7  1  1  0  0  0
  8 11  1  0  0  0  0
  9 19  1  0  0  0  0
 11 10  1  1  0  0  0
 12 20  2  0  0  0  0
 12 19  1  0  0  0  0
 13 20  1  0  0  0  0
 14 15  1  0  0  0  0
 18 19  2  0  0  0  0
M  CHG  1  21  -1
M  END
>  <CHROM.1>
32.00407947,48.39118365,1.99106242,-172.56830770,-0.52254965,29.94648547
-3.07018500,106.86679089,-1.45250133,-0.53078073,-0.52690055

>  <Name>
ligand

>  <RI>
0

>  <Rbt.Current_Directory>
/home/itssahil/PROJECTS/Mol_Feturizer/New_Systems/rnas/4XW7

>  <Rbt.Executable>
rbdock ($Id: //depot/dev/client3/rdock/2013.1/src/exe/rbdock.cxx#4 $)

>  <Rbt.Library>
libRbt.so (2013.1, Build901 2013/11/27)

>  <Rbt.Parameter_File>
/export/apps/rDock/src/rDock_2013.1_src/data/scripts/dock_solv.prm

>  <Rbt.Receptor>
prm/pocket_docking_8.prm

>  <SCORE>
-7.17184

>  <SCORE.INTER>
-8.0307

>  <SCORE.INTER.CONST>
1

>  <SCORE.INTER.POLAR>
0

>  <SCORE.INTER.ROT>
5

>  <SCORE.INTER.SOLV>
11.9179

>  <SCORE.INTER.VDW>
-16.2598

>  <SCORE.INTER.norm>
-0.365032

>  <SCORE.INTRA>
0.858854

>  <SCORE.INTRA.DIHEDRAL>
1.95177

>  <SCORE.INTRA.DIHEDRAL.0>
2.61549

>  <SCORE.INTRA.POLAR>
0

>  <SCORE.INTRA.POLAR.0>
0

>  <SCORE.INTRA.REPUL>
0

>  <SCORE.INTRA.REPUL.0>
0

>  <SCORE.INTRA.SOLV>
-0.102248

>  <SCORE.INTRA.SOLV.lig_0>
-73.766

>  <SCORE.INTRA.VDW>
-0.0659071

>  <SCORE.INTRA.VDW.0>
-1.95055

>  <SCORE.INTRA.norm>
0.0390388

>  <SCORE.RESTR>
0

>  <SCORE.RESTR.CAVITY>
0

>  <SCORE.RESTR.norm>
0

>  <SCORE.SYSTEM>
0

>  <SCORE.SYSTEM.CONST>
0

>  <SCORE.SYSTEM.DIHEDRAL>
0

>  <SCORE.SYSTEM.SOLV>
0

>  <SCORE.SYSTEM.norm>
0

>  <SCORE.heavy>
22

>  <SCORE.norm>
-0.325993

>  <RMSD>
6.522

$$$$
ligand
 OpenBabel11021811513D
libRbt.so/2013.1/901 2013/11/27
 22 23  0  0  0  0  0  0  0  0999 V2000
   30.2071   -4.1744  108.0880 N   0  0  0  0  0  0  0  0  0  0  0  0
   30.9304   -0.8659  107.5979 C   0  0  1  0  0  0  0  0  0  0  0  0
   30.2341   -1.8528  108.4361 O   0  0  0  0  0  0  0  0  0  0  0  0
   27.9060    0.1703  105.5048 P   0  0  2  0  0  0  0  0  0  0  0  0
   31.0197   -3.0807  108.4041 C   0  0  2  0  0  0  0  0  0  0  0  0
   28.6497   -5.4035  107.1523 N   0  0  0  0  0  0  0  0  0  0  0  0
   33.2734   -3.5437  107.7532 O   0  0  0  0  0  0  0  0  0  0  0  0
   32.0535   -2.8934  107.3671 C   0  0  2  0  0  0  0  0  0  0  0  0
   29.9956   -8.5931  108.0453 N   0  0  0  0  0  0  0  0  0  0  0  0
   33.2150   -1.0259  108.2653 O   0  0  0  0  0  0  0  0  0  0  0  0
   32.2444   -1.4415  107.2793 C   0  0  2  0  0  0  0  0  0  0  0  0
   29.3131   -6.1809  108.0301 C   0  0  0  0  0  0  0  0  0  0  0  0
   31.2306   -5.8457  109.6196 N   0  0  0  0  0  0  0  0  0  0  0  0
   28.8806   -0.1990  106.6700 O   0  0  0  0  0  0  0  0  0  0  0  0
   30.1649   -0.6380  106.3479 C   0  0  0  0  0  0  0  0  0  0  0  0
   28.3245    1.5637  104.8713 O   0  0  0  0  0  0  0  0  0  0  0  0
   29.2121   -4.1726  107.2001 C   0  0  0  0  0  0  0  0  0  0  0  0
   27.9317   -7.9499  108.7631 O   0  0  0  0  0  0  0  0  0  0  0  0
   29.0255   -7.6229  108.3096 C   0  0  0  0  0  0  0  0  0  0  0  0
   30.3017   -5.4159  108.6320 C   0  0  0  0  0  0  0  0  0  0  0  0
   26.5000    0.1939  105.9672 O   0  5  0  0  0  0  0  0  0  0  0  0
   27.8711   -0.8973  104.4689 O   0  0  0  0  0  0  0  0  0  0  0  0
  1 17  1  0  0  0  0
  1 20  1  0  0  0  0
  2 15  1  6  0  0  0
  2  3  1  0  0  0  0
  2 11  1  0  0  0  0
  3  5  1  0  0  0  0
  4 16  1  6  0  0  0
  4 21  1  0  0  0  0
  4 22  2  0  0  0  0
  4 14  1  0  0  0  0
  5  1  1  6  0  0  0
  5  8  1  0  0  0  0
  6 17  2  0  0  0  0
  6 12  1  0  0  0  0
  8  7  1  1  0  0  0
  8 11  1  0  0  0  0
  9 19  1  0  0  0  0
 11 10  1  1  0  0  0
 12 20  2  0  0  0  0
 12 19  1  0  0  0  0
 13 20  1  0  0  0  0
 14 15  1  0  0  0  0
 18 19  2  0  0  0  0
M  CHG  1  21  -1
M  END
>  <CHROM.1>
38.83952939,58.20987084,-74.50478811,177.26709729,117.76089963,29.79902618
-2.88086302,107.25810116,-1.38358833,-0.35574328,-0.30499242

>  <Name>
ligand

>  <RI>
0

>  <Rbt.Current_Directory>
/home/itssahil/PROJECTS/Mol_Feturizer/New_Systems/rnas/4XW7

>  <Rbt.Executable>
rbdock ($Id: //depot/dev/client3/rdock/2013.1/src/exe/rbdock.cxx#4 $)

>  <Rbt.Library>
libRbt.so (2013.1, Build901 2013/11/27)

>  <Rbt.Parameter_File>
/export/apps/rDock/src/rDock_2013.1_src/data/scripts/dock_solv.prm

>  <Rbt.Receptor>
prm/pocket_docking_6.prm

>  <SCORE>
-8.41316

>  <SCORE.INTER>
-7.49027

>  <SCORE.INTER.CONST>
1

>  <SCORE.INTER.POLAR>
0

>  <SCORE.INTER.ROT>
5

>  <SCORE.INTER.SOLV>
10.2351

>  <SCORE.INTER.VDW>
-15.3386

>  <SCORE.INTER.norm>
-0.340467

>  <SCORE.INTRA>
-0.922894

>  <SCORE.INTRA.DIHEDRAL>
-0.760539

>  <SCORE.INTRA.DIHEDRAL.0>
2.61549

>  <SCORE.INTRA.POLAR>
0

>  <SCORE.INTRA.POLAR.0>
0

>  <SCORE.INTRA.REPUL>
0

>  <SCORE.INTRA.REPUL.0>
0

>  <SCORE.INTRA.SOLV>
-0.0202889

>  <SCORE.INTRA.SOLV.lig_0>
-73.766

>  <SCORE.INTRA.VDW>
-0.53248

>  <SCORE.INTRA.VDW.0>
-1.95055

>  <SCORE.INTRA.norm>
-0.0419497

>  <SCORE.RESTR>
0

>  <SCORE.RESTR.CAVITY>
0

>  <SCORE.RESTR.norm>
0

>  <SCORE.SYSTEM>
0

>  <SCORE.SYSTEM.CONST>
0

>  <SCORE.SYSTEM.DIHEDRAL>
0

>  <SCORE.SYSTEM.SOLV>
0

>  <SCORE.SYSTEM.norm>
0

>  <SCORE.heavy>
22

>  <SCORE.norm>
-0.382416

>  <RMSD>
6.528

$$$$
ligand
 OpenBabel11021811513D
libRbt.so/2013.1/901 2013/11/27
 22 23  0  0  0  0  0  0  0  0999 V2000
   30.2310   -4.1783  108.0637 N   0  0  0  0  0  0  0  0  0  0  0  0
   30.9620   -0.8741  107.5554 C   0  0  1  0  0  0  0  0  0  0  0  0
   30.2704   -1.8556  108.4038 O   0  0  0  0  0  0  0  0  0  0  0  0
   27.9177    0.1652  105.4957 P   0  0  2  0  0  0  0  0  0  0  0  0
   31.0510   -3.0866  108.3679 C   0  0  2  0  0  0  0  0  0  0  0  0
   28.6618   -5.4054  107.1451 N   0  0  0  0  0  0  0  0  0  0  0  0
   33.2961   -3.5605  107.6958 O   0  0  0  0  0  0  0  0  0  0  0  0
   32.0749   -2.9067  107.3199 C   0  0  2  0  0  0  0  0  0  0  0  0
   29.9870   -8.5988  108.0264 N   0  0  0  0  0  0  0  0  0  0  0  0
   33.2526   -1.0409  108.2002 O   0  0  0  0  0  0  0  0  0  0  0  0
   32.2705   -1.4558  107.2254 C   0  0  2  0  0  0  0  0  0  0  0  0
   29.3265   -6.1804  108.0240 C   0  0  0  0  0  0  0  0  0  0  0  0
   31.2551   -5.8448  109.5999 N   0  0  0  0  0  0  0  0  0  0  0  0
   28.8897   -0.2515  106.6471 O   0  0  0  0  0  0  0  0  0  0  0  0
   30.1847   -0.6473  106.3125 C   0  0  0  0  0  0  0  0  0  0  0  0
   28.3572    1.5681  104.8986 O   0  0  0  0  0  0  0  0  0  0  0  0
   29.2307   -4.1770  107.1816 C   0  0  0  0  0  0  0  0  0  0  0  0
   27.9492   -7.9352  108.7979 O   0  0  0  0  0  0  0  0  0  0  0  0
   29.0333   -7.6192  108.3144 C   0  0  0  0  0  0  0  0  0  0  0  0
   30.3225   -5.4167  108.6151 C   0  0  0  0  0  0  0  0  0  0  0  0
   26.5137    0.1994  105.9636 O   0  5  0  0  0  0  0  0  0  0  0  0
   27.8619   -0.8733  104.4315 O   0  0  0  0  0  0  0  0  0  0  0  0
  1 17  1  0  0  0  0
  1 20  1  0  0  0  0
  2 15  1  6  0  0  0
  2  3  1  0  0  0  0
  2 11  1  0  0  0  0
  3  5  1  0  0  0  0
  4 16  1  6  0  0  0
  4 21  1  0  0  0  0
  4 22  2  0  0  0  0
  4 14  1  0  0  0  0
  5  1  1  6  0  0  0
  5  8  1  0  0  0  0
  6 17  2  0  0  0  0
  6 12  1  0  0  0  0
  8  7  1  1  0  0  0
  8 11  1  0  0  0  0
  9 19  1  0  0  0  0
 11 10  1  1  0  0  0
 12 20  2  0  0  0  0
 12 19  1  0  0  0  0
 13 20  1  0  0  0  0
 14 15  1  0  0  0  0
 18 19  2  0  0  0  0
M  CHG  1  21  -1
M  END
>  <CHROM.1>
39.14825210,55.96293387,-71.76342336,174.80825828,116.51211076,29.81755903
-2.88575223,107.23669672,-1.38481888,-0.34374478,-0.30885138

>  <Name>
ligand

>  <RI>
0

>  <Rbt.Current_Directory>
/home/itssahil/PROJECTS/Mol_Feturizer/New_Systems/rnas/4XW7

>  <Rbt.Executable>
rbdock ($Id: //depot/dev/client3/rdock/2013.1/src/exe/rbdock.cxx#4 $)

>  <Rbt.Library>
libRbt.so (2013.1, Build901 2013/11/27)

>  <Rbt.Parameter_File>
/export/apps/rDock/src/rDock_2013.1_src/data/scripts/dock_solv.prm

>  <Rbt.Receptor>
prm/pocket_docking_5.prm

>  <SCORE>
-8.42129

>  <SCORE.INTER>
-7.485

>  <SCORE.INTER.CONST>
1

>  <SCORE.INTER.POLAR>
0

>  <SCORE.INTER.ROT>
5

>  <SCORE.INTER.SOLV>
10.5285

>  <SCORE.INTER.VDW>
-15.4328

>  <SCORE.INTER.norm>
-0.340227

>  <SCORE.INTRA>
-0.936286

>  <SCORE.INTRA.DIHEDRAL>
-0.721273

>  <SCORE.INTRA.DIHEDRAL.0>
2.61549

>  <SCORE.INTRA.POLAR>
0

>  <SCORE.INTRA.POLAR.0>
0

>  <SCORE.INTRA.REPUL>
0

>  <SCORE.INTRA.REPUL.0>
0

>  <SCORE.INTRA.SOLV>
-0.0651152

>  <SCORE.INTRA.SOLV.lig_0>
-73.766

>  <SCORE.INTRA.VDW>
-0.543092

>  <SCORE.INTRA.VDW.0>
-1.95055

>  <SCORE.INTRA.norm>
-0.0425585

>  <SCORE.RESTR>
0

>  <SCORE.RESTR.CAVITY>
0

>  <SCORE.RESTR.norm>
0

>  <SCORE.SYSTEM>
0

>  <SCORE.SYSTEM.CONST>
0

>  <SCORE.SYSTEM.DIHEDRAL>
0

>  <SCORE.SYSTEM.SOLV>
0

>  <SCORE.SYSTEM.norm>
0

>  <SCORE.heavy>
22

>  <SCORE.norm>
-0.382786

>  <RMSD>
6.529

$$$$
ligand
 OpenBabel11021811513D
libRbt.so/2013.1/901 2013/11/27
 22 23  0  0  0  0  0  0  0  0999 V2000
   30.0691   -4.1044  107.9623 N   0  0  0  0  0  0  0  0  0  0  0  0
   31.0487   -0.9335  107.1281 C   0  0  1  0  0  0  0  0  0  0  0  0
   30.1811   -1.7593  107.9806 O   0  0  0  0  0  0  0  0  0  0  0  0
   28.3067   -0.4790  104.5072 P   0  0  2  0  0  0  0  0  0  0  0  0
   30.8898   -3.0066  108.2416 C   0  0  2  0  0  0  0  0  0  0  0  0
   28.5280   -5.3649  107.0415 N   0  0  0  0  0  0  0  0  0  0  0  0
   33.1831   -3.6435  108.0137 O   0  0  0  0  0  0  0  0  0  0  0  0
   32.0726   -3.0129  107.3585 C   0  0  2  0  0  0  0  0  0  0  0  0
   29.7834   -8.5041  108.2411 N   0  0  0  0  0  0  0  0  0  0  0  0
   33.1985   -1.0773  108.1518 O   0  0  0  0  0  0  0  0  0  0  0  0
   32.3590   -1.5979  107.0976 C   0  0  2  0  0  0  0  0  0  0  0  0
   29.1376   -6.0942  107.9962 C   0  0  0  0  0  0  0  0  0  0  0  0
   30.9924   -5.6888  109.6426 N   0  0  0  0  0  0  0  0  0  0  0  0
   29.1416   -0.5067  105.8287 O   0  0  0  0  0  0  0  0  0  0  0  0
   30.4879   -0.8647  105.7564 C   0  0  0  0  0  0  0  0  0  0  0  0
   29.1211   -1.1784  103.3387 O   0  0  0  0  0  0  0  0  0  0  0  0
   29.1129   -4.1435  107.0336 C   0  0  0  0  0  0  0  0  0  0  0  0
   27.6785   -7.7934  108.7439 O   0  0  0  0  0  0  0  0  0  0  0  0
   28.8090   -7.5094  108.3561 C   0  0  0  0  0  0  0  0  0  0  0  0
   30.1152   -5.3088  108.5896 C   0  0  0  0  0  0  0  0  0  0  0  0
   27.9265    0.9039  104.1407 O   0  5  0  0  0  0  0  0  0  0  0  0
   26.9787   -1.1243  104.6919 O   0  0  0  0  0  0  0  0  0  0  0  0
  1 17  1  0  0  0  0
  1 20  1  0  0  0  0
  2 15  1  6  0  0  0
  2  3  1  0  0  0  0
  2 11  1  0  0  0  0
  3  5  1  0  0  0  0
  4 16  1  6  0  0  0
  4 21  1  0  0  0  0
  4 22  2  0  0  0  0
  4 14  1  0  0  0  0
  5  1  1  6  0  0  0
  5  8  1  0  0  0  0
  6 17  2  0  0  0  0
  6 12  1  0  0  0  0
  8  7  1  1  0  0  0
  8 11  1  0  0  0  0
  9 19  1  0  0  0  0
 11 10  1  1  0  0  0
 12 20  2  0  0  0  0
 12 19  1  0  0  0  0
 13 20  1  0  0  0  0
 14 15  1  0  0  0  0
 18 19  2  0  0  0  0
M  CHG  1  21  -1
M  END
>  <CHROM.1>
31.01149207,50.34948300,11.98266527,-175.32821628,119.93203773,29.85766952
-3.05489182,106.88930207,-1.45877840,-0.49130430,-0.47479081

>  <Name>
ligand

>  <RI>
0

>  <Rbt.Current_Directory>
/home/itssahil/PROJECTS/Mol_Feturizer/New_Systems/rnas/4XW7

>  <Rbt.Executable>
rbdock ($Id: //depot/dev/client3/rdock/2013.1/src/exe/rbdock.cxx#4 $)

>  <Rbt.Library>
libRbt.so (2013.1, Build901 2013/11/27)

>  <Rbt.Parameter_File>
/export/apps/rDock/src/rDock_2013.1_src/data/scripts/dock_solv.prm

>  <Rbt.Receptor>
prm/pocket_docking_5.prm

>  <SCORE>
-7.17454

>  <SCORE.INTER>
-7.62563

>  <SCORE.INTER.CONST>
1

>  <SCORE.INTER.POLAR>
0

>  <SCORE.INTER.ROT>
5

>  <SCORE.INTER.SOLV>
13.4847

>  <SCORE.INTER.VDW>
-16.512

>  <SCORE.INTER.norm>
-0.346619

>  <SCORE.INTRA>
0.451088

>  <SCORE.INTRA.DIHEDRAL>
1.43212

>  <SCORE.INTRA.DIHEDRAL.0>
2.61549

>  <SCORE.INTRA.POLAR>
0

>  <SCORE.INTRA.POLAR.0>
0

>  <SCORE.INTRA.REPUL>
0

>  <SCORE.INTRA.REPUL.0>
0

>  <SCORE.INTRA.SOLV>
-0.092035

>  <SCORE.INTRA.SOLV.lig_0>
-73.766

>  <SCORE.INTRA.VDW>
-0.218956

>  <SCORE.INTRA.VDW.0>
-1.95055

>  <SCORE.INTRA.norm>
0.020504

>  <SCORE.RESTR>
0

>  <SCORE.RESTR.CAVITY>
0

>  <SCORE.RESTR.norm>
0

>  <SCORE.SYSTEM>
0

>  <SCORE.SYSTEM.CONST>
0

>  <SCORE.SYSTEM.DIHEDRAL>
0

>  <SCORE.SYSTEM.SOLV>
0

>  <SCORE.SYSTEM.norm>
0

>  <SCORE.heavy>
22

>  <SCORE.norm>
-0.326115

>  <RMSD>
6.531

$$$$
ligand
 OpenBabel11021811513D
libRbt.so/2013.1/901 2013/11/27
 22 23  0  0  0  0  0  0  0  0999 V2000
   30.2089   -4.1880  108.1147 N   0  0  0  0  0  0  0  0  0  0  0  0
   30.9615   -0.8870  107.6174 C   0  0  1  0  0  0  0  0  0  0  0  0
   30.2618   -1.8665  108.4614 O   0  0  0  0  0  0  0  0  0  0  0  0
   27.9184    0.1419  105.5472 P   0  0  2  0  0  0  0  0  0  0  0  0
   31.0349   -3.1023  108.4240 C   0  0  2  0  0  0  0  0  0  0  0  0
   28.6741   -5.4212  107.1477 N   0  0  0  0  0  0  0  0  0  0  0  0
   33.2787   -3.5881  107.7561 O   0  0  0  0  0  0  0  0  0  0  0  0
   32.0624   -2.9258  107.3790 C   0  0  2  0  0  0  0  0  0  0  0  0
   29.8675   -8.5906  108.3155 N   0  0  0  0  0  0  0  0  0  0  0  0
   33.2495   -1.0697  108.2674 O   0  0  0  0  0  0  0  0  0  0  0  0
   32.2672   -1.4759  107.2890 C   0  0  2  0  0  0  0  0  0  0  0  0
   29.2567   -6.1683  108.1054 C   0  0  0  0  0  0  0  0  0  0  0  0
   31.0818   -5.8020  109.7938 N   0  0  0  0  0  0  0  0  0  0  0  0
   28.9082   -0.2095  106.7052 O   0  0  0  0  0  0  0  0  0  0  0  0
   30.1887   -0.6520  106.3732 C   0  0  0  0  0  0  0  0  0  0  0  0
   28.3309    1.5234  104.8844 O   0  0  0  0  0  0  0  0  0  0  0  0
   29.2714   -4.2060  107.1665 C   0  0  0  0  0  0  0  0  0  0  0  0
   27.7702   -7.8584  108.8189 O   0  0  0  0  0  0  0  0  0  0  0  0
   28.9065   -7.5842  108.4413 C   0  0  0  0  0  0  0  0  0  0  0  0
   30.2300   -5.4002  108.7280 C   0  0  0  0  0  0  0  0  0  0  0  0
   26.5189    0.1763  106.0282 O   0  5  0  0  0  0  0  0  0  0  0  0
   27.8675   -0.9431  104.5302 O   0  0  0  0  0  0  0  0  0  0  0  0
  1 17  1  0  0  0  0
  1 20  1  0  0  0  0
  2 15  1  6  0  0  0
  2  3  1  0  0  0  0
  2 11  1  0  0  0  0
  3  5  1  0  0  0  0
  4 16  1  6  0  0  0
  4 21  1  0  0  0  0
  4 22  2  0  0  0  0
  4 14  1  0  0  0  0
  5  1  1  6  0  0  0
  5  8  1  0  0  0  0
  6 17  2  0  0  0  0
  6 12  1  0  0  0  0
  8  7  1  1  0  0  0
  8 11  1  0  0  0  0
  9 19  1  0  0  0  0
 11 10  1  1  0  0  0
 12 20  2  0  0  0  0
 12 19  1  0  0  0  0
 13 20  1  0  0  0  0
 14 15  1  0  0  0  0
 18 19  2  0  0  0  0
M  CHG  1  21  -1
M  END
>  <CHROM.1>
44.02397340,57.77359516,-74.27664899,178.39028560,119.01412059,29.78460041
-2.89265800,107.30774959,-1.40179855,-0.34202534,-0.32505765

>  <Name>
ligand

>  <RI>
0

>  <Rbt.Current_Directory>
/home/itssahil/PROJECTS/Mol_Feturizer/New_Systems/rnas/4XW7

>  <Rbt.Executable>
rbdock ($Id: //depot/dev/client3/rdock/2013.1/src/exe/rbdock.cxx#4 $)

>  <Rbt.Library>
libRbt.so (2013.1, Build901 2013/11/27)

>  <Rbt.Parameter_File>
/export/apps/rDock/src/rDock_2013.1_src/data/scripts/dock_solv.prm

>  <Rbt.Receptor>
prm/pocket_docking_6.prm

>  <SCORE>
-8.35916

>  <SCORE.INTER>
-7.35629

>  <SCORE.INTER.CONST>
1

>  <SCORE.INTER.POLAR>
0

>  <SCORE.INTER.ROT>
5

>  <SCORE.INTER.SOLV>
9.15345

>  <SCORE.INTER.VDW>
-14.8887

>  <SCORE.INTER.norm>
-0.334377

>  <SCORE.INTRA>
-1.00287

>  <SCORE.INTRA.DIHEDRAL>
-0.792145

>  <SCORE.INTRA.DIHEDRAL.0>
2.61549

>  <SCORE.INTRA.POLAR>
0

>  <SCORE.INTRA.POLAR.0>
0

>  <SCORE.INTRA.REPUL>
0

>  <SCORE.INTRA.REPUL.0>
0

>  <SCORE.INTRA.SOLV>
-0.165609

>  <SCORE.INTRA.SOLV.lig_0>
-73.766

>  <SCORE.INTRA.VDW>
-0.52399

>  <SCORE.INTRA.VDW.0>
-1.95055

>  <SCORE.INTRA.norm>
-0.0455849

>  <SCORE.RESTR>
0

>  <SCORE.RESTR.CAVITY>
0

>  <SCORE.RESTR.norm>
0

>  <SCORE.SYSTEM>
0

>  <SCORE.SYSTEM.CONST>
0

>  <SCORE.SYSTEM.DIHEDRAL>
0

>  <SCORE.SYSTEM.SOLV>
0

>  <SCORE.SYSTEM.norm>
0

>  <SCORE.heavy>
22

>  <SCORE.norm>
-0.379962

>  <RMSD>
6.535

$$$$
ligand
 OpenBabel11021811513D
libRbt.so/2013.1/901 2013/11/27
 22 23  0  0  0  0  0  0  0  0999 V2000
   30.2217   -4.1149  108.0712 N   0  0  0  0  0  0  0  0  0  0  0  0
   30.9642   -0.8202  107.5204 C   0  0  1  0  0  0  0  0  0  0  0  0
   30.2786   -1.7893  108.3877 O   0  0  0  0  0  0  0  0  0  0  0  0
   27.9086    0.2372  105.4838 P   0  0  2  0  0  0  0  0  0  0  0  0
   31.0518   -3.0250  108.3536 C   0  0  2  0  0  0  0  0  0  0  0  0
   28.6720   -5.3607  107.1448 N   0  0  0  0  0  0  0  0  0  0  0  0
   33.2851   -3.5182  107.6563 O   0  0  0  0  0  0  0  0  0  0  0  0
   32.0625   -2.8613  107.2903 C   0  0  2  0  0  0  0  0  0  0  0  0
   29.9024   -8.5060  108.3800 N   0  0  0  0  0  0  0  0  0  0  0  0
   33.2623   -0.9936  108.1361 O   0  0  0  0  0  0  0  0  0  0  0  0
   32.2648   -1.4125  107.1788 C   0  0  2  0  0  0  0  0  0  0  0  0
   29.2713   -6.0959  108.1016 C   0  0  0  0  0  0  0  0  0  0  0  0
   31.1240   -5.7081  109.7546 N   0  0  0  0  0  0  0  0  0  0  0  0
   28.9054   -0.1287  106.6313 O   0  0  0  0  0  0  0  0  0  0  0  0
   30.1715   -0.6012  106.2858 C   0  0  0  0  0  0  0  0  0  0  0  0
   28.2856    1.6516  104.8711 O   0  0  0  0  0  0  0  0  0  0  0  0
   29.2685   -4.1450  107.1390 C   0  0  0  0  0  0  0  0  0  0  0  0
   27.7857   -7.7863  108.8161 O   0  0  0  0  0  0  0  0  0  0  0  0
   28.9280   -7.5079  108.4602 C   0  0  0  0  0  0  0  0  0  0  0  0
   30.2541   -5.3198  108.6985 C   0  0  0  0  0  0  0  0  0  0  0  0
   26.5079    0.2177  105.9621 O   0  5  0  0  0  0  0  0  0  0  0  0
   27.8881   -0.8123  104.4291 O   0  0  0  0  0  0  0  0  0  0  0  0
  1 17  1  0  0  0  0
  1 20  1  0  0  0  0
  2 15  1  6  0  0  0
  2  3  1  0  0  0  0
  2 11  1  0  0  0  0
  3  5  1  0  0  0  0
  4 16  1  6  0  0  0
  4 21  1  0  0  0  0
  4 22  2  0  0  0  0
  4 14  1  0  0  0  0
  5  1  1  6  0  0  0
  5  8  1  0  0  0  0
  6 17  2  0  0  0  0
  6 12  1  0  0  0  0
  8  7  1  1  0  0  0
  8 11  1  0  0  0  0
  9 19  1  0  0  0  0
 11 10  1  1  0  0  0
 12 20  2  0  0  0  0
 12 19  1  0  0  0  0
 13 20  1  0  0  0  0
 14 15  1  0  0  0  0
 18 19  2  0  0  0  0
M  CHG  1  21  -1
M  END
>  <CHROM.1>
43.96377434,58.99650715,-78.03107416,177.29405843,121.50554862,29.79007992
-2.81402111,107.25382188,-1.39780239,-0.32666880,-0.33451439

>  <Name>
ligand

>  <RI>
0

>  <Rbt.Current_Directory>
/home/itssahil/PROJECTS/Mol_Feturizer/New_Systems/rnas/4XW7

>  <Rbt.Executable>
rbdock ($Id: //depot/dev/client3/rdock/2013.1/src/exe/rbdock.cxx#4 $)

>  <Rbt.Library>
libRbt.so (2013.1, Build901 2013/11/27)

>  <Rbt.Parameter_File>
/export/apps/rDock/src/rDock_2013.1_src/data/scripts/dock_solv.prm

>  <Rbt.Receptor>
prm/pocket_docking_7.prm

>  <SCORE>
-8.46424

>  <SCORE.INTER>
-7.60903

>  <SCORE.INTER.CONST>
1

>  <SCORE.INTER.POLAR>
0

>  <SCORE.INTER.ROT>
5

>  <SCORE.INTER.SOLV>
9.91405

>  <SCORE.INTER.VDW>
-15.3107

>  <SCORE.INTER.norm>
-0.345865

>  <SCORE.INTRA>
-0.855219

>  <SCORE.INTRA.DIHEDRAL>
-0.605066

>  <SCORE.INTRA.DIHEDRAL.0>
2.61549

>  <SCORE.INTRA.POLAR>
0

>  <SCORE.INTRA.POLAR.0>
0

>  <SCORE.INTRA.REPUL>
0

>  <SCORE.INTRA.REPUL.0>
0

>  <SCORE.INTRA.SOLV>
-0.129507

>  <SCORE.INTRA.SOLV.lig_0>
-73.766

>  <SCORE.INTRA.VDW>
-0.487932

>  <SCORE.INTRA.VDW.0>
-1.95055

>  <SCORE.INTRA.norm>
-0.0388736

>  <SCORE.RESTR>
0

>  <SCORE.RESTR.CAVITY>
0

>  <SCORE.RESTR.norm>
0

>  <SCORE.SYSTEM>
0

>  <SCORE.SYSTEM.CONST>
0

>  <SCORE.SYSTEM.DIHEDRAL>
0

>  <SCORE.SYSTEM.SOLV>
0

>  <SCORE.SYSTEM.norm>
0

>  <SCORE.heavy>
22

>  <SCORE.norm>
-0.384738

>  <RMSD>
6.542

$$$$
ligand
 OpenBabel11021811513D
libRbt.so/2013.1/901 2013/11/27
 22 23  0  0  0  0  0  0  0  0999 V2000
   28.9078   -4.0571  107.2944 N   0  0  0  0  0  0  0  0  0  0  0  0
   30.8773   -1.3356  106.6428 C   0  0  1  0  0  0  0  0  0  0  0  0
   30.0697   -2.4236  106.0723 O   0  0  0  0  0  0  0  0  0  0  0  0
   33.1799   -3.6815  108.5866 P   0  0  2  0  0  0  0  0  0  0  0  0
   28.9809   -2.6906  107.0046 C   0  0  2  0  0  0  0  0  0  0  0  0
   29.4648   -6.0731  107.9556 N   0  0  0  0  0  0  0  0  0  0  0  0
   28.0616   -1.4370  108.8213 O   0  0  0  0  0  0  0  0  0  0  0  0
   29.2761   -1.9218  108.2297 C   0  0  2  0  0  0  0  0  0  0  0  0
   26.7692   -7.7881  106.3094 N   0  0  0  0  0  0  0  0  0  0  0  0
   29.2761    0.2850  107.3501 O   0  0  0  0  0  0  0  0  0  0  0  0
   30.1179   -0.8060  107.7839 C   0  0  2  0  0  0  0  0  0  0  0  0
   28.1875   -6.1196  107.5298 C   0  0  0  0  0  0  0  0  0  0  0  0
   26.5585   -4.4572  106.5820 N   0  0  0  0  0  0  0  0  0  0  0  0
   31.9615   -3.0230  107.8612 O   0  0  0  0  0  0  0  0  0  0  0  0
   32.1806   -1.8683  107.1100 C   0  0  0  0  0  0  0  0  0  0  0  0
   34.3847   -3.8565  107.5689 O   0  0  0  0  0  0  0  0  0  0  0  0
   29.8930   -4.7973  107.8042 C   0  0  0  0  0  0  0  0  0  0  0  0
   27.0802   -7.9322  108.5612 O   0  0  0  0  0  0  0  0  0  0  0  0
   27.3172   -7.3373  107.5129 C   0  0  0  0  0  0  0  0  0  0  0  0
   27.8208   -4.8504  107.1062 C   0  0  0  0  0  0  0  0  0  0  0  0
   32.8051   -4.9759  109.1993 O   0  5  0  0  0  0  0  0  0  0  0  0
   33.5964   -2.8882  109.7746 O   0  0  0  0  0  0  0  0  0  0  0  0
  1 17  1  0  0  0  0
  1 20  1  0  0  0  0
  2 15  1  1  0  0  0
  2  3  1  0  0  0  0
  2 11  1  0  0  0  0
  3  5  1  0  0  0  0
  4 16  1  6  0  0  0
  4 21  1  0  0  0  0
  4 22  2  0  0  0  0
  4 14  1  0  0  0  0
  5  1  1  1  0  0  0
  5  8  1  0  0  0  0
  6 17  2  0  0  0  0
  6 12  1  0  0  0  0
  8  7  1  6  0  0  0
  8 11  1  0  0  0  0
  9 19  1  0  0  0  0
 11 10  1  6  0  0  0
 12 20  2  0  0  0  0
 12 19  1  0  0  0  0
 13 20  1  0  0  0  0
 14 15  1  0  0  0  0
 18 19  2  0  0  0  0
M  CHG  1  21  -1
M  END
>  <CHROM.1>
57.42255081,-47.39633916,-49.62670380,-173.70521539,-121.12901046,30.11365105
-3.76460024,107.74463350,2.51548896,0.23026961,3.03121420

>  <Name>
ligand

>  <RI>
0

>  <Rbt.Current_Directory>
/home/itssahil/PROJECTS/Mol_Feturizer/New_Systems/rnas/4XW7

>  <Rbt.Executable>
rbdock ($Id: //depot/dev/client3/rdock/2013.1/src/exe/rbdock.cxx#4 $)

>  <Rbt.Library>
libRbt.so (2013.1, Build901 2013/11/27)

>  <Rbt.Parameter_File>
/export/apps/rDock/src/rDock_2013.1_src/data/scripts/dock_solv.prm

>  <Rbt.Receptor>
prm/pocket_docking_3.prm

>  <SCORE>
-6.81814

>  <SCORE.INTER>
-6.22149

>  <SCORE.INTER.CONST>
1

>  <SCORE.INTER.POLAR>
0

>  <SCORE.INTER.ROT>
5

>  <SCORE.INTER.SOLV>
10.1346

>  <SCORE.INTER.VDW>
-14.4592

>  <SCORE.INTER.norm>
-0.282795

>  <SCORE.INTRA>
-0.596652

>  <SCORE.INTRA.DIHEDRAL>
-0.21254

>  <SCORE.INTRA.DIHEDRAL.0>
2.61549

>  <SCORE.INTRA.POLAR>
0

>  <SCORE.INTRA.POLAR.0>
0

>  <SCORE.INTRA.REPUL>
0

>  <SCORE.INTRA.REPUL.0>
0

>  <SCORE.INTRA.SOLV>
0.600973

>  <SCORE.INTRA.SOLV.lig_0>
-73.766

>  <SCORE.INTRA.VDW>
-0.790868

>  <SCORE.INTRA.VDW.0>
-1.95055

>  <SCORE.INTRA.norm>
-0.0271205

>  <SCORE.RESTR>
0

>  <SCORE.RESTR.CAVITY>
0

>  <SCORE.RESTR.norm>
0

>  <SCORE.SYSTEM>
0

>  <SCORE.SYSTEM.CONST>
0

>  <SCORE.SYSTEM.DIHEDRAL>
0

>  <SCORE.SYSTEM.SOLV>
0

>  <SCORE.SYSTEM.norm>
0

>  <SCORE.heavy>
22

>  <SCORE.norm>
-0.309916

>  <RMSD>
6.546

$$$$
ligand
 OpenBabel11021811513D
libRbt.so/2013.1/901 2013/11/27
 22 23  0  0  0  0  0  0  0  0999 V2000
   30.4461   -4.1979  108.1892 N   0  0  0  0  0  0  0  0  0  0  0  0
   31.0332   -0.8782  107.6021 C   0  0  1  0  0  0  0  0  0  0  0  0
   30.3797   -1.8680  108.4707 O   0  0  0  0  0  0  0  0  0  0  0  0
   27.9917    0.0607  105.4915 P   0  0  2  0  0  0  0  0  0  0  0  0
   31.2145   -3.0635  108.4708 C   0  0  2  0  0  0  0  0  0  0  0  0
   28.9138   -5.5060  107.3219 N   0  0  0  0  0  0  0  0  0  0  0  0
   33.4834   -3.4533  107.8250 O   0  0  0  0  0  0  0  0  0  0  0  0
   32.2371   -2.8643  107.4251 C   0  0  2  0  0  0  0  0  0  0  0  0
   29.0433   -8.1132  109.7261 N   0  0  0  0  0  0  0  0  0  0  0  0
   33.3242   -0.9263  108.2651 O   0  0  0  0  0  0  0  0  0  0  0  0
   32.3687   -1.4089  107.2951 C   0  0  2  0  0  0  0  0  0  0  0  0
   29.6555   -6.2479  108.1671 C   0  0  0  0  0  0  0  0  0  0  0  0
   31.6230   -5.8138  109.6691 N   0  0  0  0  0  0  0  0  0  0  0  0
   28.9598   -0.3077  106.6625 O   0  0  0  0  0  0  0  0  0  0  0  0
   30.2558   -0.7174  106.3489 C   0  0  0  0  0  0  0  0  0  0  0  0
   28.3692    1.4867  104.9066 O   0  0  0  0  0  0  0  0  0  0  0  0
   29.4133   -4.2476  107.3471 C   0  0  0  0  0  0  0  0  0  0  0  0
   29.6644   -8.5338  107.5754 O   0  0  0  0  0  0  0  0  0  0  0  0
   29.4559   -7.7029  108.4559 C   0  0  0  0  0  0  0  0  0  0  0  0
   30.6294   -5.4328  108.7255 C   0  0  0  0  0  0  0  0  0  0  0  0
   26.5783    0.0194  105.9295 O   0  5  0  0  0  0  0  0  0  0  0  0
   28.0134   -0.9760  104.4243 O   0  0  0  0  0  0  0  0  0  0  0  0
  1 17  1  0  0  0  0
  1 20  1  0  0  0  0
  2 15  1  6  0  0  0
  2  3  1  0  0  0  0
  2 11  1  0  0  0  0
  3  5  1  0  0  0  0
  4 16  1  6  0  0  0
  4 21  1  0  0  0  0
  4 22  2  0  0  0  0
  4 14  1  0  0  0  0
  5  1  1  6  0  0  0
  5  8  1  0  0  0  0
  6 17  2  0  0  0  0
  6 12  1  0  0  0  0
  8  7  1  1  0  0  0
  8 11  1  0  0  0  0
  9 19  1  0  0  0  0
 11 10  1  1  0  0  0
 12 20  2  0  0  0  0
 12 19  1  0  0  0  0
 13 20  1  0  0  0  0
 14 15  1  0  0  0  0
 18 19  2  0  0  0  0
M  CHG  1  21  -1
M  END
>  <CHROM.1>
35.81715678,58.84853379,-75.85339052,174.20226848,-113.26514328,30.00357625
-2.92544769,107.31168119,-1.34077667,-0.38508785,-0.30673317

>  <Name>
ligand

>  <RI>
0

>  <Rbt.Current_Directory>
/home/itssahil/PROJECTS/Mol_Feturizer/New_Systems/rnas/4XW7

>  <Rbt.Executable>
rbdock ($Id: //depot/dev/client3/rdock/2013.1/src/exe/rbdock.cxx#4 $)

>  <Rbt.Library>
libRbt.so (2013.1, Build901 2013/11/27)

>  <Rbt.Parameter_File>
/export/apps/rDock/src/rDock_2013.1_src/data/scripts/dock_solv.prm

>  <Rbt.Receptor>
prm/pocket_docking_7.prm

>  <SCORE>
-8.37653

>  <SCORE.INTER>
-7.62153

>  <SCORE.INTER.CONST>
1

>  <SCORE.INTER.POLAR>
0

>  <SCORE.INTER.ROT>
5

>  <SCORE.INTER.SOLV>
10.3397

>  <SCORE.INTER.VDW>
-15.4609

>  <SCORE.INTER.norm>
-0.346433

>  <SCORE.INTRA>
-0.755

>  <SCORE.INTRA.DIHEDRAL>
-0.532622

>  <SCORE.INTRA.DIHEDRAL.0>
2.61549

>  <SCORE.INTRA.POLAR>
0

>  <SCORE.INTRA.POLAR.0>
0

>  <SCORE.INTRA.REPUL>
0

>  <SCORE.INTRA.REPUL.0>
0

>  <SCORE.INTRA.SOLV>
0.0528233

>  <SCORE.INTRA.SOLV.lig_0>
-73.766

>  <SCORE.INTRA.VDW>
-0.5151

>  <SCORE.INTRA.VDW.0>
-1.95055

>  <SCORE.INTRA.norm>
-0.0343182

>  <SCORE.RESTR>
0

>  <SCORE.RESTR.CAVITY>
0

>  <SCORE.RESTR.norm>
0

>  <SCORE.SYSTEM>
0

>  <SCORE.SYSTEM.CONST>
0

>  <SCORE.SYSTEM.DIHEDRAL>
0

>  <SCORE.SYSTEM.SOLV>
0

>  <SCORE.SYSTEM.norm>
0

>  <SCORE.heavy>
22

>  <SCORE.norm>
-0.380752

>  <RMSD>
6.546

$$$$
ligand
 OpenBabel11021811513D
libRbt.so/2013.1/901 2013/11/27
 22 23  0  0  0  0  0  0  0  0999 V2000
   30.2804   -4.1258  108.0865 N   0  0  0  0  0  0  0  0  0  0  0  0
   30.9761   -0.8209  107.5354 C   0  0  1  0  0  0  0  0  0  0  0  0
   30.3102   -1.8001  108.4066 O   0  0  0  0  0  0  0  0  0  0  0  0
   27.8870    0.1935  105.5288 P   0  0  2  0  0  0  0  0  0  0  0  0
   31.0988   -3.0258  108.3639 C   0  0  2  0  0  0  0  0  0  0  0  0
   28.7125   -5.3770  107.1989 N   0  0  0  0  0  0  0  0  0  0  0  0
   33.3323   -3.4893  107.6473 O   0  0  0  0  0  0  0  0  0  0  0  0
   32.0985   -2.8474  107.2926 C   0  0  2  0  0  0  0  0  0  0  0  0
   28.0463   -8.2281  107.7712 N   0  0  0  0  0  0  0  0  0  0  0  0
   33.2813   -0.9659  108.1318 O   0  0  0  0  0  0  0  0  0  0  0  0
   32.2814   -1.3960  107.1819 C   0  0  2  0  0  0  0  0  0  0  0  0
   29.3796   -6.1299  108.0951 C   0  0  0  0  0  0  0  0  0  0  0  0
   31.3094   -5.7538  109.6604 N   0  0  0  0  0  0  0  0  0  0  0  0
   28.8916   -0.1838  106.6658 O   0  0  0  0  0  0  0  0  0  0  0  0
   30.1706   -0.6100  106.3077 C   0  0  0  0  0  0  0  0  0  0  0  0
   28.3077    1.5758  104.8728 O   0  0  0  0  0  0  0  0  0  0  0  0
   29.2792   -4.1471  107.2058 C   0  0  0  0  0  0  0  0  0  0  0  0
   29.7651   -8.1452  109.2636 O   0  0  0  0  0  0  0  0  0  0  0  0
   29.0893   -7.5619  108.4197 C   0  0  0  0  0  0  0  0  0  0  0  0
   30.3748   -5.3507  108.6669 C   0  0  0  0  0  0  0  0  0  0  0  0
   26.4967    0.2428  106.0346 O   0  5  0  0  0  0  0  0  0  0  0  0
   27.8029   -0.8802  104.5021 O   0  0  0  0  0  0  0  0  0  0  0  0
  1 17  1  0  0  0  0
  1 20  1  0  0  0  0
  2 15  1  6  0  0  0
  2  3  1  0  0  0  0
  2 11  1  0  0  0  0
  3  5  1  0  0  0  0
  4 16  1  6  0  0  0
  4 21  1  0  0  0  0
  4 22  2  0  0  0  0
  4 14  1  0  0  0  0
  5  1  1  6  0  0  0
  5  8  1  0  0  0  0
  6 17  2  0  0  0  0
  6 12  1  0  0  0  0
  8  7  1  1  0  0  0
  8 11  1  0  0  0  0
  9 19  1  0  0  0  0
 11 10  1  1  0  0  0
 12 20  2  0  0  0  0
 12 19  1  0  0  0  0
 13 20  1  0  0  0  0
 14 15  1  0  0  0  0
 18 19  2  0  0  0  0
M  CHG  1  21  -1
M  END
>  <CHROM.1>
40.64337042,57.64285121,-72.74756134,176.08157803,-0.13676618,29.83687729
-2.83671362,107.26366353,-1.37211336,-0.35283117,-0.31646634

>  <Name>
ligand

>  <RI>
0

>  <Rbt.Current_Directory>
/home/itssahil/PROJECTS/Mol_Feturizer/New_Systems/rnas/4XW7

>  <Rbt.Executable>
rbdock ($Id: //depot/dev/client3/rdock/2013.1/src/exe/rbdock.cxx#4 $)

>  <Rbt.Library>
libRbt.so (2013.1, Build901 2013/11/27)

>  <Rbt.Parameter_File>
/export/apps/rDock/src/rDock_2013.1_src/data/scripts/dock_solv.prm

>  <Rbt.Receptor>
prm/pocket_docking_5.prm

>  <SCORE>
-8.33881

>  <SCORE.INTER>
-7.51001

>  <SCORE.INTER.CONST>
1

>  <SCORE.INTER.POLAR>
0

>  <SCORE.INTER.ROT>
5

>  <SCORE.INTER.SOLV>
9.74747

>  <SCORE.INTER.VDW>
-15.1892

>  <SCORE.INTER.norm>
-0.341364

>  <SCORE.INTRA>
-0.828799

>  <SCORE.INTRA.DIHEDRAL>
-0.790832

>  <SCORE.INTRA.DIHEDRAL.0>
2.61549

>  <SCORE.INTRA.POLAR>
0

>  <SCORE.INTRA.POLAR.0>
0

>  <SCORE.INTRA.REPUL>
0

>  <SCORE.INTRA.REPUL.0>
0

>  <SCORE.INTRA.SOLV>
-0.0661047

>  <SCORE.INTRA.SOLV.lig_0>
-73.766

>  <SCORE.INTRA.VDW>
-0.40033

>  <SCORE.INTRA.VDW.0>
-1.95055

>  <SCORE.INTRA.norm>
-0.0376727

>  <SCORE.RESTR>
0

>  <SCORE.RESTR.CAVITY>
0

>  <SCORE.RESTR.norm>
0

>  <SCORE.SYSTEM>
0

>  <SCORE.SYSTEM.CONST>
0

>  <SCORE.SYSTEM.DIHEDRAL>
0

>  <SCORE.SYSTEM.SOLV>
0

>  <SCORE.SYSTEM.norm>
0

>  <SCORE.heavy>
22

>  <SCORE.norm>
-0.379037

>  <RMSD>
6.547

$$$$
ligand
 OpenBabel11021811513D
libRbt.so/2013.1/901 2013/11/27
 22 23  0  0  0  0  0  0  0  0999 V2000
   30.2268   -4.1966  108.1180 N   0  0  0  0  0  0  0  0  0  0  0  0
   30.9522   -0.8890  107.6247 C   0  0  1  0  0  0  0  0  0  0  0  0
   30.2624   -1.8755  108.4688 O   0  0  0  0  0  0  0  0  0  0  0  0
   27.9125    0.1659  105.5628 P   0  0  2  0  0  0  0  0  0  0  0  0
   31.0450   -3.1050  108.4271 C   0  0  2  0  0  0  0  0  0  0  0  0
   28.6616   -5.4231  107.1919 N   0  0  0  0  0  0  0  0  0  0  0  0
   33.2908   -3.5721  107.7524 O   0  0  0  0  0  0  0  0  0  0  0  0
   32.0684   -2.9186  107.3798 C   0  0  2  0  0  0  0  0  0  0  0  0
   28.6090   -8.0259  109.6328 N   0  0  0  0  0  0  0  0  0  0  0  0
   33.2432   -1.0548  108.2683 O   0  0  0  0  0  0  0  0  0  0  0  0
   32.2615   -1.4670  107.2918 C   0  0  2  0  0  0  0  0  0  0  0  0
   29.3239   -6.1994  108.0715 C   0  0  0  0  0  0  0  0  0  0  0  0
   31.2470   -5.8654  109.6545 N   0  0  0  0  0  0  0  0  0  0  0  0
   28.9014   -0.1963  106.7183 O   0  0  0  0  0  0  0  0  0  0  0  0
   30.1743   -0.6578  106.3829 C   0  0  0  0  0  0  0  0  0  0  0  0
   28.3296    1.5500  104.9085 O   0  0  0  0  0  0  0  0  0  0  0  0
   29.2295   -4.1944  107.2327 C   0  0  0  0  0  0  0  0  0  0  0  0
   29.1706   -8.4780  107.4721 O   0  0  0  0  0  0  0  0  0  0  0  0
   29.0307   -7.6388  108.3582 C   0  0  0  0  0  0  0  0  0  0  0  0
   30.3173   -5.4361  108.6674 C   0  0  0  0  0  0  0  0  0  0  0  0
   26.5133    0.2022  106.0445 O   0  5  0  0  0  0  0  0  0  0  0  0
   27.8574   -0.9126  104.5391 O   0  0  0  0  0  0  0  0  0  0  0  0
  1 17  1  0  0  0  0
  1 20  1  0  0  0  0
  2 15  1  6  0  0  0
  2  3  1  0  0  0  0
  2 11  1  0  0  0  0
  3  5  1  0  0  0  0
  4 16  1  6  0  0  0
  4 21  1  0  0  0  0
  4 22  2  0  0  0  0
  4 14  1  0  0  0  0
  5  1  1  6  0  0  0
  5  8  1  0  0  0  0
  6 17  2  0  0  0  0
  6 12  1  0  0  0  0
  8  7  1  1  0  0  0
  8 11  1  0  0  0  0
  9 19  1  0  0  0  0
 11 10  1  1  0  0  0
 12 20  2  0  0  0  0
 12 19  1  0  0  0  0
 13 20  1  0  0  0  0
 14 15  1  0  0  0  0
 18 19  2  0  0  0  0
M  CHG  1  21  -1
M  END
>  <CHROM.1>
39.40654574,59.13894097,-75.09969118,177.89949724,-116.62408240,29.81303744
-2.89770620,107.29606086,-1.38743864,-0.36579274,-0.30524186

>  <Name>
ligand

>  <RI>
0

>  <Rbt.Current_Directory>
/home/itssahil/PROJECTS/Mol_Feturizer/New_Systems/rnas/4XW7

>  <Rbt.Executable>
rbdock ($Id: //depot/dev/client3/rdock/2013.1/src/exe/rbdock.cxx#4 $)

>  <Rbt.Library>
libRbt.so (2013.1, Build901 2013/11/27)

>  <Rbt.Parameter_File>
/export/apps/rDock/src/rDock_2013.1_src/data/scripts/dock_solv.prm

>  <Rbt.Receptor>
prm/pocket_docking_6.prm

>  <SCORE>
-8.36648

>  <SCORE.INTER>
-7.44806

>  <SCORE.INTER.CONST>
1

>  <SCORE.INTER.POLAR>
0

>  <SCORE.INTER.ROT>
5

>  <SCORE.INTER.SOLV>
9.51033

>  <SCORE.INTER.VDW>
-15.0688

>  <SCORE.INTER.norm>
-0.338548

>  <SCORE.INTRA>
-0.91875

>  <SCORE.INTRA.DIHEDRAL>
-0.749396

>  <SCORE.INTRA.DIHEDRAL.0>
2.61549

>  <SCORE.INTRA.POLAR>
0

>  <SCORE.INTRA.POLAR.0>
0

>  <SCORE.INTRA.REPUL>
0

>  <SCORE.INTRA.REPUL.0>
0

>  <SCORE.INTRA.SOLV>
-0.0280117

>  <SCORE.INTRA.SOLV.lig_0>
-73.766

>  <SCORE.INTRA.VDW>
-0.530046

>  <SCORE.INTRA.VDW.0>
-1.95055

>  <SCORE.INTRA.norm>
-0.0417614

>  <SCORE.RESTR>
0.000333634

>  <SCORE.RESTR.CAVITY>
0.000333634

>  <SCORE.RESTR.norm>
1.51652e-05

>  <SCORE.SYSTEM>
0

>  <SCORE.SYSTEM.CONST>
0

>  <SCORE.SYSTEM.DIHEDRAL>
0

>  <SCORE.SYSTEM.SOLV>
0

>  <SCORE.SYSTEM.norm>
0

>  <SCORE.heavy>
22

>  <SCORE.norm>
-0.380295

>  <RMSD>
6.548

$$$$
ligand
 OpenBabel11021811513D
libRbt.so/2013.1/901 2013/11/27
 22 23  0  0  0  0  0  0  0  0999 V2000
   30.2753   -4.1412  108.0660 N   0  0  0  0  0  0  0  0  0  0  0  0
   30.9741   -0.8388  107.5043 C   0  0  1  0  0  0  0  0  0  0  0  0
   30.2965   -1.8135  108.3716 O   0  0  0  0  0  0  0  0  0  0  0  0
   27.9274    0.1927  105.4432 P   0  0  2  0  0  0  0  0  0  0  0  0
   31.0876   -3.0381  108.3488 C   0  0  2  0  0  0  0  0  0  0  0  0
   28.7067   -5.3934  107.1810 N   0  0  0  0  0  0  0  0  0  0  0  0
   33.3325   -3.5025  107.6693 O   0  0  0  0  0  0  0  0  0  0  0  0
   32.1032   -2.8649  107.2917 C   0  0  2  0  0  0  0  0  0  0  0  0
   28.6334   -7.9586  109.6222 N   0  0  0  0  0  0  0  0  0  0  0  0
   33.2702   -0.9761  108.1366 O   0  0  0  0  0  0  0  0  0  0  0  0
   32.2855   -1.4140  107.1745 C   0  0  2  0  0  0  0  0  0  0  0  0
   29.3923   -6.1533  108.0570 C   0  0  0  0  0  0  0  0  0  0  0  0
   31.3394   -5.7828  109.6020 N   0  0  0  0  0  0  0  0  0  0  0  0
   28.9083   -0.1919  106.5983 O   0  0  0  0  0  0  0  0  0  0  0  0
   30.1870   -0.6371  106.2632 C   0  0  0  0  0  0  0  0  0  0  0  0
   28.3229    1.6093  104.8475 O   0  0  0  0  0  0  0  0  0  0  0  0
   29.2626   -4.1586  107.1986 C   0  0  0  0  0  0  0  0  0  0  0  0
   29.3313   -8.4495  107.5103 O   0  0  0  0  0  0  0  0  0  0  0  0
   29.1189   -7.5924  108.3643 C   0  0  0  0  0  0  0  0  0  0  0  0
   30.3882   -5.3736  108.6270 C   0  0  0  0  0  0  0  0  0  0  0  0
   26.5213    0.1807  105.9057 O   0  5  0  0  0  0  0  0  0  0  0  0
   27.9099   -0.8471  104.3789 O   0  0  0  0  0  0  0  0  0  0  0  0
  1 17  1  0  0  0  0
  1 20  1  0  0  0  0
  2 15  1  6  0  0  0
  2  3  1  0  0  0  0
  2 11  1  0  0  0  0
  3  5  1  0  0  0  0
  4 16  1  6  0  0  0
  4 21  1  0  0  0  0
  4 22  2  0  0  0  0
  4 14  1  0  0  0  0
  5  1  1  6  0  0  0
  5  8  1  0  0  0  0
  6 17  2  0  0  0  0
  6 12  1  0  0  0  0
  8  7  1  1  0  0  0
  8 11  1  0  0  0  0
  9 19  1  0  0  0  0
 11 10  1  1  0  0  0
 12 20  2  0  0  0  0
 12 19  1  0  0  0  0
 13 20  1  0  0  0  0
 14 15  1  0  0  0  0
 18 19  2  0  0  0  0
M  CHG  1  21  -1
M  END
>  <CHROM.1>
38.56772222,58.50805595,-76.29874558,175.50816321,-112.10818371,29.85409499
-2.85164742,107.21869519,-1.37803632,-0.35984154,-0.31774604

>  <Name>
ligand

>  <RI>
0

>  <Rbt.Current_Directory>
/home/itssahil/PROJECTS/Mol_Feturizer/New_Systems/rnas/4XW7

>  <Rbt.Executable>
rbdock ($Id: //depot/dev/client3/rdock/2013.1/src/exe/rbdock.cxx#4 $)

>  <Rbt.Library>
libRbt.so (2013.1, Build901 2013/11/27)

>  <Rbt.Parameter_File>
/export/apps/rDock/src/rDock_2013.1_src/data/scripts/dock_solv.prm

>  <Rbt.Receptor>
prm/pocket_docking_7.prm

>  <SCORE>
-8.4724

>  <SCORE.INTER>
-7.66594

>  <SCORE.INTER.CONST>
1

>  <SCORE.INTER.POLAR>
0

>  <SCORE.INTER.ROT>
5

>  <SCORE.INTER.SOLV>
10.4134

>  <SCORE.INTER.VDW>
-15.5151

>  <SCORE.INTER.norm>
-0.348452

>  <SCORE.INTRA>
-0.806467

>  <SCORE.INTRA.DIHEDRAL>
-0.555458

>  <SCORE.INTRA.DIHEDRAL.0>
2.61549

>  <SCORE.INTRA.POLAR>
0

>  <SCORE.INTRA.POLAR.0>
0

>  <SCORE.INTRA.REPUL>
0

>  <SCORE.INTRA.REPUL.0>
0

>  <SCORE.INTRA.SOLV>
-0.0294553

>  <SCORE.INTRA.SOLV.lig_0>
-73.766

>  <SCORE.INTRA.VDW>
-0.51401

>  <SCORE.INTRA.VDW.0>
-1.95055

>  <SCORE.INTRA.norm>
-0.0366576

>  <SCORE.RESTR>
0

>  <SCORE.RESTR.CAVITY>
0

>  <SCORE.RESTR.norm>
0

>  <SCORE.SYSTEM>
0

>  <SCORE.SYSTEM.CONST>
0

>  <SCORE.SYSTEM.DIHEDRAL>
0

>  <SCORE.SYSTEM.SOLV>
0

>  <SCORE.SYSTEM.norm>
0

>  <SCORE.heavy>
22

>  <SCORE.norm>
-0.385109

>  <RMSD>
6.548

$$$$
ligand
 OpenBabel11021811513D
libRbt.so/2013.1/901 2013/11/27
 22 23  0  0  0  0  0  0  0  0999 V2000
   30.3473   -4.1915  108.1630 N   0  0  0  0  0  0  0  0  0  0  0  0
   30.9732   -0.8728  107.6113 C   0  0  1  0  0  0  0  0  0  0  0  0
   30.3131   -1.8645  108.4728 O   0  0  0  0  0  0  0  0  0  0  0  0
   27.9294    0.1273  105.5305 P   0  0  2  0  0  0  0  0  0  0  0  0
   31.1323   -3.0706  108.4526 C   0  0  2  0  0  0  0  0  0  0  0  0
   28.7942   -5.4702  107.2885 N   0  0  0  0  0  0  0  0  0  0  0  0
   33.3913   -3.4818  107.7857 O   0  0  0  0  0  0  0  0  0  0  0  0
   32.1499   -2.8720  107.4019 C   0  0  2  0  0  0  0  0  0  0  0  0
   28.2423   -8.3575  107.7989 N   0  0  0  0  0  0  0  0  0  0  0  0
   33.2680   -0.9585  108.2571 O   0  0  0  0  0  0  0  0  0  0  0  0
   32.2994   -1.4171  107.2883 C   0  0  2  0  0  0  0  0  0  0  0  0
   29.5279   -6.2301  108.1247 C   0  0  0  0  0  0  0  0  0  0  0  0
   31.5057   -5.8372  109.6246 N   0  0  0  0  0  0  0  0  0  0  0  0
   28.9080   -0.2421  106.6925 O   0  0  0  0  0  0  0  0  0  0  0  0
   30.1890   -0.6870  106.3659 C   0  0  0  0  0  0  0  0  0  0  0  0
   28.3403    1.5251  104.9018 O   0  0  0  0  0  0  0  0  0  0  0  0
   29.3113   -4.2191  107.3237 C   0  0  0  0  0  0  0  0  0  0  0  0
   30.0638   -8.2811  109.1645 O   0  0  0  0  0  0  0  0  0  0  0  0
   29.3087   -7.6847  108.4009 C   0  0  0  0  0  0  0  0  0  0  0  0
   30.5147   -5.4337  108.6876 C   0  0  0  0  0  0  0  0  0  0  0  0
   26.5242    0.1424  105.9956 O   0  5  0  0  0  0  0  0  0  0  0  0
   27.8976   -0.9363  104.4904 O   0  0  0  0  0  0  0  0  0  0  0  0
  1 17  1  0  0  0  0
  1 20  1  0  0  0  0
  2 15  1  6  0  0  0
  2  3  1  0  0  0  0
  2 11  1  0  0  0  0
  3  5  1  0  0  0  0
  4 16  1  6  0  0  0
  4 21  1  0  0  0  0
  4 22  2  0  0  0  0
  4 14  1  0  0  0  0
  5  1  1  6  0  0  0
  5  8  1  0  0  0  0
  6 17  2  0  0  0  0
  6 12  1  0  0  0  0
  8  7  1  1  0  0  0
  8 11  1  0  0  0  0
  9 19  1  0  0  0  0
 11 10  1  1  0  0  0
 12 20  2  0  0  0  0
 12 19  1  0  0  0  0
 13 20  1  0  0  0  0
 14 15  1  0  0  0  0
 18 19  2  0  0  0  0
M  CHG  1  21  -1
M  END
>  <CHROM.1>
36.11751055,59.87159809,-75.16150753,175.49276943,-2.04805497,29.91353085
-2.90339016,107.30499935,-1.34635582,-0.38067416,-0.29884764

>  <Name>
ligand

>  <RI>
0

>  <Rbt.Current_Directory>
/home/itssahil/PROJECTS/Mol_Feturizer/New_Systems/rnas/4XW7

>  <Rbt.Executable>
rbdock ($Id: //depot/dev/client3/rdock/2013.1/src/exe/rbdock.cxx#4 $)

>  <Rbt.Library>
libRbt.so (2013.1, Build901 2013/11/27)

>  <Rbt.Parameter_File>
/export/apps/rDock/src/rDock_2013.1_src/data/scripts/dock_solv.prm

>  <Rbt.Receptor>
prm/pocket_docking_5.prm

>  <SCORE>
-8.26163

>  <SCORE.INTER>
-7.57808

>  <SCORE.INTER.CONST>
1

>  <SCORE.INTER.POLAR>
0

>  <SCORE.INTER.ROT>
5

>  <SCORE.INTER.SOLV>
9.91816

>  <SCORE.INTER.VDW>
-15.2914

>  <SCORE.INTER.norm>
-0.344458

>  <SCORE.INTRA>
-0.683546

>  <SCORE.INTRA.DIHEDRAL>
-0.679688

>  <SCORE.INTRA.DIHEDRAL.0>
2.61549

>  <SCORE.INTRA.POLAR>
0

>  <SCORE.INTRA.POLAR.0>
0

>  <SCORE.INTRA.REPUL>
0

>  <SCORE.INTRA.REPUL.0>
0

>  <SCORE.INTRA.SOLV>
0.0830453

>  <SCORE.INTRA.SOLV.lig_0>
-73.766

>  <SCORE.INTRA.VDW>
-0.385225

>  <SCORE.INTRA.VDW.0>
-1.95055

>  <SCORE.INTRA.norm>
-0.0310703

>  <SCORE.RESTR>
0

>  <SCORE.RESTR.CAVITY>
0

>  <SCORE.RESTR.norm>
0

>  <SCORE.SYSTEM>
0

>  <SCORE.SYSTEM.CONST>
0

>  <SCORE.SYSTEM.DIHEDRAL>
0

>  <SCORE.SYSTEM.SOLV>
0

>  <SCORE.SYSTEM.norm>
0

>  <SCORE.heavy>
22

>  <SCORE.norm>
-0.375529

>  <RMSD>
6.549

$$$$
ligand
 OpenBabel11021811513D
libRbt.so/2013.1/901 2013/11/27
 22 23  0  0  0  0  0  0  0  0999 V2000
   28.3616   -3.3185  106.0989 N   0  0  0  0  0  0  0  0  0  0  0  0
   30.5725   -0.7080  106.1790 C   0  0  1  0  0  0  0  0  0  0  0  0
   30.1293   -1.9116  105.4604 O   0  0  0  0  0  0  0  0  0  0  0  0
   32.9748   -2.9155  108.1127 P   0  0  2  0  0  0  0  0  0  0  0  0
   28.6900   -2.0313  105.6611 C   0  0  2  0  0  0  0  0  0  0  0  0
   28.4655   -5.2513  107.1310 N   0  0  0  0  0  0  0  0  0  0  0  0
   27.0252   -0.4843  106.4042 O   0  0  0  0  0  0  0  0  0  0  0  0
   28.3219   -1.0325  106.6838 C   0  0  2  0  0  0  0  0  0  0  0  0
   26.0567   -6.9668  105.1286 N   0  0  0  0  0  0  0  0  0  0  0  0
   28.9807    0.9635  105.5769 O   0  0  0  0  0  0  0  0  0  0  0  0
   29.3552    0.0048  106.5906 C   0  0  2  0  0  0  0  0  0  0  0  0
   27.3232   -5.2288  106.4171 C   0  0  0  0  0  0  0  0  0  0  0  0
   26.2004   -3.5745  104.8945 N   0  0  0  0  0  0  0  0  0  0  0  0
   32.3377   -2.0160  107.0040 O   0  0  0  0  0  0  0  0  0  0  0  0
   31.3565   -1.0973  107.3767 C   0  0  0  0  0  0  0  0  0  0  0  0
   34.1794   -3.7506  107.5049 O   0  0  0  0  0  0  0  0  0  0  0  0
   29.0923   -4.0688  106.9244 C   0  0  0  0  0  0  0  0  0  0  0  0
   25.7137   -6.6754  107.3615 O   0  0  0  0  0  0  0  0  0  0  0  0
   26.3162   -6.3339  106.3469 C   0  0  0  0  0  0  0  0  0  0  0  0
   27.2441   -4.0114  105.7563 C   0  0  0  0  0  0  0  0  0  0  0  0
   31.9649   -3.8049  108.7294 O   0  5  0  0  0  0  0  0  0  0  0  0
   33.4224   -2.1045  109.2772 O   0  0  0  0  0  0  0  0  0  0  0  0
  1 17  1  0  0  0  0
  1 20  1  0  0  0  0
  2 15  1  1  0  0  0
  2  3  1  0  0  0  0
  2 11  1  0  0  0  0
  3  5  1  0  0  0  0
  4 16  1  6  0  0  0
  4 21  1  0  0  0  0
  4 22  2  0  0  0  0
  4 14  1  0  0  0  0
  5  1  1  1  0  0  0
  5  8  1  0  0  0  0
  6 17  2  0  0  0  0
  6 12  1  0  0  0  0
  8  7  1  6  0  0  0
  8 11  1  0  0  0  0
  9 19  1  0  0  0  0
 11 10  1  6  0  0  0
 12 20  2  0  0  0  0
 12 19  1  0  0  0  0
 13 20  1  0  0  0  0
 14 15  1  0  0  0  0
 18 19  2  0  0  0  0
M  CHG  1  21  -1
M  END
>  <CHROM.1>
36.25578572,50.15472298,-173.10552506,-160.39782021,-117.09065974,29.56883965
-2.96187455,106.77546515,2.76481974,0.36276243,2.93253918

>  <Name>
ligand

>  <RI>
0

>  <Rbt.Current_Directory>
/home/itssahil/PROJECTS/Mol_Feturizer/New_Systems/rnas/4XW7

>  <Rbt.Executable>
rbdock ($Id: //depot/dev/client3/rdock/2013.1/src/exe/rbdock.cxx#4 $)

>  <Rbt.Library>
libRbt.so (2013.1, Build901 2013/11/27)

>  <Rbt.Parameter_File>
/export/apps/rDock/src/rDock_2013.1_src/data/scripts/dock_solv.prm

>  <Rbt.Receptor>
prm/pocket_docking_3.prm

>  <SCORE>
-6.06171

>  <SCORE.INTER>
-6.35209

>  <SCORE.INTER.CONST>
1

>  <SCORE.INTER.POLAR>
0

>  <SCORE.INTER.ROT>
5

>  <SCORE.INTER.SOLV>
11.0206

>  <SCORE.INTER.VDW>
-14.8416

>  <SCORE.INTER.norm>
-0.288732

>  <SCORE.INTRA>
0.29038

>  <SCORE.INTRA.DIHEDRAL>
1.00914

>  <SCORE.INTRA.DIHEDRAL.0>
2.61549

>  <SCORE.INTRA.POLAR>
0

>  <SCORE.INTRA.POLAR.0>
0

>  <SCORE.INTRA.REPUL>
0

>  <SCORE.INTRA.REPUL.0>
0

>  <SCORE.INTRA.SOLV>
1.09303

>  <SCORE.INTRA.SOLV.lig_0>
-73.766

>  <SCORE.INTRA.VDW>
-0.760703

>  <SCORE.INTRA.VDW.0>
-1.95055

>  <SCORE.INTRA.norm>
0.0131991

>  <SCORE.RESTR>
0

>  <SCORE.RESTR.CAVITY>
0

>  <SCORE.RESTR.norm>
0

>  <SCORE.SYSTEM>
0

>  <SCORE.SYSTEM.CONST>
0

>  <SCORE.SYSTEM.DIHEDRAL>
0

>  <SCORE.SYSTEM.SOLV>
0

>  <SCORE.SYSTEM.norm>
0

>  <SCORE.heavy>
22

>  <SCORE.norm>
-0.275532

>  <RMSD>
6.552

$$$$
ligand
 OpenBabel11021811513D
libRbt.so/2013.1/901 2013/11/27
 22 23  0  0  0  0  0  0  0  0999 V2000
   28.8993   -4.0741  107.3334 N   0  0  0  0  0  0  0  0  0  0  0  0
   30.8408   -1.3482  106.6192 C   0  0  1  0  0  0  0  0  0  0  0  0
   30.0236   -2.4422  106.0745 O   0  0  0  0  0  0  0  0  0  0  0  0
   33.1872   -3.6471  108.5597 P   0  0  2  0  0  0  0  0  0  0  0  0
   28.9596   -2.7088  107.0351 C   0  0  2  0  0  0  0  0  0  0  0  0
   29.4838   -6.0867  107.9812 N   0  0  0  0  0  0  0  0  0  0  0  0
   28.0809   -1.4497  108.8681 O   0  0  0  0  0  0  0  0  0  0  0  0
   29.2823   -1.9326  108.2485 C   0  0  2  0  0  0  0  0  0  0  0  0
   26.7939   -7.8585  106.4363 N   0  0  0  0  0  0  0  0  0  0  0  0
   29.2512    0.2696  107.3583 O   0  0  0  0  0  0  0  0  0  0  0  0
   30.1081   -0.8158  107.7763 C   0  0  2  0  0  0  0  0  0  0  0  0
   28.1910   -6.1363  107.6055 C   0  0  0  0  0  0  0  0  0  0  0  0
   26.5246   -4.4795  106.7146 N   0  0  0  0  0  0  0  0  0  0  0  0
   31.9629   -3.0340  107.8050 O   0  0  0  0  0  0  0  0  0  0  0  0
   32.1576   -1.8734  107.0561 C   0  0  0  0  0  0  0  0  0  0  0  0
   34.3933   -3.8589  107.5506 O   0  0  0  0  0  0  0  0  0  0  0  0
   29.9043   -4.8111  107.8077 C   0  0  0  0  0  0  0  0  0  0  0  0
   27.0686   -7.9038  108.6970 O   0  0  0  0  0  0  0  0  0  0  0  0
   27.3221   -7.3548  107.6277 C   0  0  0  0  0  0  0  0  0  0  0  0
   27.8067   -4.8693  107.1910 C   0  0  0  0  0  0  0  0  0  0  0  0
   32.8240   -4.9145  109.2326 O   0  5  0  0  0  0  0  0  0  0  0  0
   33.5970   -2.7952  109.7089 O   0  0  0  0  0  0  0  0  0  0  0  0
  1 17  1  0  0  0  0
  1 20  1  0  0  0  0
  2 15  1  1  0  0  0
  2  3  1  0  0  0  0
  2 11  1  0  0  0  0
  3  5  1  0  0  0  0
  4 16  1  6  0  0  0
  4 21  1  0  0  0  0
  4 22  2  0  0  0  0
  4 14  1  0  0  0  0
  5  1  1  1  0  0  0
  5  8  1  0  0  0  0
  6 17  2  0  0  0  0
  6 12  1  0  0  0  0
  8  7  1  6  0  0  0
  8 11  1  0  0  0  0
  9 19  1  0  0  0  0
 11 10  1  6  0  0  0
 12 20  2  0  0  0  0
 12 19  1  0  0  0  0
 13 20  1  0  0  0  0
 14 15  1  0  0  0  0
 18 19  2  0  0  0  0
M  CHG  1  21  -1
M  END
>  <CHROM.1>
56.61171924,-46.70016079,-52.91485853,-170.69402848,-117.25492302,30.10953413
-3.76533490,107.76867332,2.50737627,0.21213822,3.02304823

>  <Name>
ligand

>  <RI>
0

>  <Rbt.Current_Directory>
/home/itssahil/PROJECTS/Mol_Feturizer/New_Systems/rnas/4XW7

>  <Rbt.Executable>
rbdock ($Id: //depot/dev/client3/rdock/2013.1/src/exe/rbdock.cxx#4 $)

>  <Rbt.Library>
libRbt.so (2013.1, Build901 2013/11/27)

>  <Rbt.Parameter_File>
/export/apps/rDock/src/rDock_2013.1_src/data/scripts/dock_solv.prm

>  <Rbt.Receptor>
prm/pocket_docking_3.prm

>  <SCORE>
-6.78577

>  <SCORE.INTER>
-6.30604

>  <SCORE.INTER.CONST>
1

>  <SCORE.INTER.POLAR>
0

>  <SCORE.INTER.ROT>
5

>  <SCORE.INTER.SOLV>
9.93894

>  <SCORE.INTER.VDW>
-14.4503

>  <SCORE.INTER.norm>
-0.286638

>  <SCORE.INTRA>
-0.479731

>  <SCORE.INTRA.DIHEDRAL>
-0.00895483

>  <SCORE.INTRA.DIHEDRAL.0>
2.61549

>  <SCORE.INTRA.POLAR>
0

>  <SCORE.INTRA.POLAR.0>
0

>  <SCORE.INTRA.REPUL>
0

>  <SCORE.INTRA.REPUL.0>
0

>  <SCORE.INTRA.SOLV>
0.68845

>  <SCORE.INTRA.SOLV.lig_0>
-73.766

>  <SCORE.INTRA.VDW>
-0.819478

>  <SCORE.INTRA.VDW.0>
-1.95055

>  <SCORE.INTRA.norm>
-0.0218059

>  <SCORE.RESTR>
0

>  <SCORE.RESTR.CAVITY>
0

>  <SCORE.RESTR.norm>
0

>  <SCORE.SYSTEM>
0

>  <SCORE.SYSTEM.CONST>
0

>  <SCORE.SYSTEM.DIHEDRAL>
0

>  <SCORE.SYSTEM.SOLV>
0

>  <SCORE.SYSTEM.norm>
0

>  <SCORE.heavy>
22

>  <SCORE.norm>
-0.308444

>  <RMSD>
6.554

$$$$
ligand
 OpenBabel11021811513D
libRbt.so/2013.1/901 2013/11/27
 22 23  0  0  0  0  0  0  0  0999 V2000
   28.2316   -3.3643  106.1354 N   0  0  0  0  0  0  0  0  0  0  0  0
   30.4857   -0.7898  106.1632 C   0  0  1  0  0  0  0  0  0  0  0  0
   30.0182   -1.9964  105.4654 O   0  0  0  0  0  0  0  0  0  0  0  0
   32.9430   -2.9282  108.1320 P   0  0  2  0  0  0  0  0  0  0  0  0
   28.5784   -2.0893  105.6765 C   0  0  2  0  0  0  0  0  0  0  0  0
   28.2790   -5.2581  107.2413 N   0  0  0  0  0  0  0  0  0  0  0  0
   26.9440   -0.5041  106.4064 O   0  0  0  0  0  0  0  0  0  0  0  0
   28.2333   -1.0694  106.6863 C   0  0  2  0  0  0  0  0  0  0  0  0
   26.0785   -7.1089  105.1494 N   0  0  0  0  0  0  0  0  0  0  0  0
   28.9179    0.8987  105.5457 O   0  0  0  0  0  0  0  0  0  0  0  0
   29.2829   -0.0509  106.5714 C   0  0  2  0  0  0  0  0  0  0  0  0
   27.1915   -5.2748  106.4463 C   0  0  0  0  0  0  0  0  0  0  0  0
   26.1663   -3.6890  104.7880 N   0  0  0  0  0  0  0  0  0  0  0  0
   32.2261   -2.1236  106.9994 O   0  0  0  0  0  0  0  0  0  0  0  0
   31.2706   -1.1742  107.3619 C   0  0  0  0  0  0  0  0  0  0  0  0
   34.1725   -3.7305  107.5298 O   0  0  0  0  0  0  0  0  0  0  0  0
   28.9076   -4.0760  107.0381 C   0  0  0  0  0  0  0  0  0  0  0  0
   25.4970   -6.6749  107.3085 O   0  0  0  0  0  0  0  0  0  0  0  0
   26.2031   -6.3940  106.3434 C   0  0  0  0  0  0  0  0  0  0  0  0
   27.1487   -4.0825  105.7382 C   0  0  0  0  0  0  0  0  0  0  0  0
   32.0010   -3.8350  108.8259 O   0  5  0  0  0  0  0  0  0  0  0  0
   33.3802   -2.0340  109.2381 O   0  0  0  0  0  0  0  0  0  0  0  0
  1 17  1  0  0  0  0
  1 20  1  0  0  0  0
  2 15  1  1  0  0  0
  2  3  1  0  0  0  0
  2 11  1  0  0  0  0
  3  5  1  0  0  0  0
  4 16  1  6  0  0  0
  4 21  1  0  0  0  0
  4 22  2  0  0  0  0
  4 14  1  0  0  0  0
  5  1  1  1  0  0  0
  5  8  1  0  0  0  0
  6 17  2  0  0  0  0
  6 12  1  0  0  0  0
  8  7  1  6  0  0  0
  8 11  1  0  0  0  0
  9 19  1  0  0  0  0
 11 10  1  6  0  0  0
 12 20  2  0  0  0  0
 12 19  1  0  0  0  0
 13 20  1  0  0  0  0
 14 15  1  0  0  0  0
 18 19  2  0  0  0  0
M  CHG  1  21  -1
M  END
>  <CHROM.1>
41.17988060,49.61736130,-168.90210370,-165.71707476,-114.42847151,29.48581840
-3.00592864,106.78305462,2.76974269,0.36440865,2.92751458

>  <Name>
ligand

>  <RI>
0

>  <Rbt.Current_Directory>
/home/itssahil/PROJECTS/Mol_Feturizer/New_Systems/rnas/4XW7

>  <Rbt.Executable>
rbdock ($Id: //depot/dev/client3/rdock/2013.1/src/exe/rbdock.cxx#4 $)

>  <Rbt.Library>
libRbt.so (2013.1, Build901 2013/11/27)

>  <Rbt.Parameter_File>
/export/apps/rDock/src/rDock_2013.1_src/data/scripts/dock_solv.prm

>  <Rbt.Receptor>
prm/pocket_docking_3.prm

>  <SCORE>
-6.03511

>  <SCORE.INTER>
-5.9725

>  <SCORE.INTER.CONST>
1

>  <SCORE.INTER.POLAR>
0

>  <SCORE.INTER.ROT>
5

>  <SCORE.INTER.SOLV>
10.3451

>  <SCORE.INTER.VDW>
-14.3634

>  <SCORE.INTER.norm>
-0.271477

>  <SCORE.INTRA>
-0.0626161

>  <SCORE.INTRA.DIHEDRAL>
0.414746

>  <SCORE.INTRA.DIHEDRAL.0>
2.61549

>  <SCORE.INTRA.POLAR>
0

>  <SCORE.INTRA.POLAR.0>
0

>  <SCORE.INTRA.REPUL>
0

>  <SCORE.INTRA.REPUL.0>
0

>  <SCORE.INTRA.SOLV>
0.76339

>  <SCORE.INTRA.SOLV.lig_0>
-73.766

>  <SCORE.INTRA.VDW>
-0.651684

>  <SCORE.INTRA.VDW.0>
-1.95055

>  <SCORE.INTRA.norm>
-0.00284619

>  <SCORE.RESTR>
0

>  <SCORE.RESTR.CAVITY>
0

>  <SCORE.RESTR.norm>
0

>  <SCORE.SYSTEM>
0

>  <SCORE.SYSTEM.CONST>
0

>  <SCORE.SYSTEM.DIHEDRAL>
0

>  <SCORE.SYSTEM.SOLV>
0

>  <SCORE.SYSTEM.norm>
0

>  <SCORE.heavy>
22

>  <SCORE.norm>
-0.274323

>  <RMSD>
6.555

$$$$
ligand
 OpenBabel11021811513D
libRbt.so/2013.1/901 2013/11/27
 22 23  0  0  0  0  0  0  0  0999 V2000
   28.3150   -2.8750  103.9471 N   0  0  0  0  0  0  0  0  0  0  0  0
   30.0811   -0.6483  105.8531 C   0  0  1  0  0  0  0  0  0  0  0  0
   30.0360   -1.4183  104.6015 O   0  0  0  0  0  0  0  0  0  0  0  0
   32.3072   -3.0813  107.7826 P   0  0  2  0  0  0  0  0  0  0  0  0
   28.6347   -1.5404  104.2175 C   0  0  2  0  0  0  0  0  0  0  0  0
   27.8424   -4.9975  104.2362 N   0  0  0  0  0  0  0  0  0  0  0  0
   26.6637   -0.3661  104.8907 O   0  0  0  0  0  0  0  0  0  0  0  0
   27.8397   -1.0436  105.3578 C   0  0  2  0  0  0  0  0  0  0  0  0
   28.5178   -6.0886  100.9102 N   0  0  0  0  0  0  0  0  0  0  0  0
   28.6199    1.1975  105.4682 O   0  0  0  0  0  0  0  0  0  0  0  0
   28.7285   -0.1142  106.0638 C   0  0  2  0  0  0  0  0  0  0  0  0
   27.8219   -4.7496  102.9122 C   0  0  0  0  0  0  0  0  0  0  0  0
   28.2055   -2.7300  101.4665 N   0  0  0  0  0  0  0  0  0  0  0  0
   31.7360   -2.0385  106.7673 O   0  0  0  0  0  0  0  0  0  0  0  0
   30.4505   -1.5403  106.9794 C   0  0  0  0  0  0  0  0  0  0  0  0
   31.4731   -4.4287  107.7000 O   0  0  0  0  0  0  0  0  0  0  0  0
   28.1472   -3.8340  104.8585 C   0  0  0  0  0  0  0  0  0  0  0  0
   26.4201   -6.2743  101.7784 O   0  0  0  0  0  0  0  0  0  0  0  0
   27.5310   -5.7536  101.8409 C   0  0  0  0  0  0  0  0  0  0  0  0
   28.1211   -3.4096  102.7131 C   0  0  0  0  0  0  0  0  0  0  0  0
   32.3152   -2.5409  109.1607 O   0  5  0  0  0  0  0  0  0  0  0  0
   33.7538   -3.3342  107.5430 O   0  0  0  0  0  0  0  0  0  0  0  0
  1 17  1  0  0  0  0
  1 20  1  0  0  0  0
  2 15  1  1  0  0  0
  2  3  1  0  0  0  0
  2 11  1  0  0  0  0
  3  5  1  0  0  0  0
  4 16  1  6  0  0  0
  4 21  1  0  0  0  0
  4 22  2  0  0  0  0
  4 14  1  0  0  0  0
  5  1  1  1  0  0  0
  5  8  1  0  0  0  0
  6 17  2  0  0  0  0
  6 12  1  0  0  0  0
  8  7  1  6  0  0  0
  8 11  1  0  0  0  0
  9 19  1  0  0  0  0
 11 10  1  6  0  0  0
 12 20  2  0  0  0  0
 12 19  1  0  0  0  0
 13 20  1  0  0  0  0
 14 15  1  0  0  0  0
 18 19  2  0  0  0  0
M  CHG  1  21  -1
M  END
>  <CHROM.1>
74.52729894,63.26024763,66.07248350,-176.03828452,-115.98290333,29.49053197
-2.77934164,105.10793290,2.52651186,0.73949982,-2.72212154

>  <Name>
ligand

>  <RI>
0

>  <Rbt.Current_Directory>
/home/itssahil/PROJECTS/Mol_Feturizer/New_Systems/rnas/4XW7

>  <Rbt.Executable>
rbdock ($Id: //depot/dev/client3/rdock/2013.1/src/exe/rbdock.cxx#4 $)

>  <Rbt.Library>
libRbt.so (2013.1, Build901 2013/11/27)

>  <Rbt.Parameter_File>
/export/apps/rDock/src/rDock_2013.1_src/data/scripts/dock_solv.prm

>  <Rbt.Receptor>
prm/pocket_docking_5.prm

>  <SCORE>
-7.06073

>  <SCORE.INTER>
-6.01413

>  <SCORE.INTER.CONST>
1

>  <SCORE.INTER.POLAR>
0

>  <SCORE.INTER.ROT>
5

>  <SCORE.INTER.SOLV>
15.1052

>  <SCORE.INTER.VDW>
-15.9778

>  <SCORE.INTER.norm>
-0.27337

>  <SCORE.INTRA>
-1.04991

>  <SCORE.INTRA.DIHEDRAL>
-0.938094

>  <SCORE.INTRA.DIHEDRAL.0>
2.61549

>  <SCORE.INTRA.POLAR>
0

>  <SCORE.INTRA.POLAR.0>
0

>  <SCORE.INTRA.REPUL>
0

>  <SCORE.INTRA.REPUL.0>
0

>  <SCORE.INTRA.SOLV>
-0.846246

>  <SCORE.INTRA.SOLV.lig_0>
-73.766

>  <SCORE.INTRA.VDW>
-0.157744

>  <SCORE.INTRA.VDW.0>
-1.95055

>  <SCORE.INTRA.norm>
-0.0477234

>  <SCORE.RESTR>
0.00331885

>  <SCORE.RESTR.CAVITY>
0.00331885

>  <SCORE.RESTR.norm>
0.000150857

>  <SCORE.SYSTEM>
0

>  <SCORE.SYSTEM.CONST>
0

>  <SCORE.SYSTEM.DIHEDRAL>
0

>  <SCORE.SYSTEM.SOLV>
0

>  <SCORE.SYSTEM.norm>
0

>  <SCORE.heavy>
22

>  <SCORE.norm>
-0.320942

>  <RMSD>
6.555

$$$$
ligand
 OpenBabel11021811513D
libRbt.so/2013.1/901 2013/11/27
 22 23  0  0  0  0  0  0  0  0999 V2000
   30.2177   -4.1563  108.1014 N   0  0  0  0  0  0  0  0  0  0  0  0
   30.9535   -0.8570  107.5698 C   0  0  1  0  0  0  0  0  0  0  0  0
   30.2691   -1.8324  108.4309 O   0  0  0  0  0  0  0  0  0  0  0  0
   27.8943    0.1950  105.5357 P   0  0  2  0  0  0  0  0  0  0  0  0
   31.0450   -3.0662  108.3908 C   0  0  2  0  0  0  0  0  0  0  0  0
   28.6710   -5.4000  107.1671 N   0  0  0  0  0  0  0  0  0  0  0  0
   33.2801   -3.5507  107.6933 O   0  0  0  0  0  0  0  0  0  0  0  0
   32.0566   -2.8944  107.3296 C   0  0  2  0  0  0  0  0  0  0  0  0
   27.9251   -8.2250  107.7696 N   0  0  0  0  0  0  0  0  0  0  0  0
   33.2513   -1.0288  108.1872 O   0  0  0  0  0  0  0  0  0  0  0  0
   32.2558   -1.4446  107.2263 C   0  0  2  0  0  0  0  0  0  0  0  0
   29.2722   -6.1398  108.1190 C   0  0  0  0  0  0  0  0  0  0  0  0
   31.1242   -5.7582  109.7744 N   0  0  0  0  0  0  0  0  0  0  0  0
   28.8939   -0.1659  106.6823 O   0  0  0  0  0  0  0  0  0  0  0  0
   30.1618   -0.6329  106.3355 C   0  0  0  0  0  0  0  0  0  0  0  0
   28.3060    1.5779  104.8752 O   0  0  0  0  0  0  0  0  0  0  0  0
   29.2644   -4.1827  107.1692 C   0  0  0  0  0  0  0  0  0  0  0  0
   29.5361   -8.1208  109.3765 O   0  0  0  0  0  0  0  0  0  0  0  0
   28.9325   -7.5550  108.4685 C   0  0  0  0  0  0  0  0  0  0  0  0
   30.2532   -5.3651  108.7209 C   0  0  0  0  0  0  0  0  0  0  0  0
   26.4997    0.2330  106.0307 O   0  5  0  0  0  0  0  0  0  0  0  0
   27.8287   -0.8850  104.5143 O   0  0  0  0  0  0  0  0  0  0  0  0
  1 17  1  0  0  0  0
  1 20  1  0  0  0  0
  2 15  1  6  0  0  0
  2  3  1  0  0  0  0
  2 11  1  0  0  0  0
  3  5  1  0  0  0  0
  4 16  1  6  0  0  0
  4 21  1  0  0  0  0
  4 22  2  0  0  0  0
  4 14  1  0  0  0  0
  5  1  1  6  0  0  0
  5  8  1  0  0  0  0
  6 17  2  0  0  0  0
  6 12  1  0  0  0  0
  8  7  1  1  0  0  0
  8 11  1  0  0  0  0
  9 19  1  0  0  0  0
 11 10  1  1  0  0  0
 12 20  2  0  0  0  0
 12 19  1  0  0  0  0
 13 20  1  0  0  0  0
 14 15  1  0  0  0  0
 18 19  2  0  0  0  0
M  CHG  1  21  -1
M  END
>  <CHROM.1>
43.87102542,58.95593287,-75.30681906,177.69134866,0.89646598,29.78370500
-2.85478335,107.29143891,-1.39445232,-0.35738945,-0.32819786

>  <Name>
ligand

>  <RI>
0

>  <Rbt.Current_Directory>
/home/itssahil/PROJECTS/Mol_Feturizer/New_Systems/rnas/4XW7

>  <Rbt.Executable>
rbdock ($Id: //depot/dev/client3/rdock/2013.1/src/exe/rbdock.cxx#4 $)

>  <Rbt.Library>
libRbt.so (2013.1, Build901 2013/11/27)

>  <Rbt.Parameter_File>
/export/apps/rDock/src/rDock_2013.1_src/data/scripts/dock_solv.prm

>  <Rbt.Receptor>
prm/pocket_docking_5.prm

>  <SCORE>
-8.32807

>  <SCORE.INTER>
-7.50892

>  <SCORE.INTER.CONST>
1

>  <SCORE.INTER.POLAR>
0

>  <SCORE.INTER.ROT>
5

>  <SCORE.INTER.SOLV>
9.00173

>  <SCORE.INTER.VDW>
-14.9399

>  <SCORE.INTER.norm>
-0.341315

>  <SCORE.INTRA>
-0.819148

>  <SCORE.INTRA.DIHEDRAL>
-0.746295

>  <SCORE.INTRA.DIHEDRAL.0>
2.61549

>  <SCORE.INTRA.POLAR>
0

>  <SCORE.INTRA.POLAR.0>
0

>  <SCORE.INTRA.REPUL>
0

>  <SCORE.INTRA.REPUL.0>
0

>  <SCORE.INTRA.SOLV>
-0.139175

>  <SCORE.INTRA.SOLV.lig_0>
-73.766

>  <SCORE.INTRA.VDW>
-0.376413

>  <SCORE.INTRA.VDW.0>
-1.95055

>  <SCORE.INTRA.norm>
-0.037234

>  <SCORE.RESTR>
0

>  <SCORE.RESTR.CAVITY>
0

>  <SCORE.RESTR.norm>
0

>  <SCORE.SYSTEM>
0

>  <SCORE.SYSTEM.CONST>
0

>  <SCORE.SYSTEM.DIHEDRAL>
0

>  <SCORE.SYSTEM.SOLV>
0

>  <SCORE.SYSTEM.norm>
0

>  <SCORE.heavy>
22

>  <SCORE.norm>
-0.378549

>  <RMSD>
6.558

$$$$
ligand
 OpenBabel11021811513D
libRbt.so/2013.1/901 2013/11/27
 22 23  0  0  0  0  0  0  0  0999 V2000
   30.1235   -4.1578  108.0515 N   0  0  0  0  0  0  0  0  0  0  0  0
   30.9455   -0.8690  107.5847 C   0  0  1  0  0  0  0  0  0  0  0  0
   30.2227   -1.8409  108.4180 O   0  0  0  0  0  0  0  0  0  0  0  0
   27.9070    0.1707  105.5128 P   0  0  2  0  0  0  0  0  0  0  0  0
   30.9704   -3.0919  108.3728 C   0  0  2  0  0  0  0  0  0  0  0  0
   28.5765   -5.3558  107.0598 N   0  0  0  0  0  0  0  0  0  0  0  0
   33.2063   -3.6182  107.7087 O   0  0  0  0  0  0  0  0  0  0  0  0
   32.0052   -2.9278  107.3330 C   0  0  2  0  0  0  0  0  0  0  0  0
   27.7303   -8.1595  107.6284 N   0  0  0  0  0  0  0  0  0  0  0  0
   33.2268   -1.1040  108.2410 O   0  0  0  0  0  0  0  0  0  0  0  0
   32.2400   -1.4817  107.2559 C   0  0  2  0  0  0  0  0  0  0  0  0
   29.1225   -6.1137  108.0306 C   0  0  0  0  0  0  0  0  0  0  0  0
   30.9246   -5.7871  109.7515 N   0  0  0  0  0  0  0  0  0  0  0  0
   28.9022   -0.1635  106.6713 O   0  0  0  0  0  0  0  0  0  0  0  0
   30.1822   -0.6077  106.3398 C   0  0  0  0  0  0  0  0  0  0  0  0
   28.3002    1.5555  104.8452 O   0  0  0  0  0  0  0  0  0  0  0  0
   29.2035   -4.1557  107.0861 C   0  0  0  0  0  0  0  0  0  0  0  0
   29.2858   -8.1033  109.2915 O   0  0  0  0  0  0  0  0  0  0  0  0
   28.7309   -7.5193  108.3642 C   0  0  0  0  0  0  0  0  0  0  0  0
   30.1029   -5.3680  108.6688 C   0  0  0  0  0  0  0  0  0  0  0  0
   26.5075    0.1877  105.9947 O   0  5  0  0  0  0  0  0  0  0  0  0
   27.8701   -0.9182  104.4994 O   0  0  0  0  0  0  0  0  0  0  0  0
  1 17  1  0  0  0  0
  1 20  1  0  0  0  0
  2 15  1  6  0  0  0
  2  3  1  0  0  0  0
  2 11  1  0  0  0  0
  3  5  1  0  0  0  0
  4 16  1  6  0  0  0
  4 21  1  0  0  0  0
  4 22  2  0  0  0  0
  4 14  1  0  0  0  0
  5  1  1  6  0  0  0
  5  8  1  0  0  0  0
  6 17  2  0  0  0  0
  6 12  1  0  0  0  0
  8  7  1  1  0  0  0
  8 11  1  0  0  0  0
  9 19  1  0  0  0  0
 11 10  1  1  0  0  0
 12 20  2  0  0  0  0
 12 19  1  0  0  0  0
 13 20  1  0  0  0  0
 14 15  1  0  0  0  0
 18 19  2  0  0  0  0
M  CHG  1  21  -1
M  END
>  <CHROM.1>
45.14191632,56.77127101,-75.16764749,-179.70152265,0.88966552,29.71781764
-2.86505937,107.25913730,-1.42315421,-0.36890261,-0.32956035

>  <Name>
ligand

>  <RI>
0

>  <Rbt.Current_Directory>
/home/itssahil/PROJECTS/Mol_Feturizer/New_Systems/rnas/4XW7

>  <Rbt.Executable>
rbdock ($Id: //depot/dev/client3/rdock/2013.1/src/exe/rbdock.cxx#4 $)

>  <Rbt.Library>
libRbt.so (2013.1, Build901 2013/11/27)

>  <Rbt.Parameter_File>
/export/apps/rDock/src/rDock_2013.1_src/data/scripts/dock_solv.prm

>  <Rbt.Receptor>
prm/pocket_docking_6.prm

>  <SCORE>
-8.14537

>  <SCORE.INTER>
-7.3153

>  <SCORE.INTER.CONST>
1

>  <SCORE.INTER.POLAR>
0

>  <SCORE.INTER.ROT>
5

>  <SCORE.INTER.SOLV>
8.7438

>  <SCORE.INTER.VDW>
-14.7248

>  <SCORE.INTER.norm>
-0.332514

>  <SCORE.INTRA>
-0.830071

>  <SCORE.INTRA.DIHEDRAL>
-0.747032

>  <SCORE.INTRA.DIHEDRAL.0>
2.61549

>  <SCORE.INTRA.POLAR>
0

>  <SCORE.INTRA.POLAR.0>
0

>  <SCORE.INTRA.REPUL>
0

>  <SCORE.INTRA.REPUL.0>
0

>  <SCORE.INTRA.SOLV>
-0.1534

>  <SCORE.INTRA.SOLV.lig_0>
-73.766

>  <SCORE.INTRA.VDW>
-0.379855

>  <SCORE.INTRA.VDW.0>
-1.95055

>  <SCORE.INTRA.norm>
-0.0377305

>  <SCORE.RESTR>
0

>  <SCORE.RESTR.CAVITY>
0

>  <SCORE.RESTR.norm>
0

>  <SCORE.SYSTEM>
0

>  <SCORE.SYSTEM.CONST>
0

>  <SCORE.SYSTEM.DIHEDRAL>
0

>  <SCORE.SYSTEM.SOLV>
0

>  <SCORE.SYSTEM.norm>
0

>  <SCORE.heavy>
22

>  <SCORE.norm>
-0.370244

>  <RMSD>
6.559

$$$$
ligand
 OpenBabel11021811513D
libRbt.so/2013.1/901 2013/11/27
 22 23  0  0  0  0  0  0  0  0999 V2000
   28.1821   -3.2918  105.8065 N   0  0  0  0  0  0  0  0  0  0  0  0
   30.4475   -0.7489  106.1403 C   0  0  1  0  0  0  0  0  0  0  0  0
   30.0183   -1.9052  105.3401 O   0  0  0  0  0  0  0  0  0  0  0  0
   32.9118   -2.8851  108.1169 P   0  0  2  0  0  0  0  0  0  0  0  0
   28.5672   -1.9949  105.4510 C   0  0  2  0  0  0  0  0  0  0  0  0
   28.0494   -5.1974  106.8849 N   0  0  0  0  0  0  0  0  0  0  0  0
   26.8996   -0.4396  106.1699 O   0  0  0  0  0  0  0  0  0  0  0  0
   28.1637   -1.0353  106.4975 C   0  0  2  0  0  0  0  0  0  0  0  0
   26.3360   -7.5668  106.2932 N   0  0  0  0  0  0  0  0  0  0  0  0
   28.9354    0.9915  105.5281 O   0  0  0  0  0  0  0  0  0  0  0  0
   29.2257   -0.0233  106.5144 C   0  0  2  0  0  0  0  0  0  0  0  0
   27.1947   -5.2545  105.8451 C   0  0  0  0  0  0  0  0  0  0  0  0
   26.5334   -3.6954  103.9884 N   0  0  0  0  0  0  0  0  0  0  0  0
   32.1862   -2.0731  106.9951 O   0  0  0  0  0  0  0  0  0  0  0  0
   31.1494   -1.2148  107.3613 C   0  0  0  0  0  0  0  0  0  0  0  0
   34.1409   -3.6777  107.5014 O   0  0  0  0  0  0  0  0  0  0  0  0
   28.6487   -3.9835  106.8468 C   0  0  0  0  0  0  0  0  0  0  0  0
   25.5959   -6.3626  104.5069 O   0  0  0  0  0  0  0  0  0  0  0  0
   26.3200   -6.4182  105.4977 C   0  0  0  0  0  0  0  0  0  0  0  0
   27.2686   -4.0553  105.1515 C   0  0  0  0  0  0  0  0  0  0  0  0
   31.9765   -3.8013  108.8076 O   0  5  0  0  0  0  0  0  0  0  0  0
   33.3516   -1.9992  109.2286 O   0  0  0  0  0  0  0  0  0  0  0  0
  1 17  1  0  0  0  0
  1 20  1  0  0  0  0
  2 15  1  1  0  0  0
  2  3  1  0  0  0  0
  2 11  1  0  0  0  0
  3  5  1  0  0  0  0
  4 16  1  6  0  0  0
  4 21  1  0  0  0  0
  4 22  2  0  0  0  0
  4 14  1  0  0  0  0
  5  1  1  1  0  0  0
  5  8  1  0  0  0  0
  6 17  2  0  0  0  0
  6 12  1  0  0  0  0
  8  7  1  6  0  0  0
  8 11  1  0  0  0  0
  9 19  1  0  0  0  0
 11 10  1  6  0  0  0
 12 20  2  0  0  0  0
 12 19  1  0  0  0  0
 13 20  1  0  0  0  0
 14 15  1  0  0  0  0
 18 19  2  0  0  0  0
M  CHG  1  21  -1
M  END
>  <CHROM.1>
52.70221788,54.07283530,-174.35608249,-169.56577465,0.83742079,29.48221077
-2.97005949,106.50877359,2.76631669,0.44969295,3.00629855

>  <Name>
ligand

>  <RI>
0

>  <Rbt.Current_Directory>
/home/itssahil/PROJECTS/Mol_Feturizer/New_Systems/rnas/4XW7

>  <Rbt.Executable>
rbdock ($Id: //depot/dev/client3/rdock/2013.1/src/exe/rbdock.cxx#4 $)

>  <Rbt.Library>
libRbt.so (2013.1, Build901 2013/11/27)

>  <Rbt.Parameter_File>
/export/apps/rDock/src/rDock_2013.1_src/data/scripts/dock_solv.prm

>  <Rbt.Receptor>
prm/pocket_docking_3.prm

>  <SCORE>
-6.34754

>  <SCORE.INTER>
-5.88504

>  <SCORE.INTER.CONST>
1

>  <SCORE.INTER.POLAR>
0

>  <SCORE.INTER.ROT>
5

>  <SCORE.INTER.SOLV>
10.4641

>  <SCORE.INTER.VDW>
-14.3447

>  <SCORE.INTER.norm>
-0.267502

>  <SCORE.INTRA>
-0.4625

>  <SCORE.INTRA.DIHEDRAL>
-0.444621

>  <SCORE.INTRA.DIHEDRAL.0>
2.61549

>  <SCORE.INTRA.POLAR>
0

>  <SCORE.INTRA.POLAR.0>
0

>  <SCORE.INTRA.REPUL>
0

>  <SCORE.INTRA.REPUL.0>
0

>  <SCORE.INTRA.SOLV>
0.287432

>  <SCORE.INTRA.SOLV.lig_0>
-73.766

>  <SCORE.INTRA.VDW>
-0.383906

>  <SCORE.INTRA.VDW.0>
-1.95055

>  <SCORE.INTRA.norm>
-0.0210227

>  <SCORE.RESTR>
0

>  <SCORE.RESTR.CAVITY>
0

>  <SCORE.RESTR.norm>
0

>  <SCORE.SYSTEM>
0

>  <SCORE.SYSTEM.CONST>
0

>  <SCORE.SYSTEM.DIHEDRAL>
0

>  <SCORE.SYSTEM.SOLV>
0

>  <SCORE.SYSTEM.norm>
0

>  <SCORE.heavy>
22

>  <SCORE.norm>
-0.288524

>  <RMSD>
6.568

$$$$
ligand
 OpenBabel11021811513D
libRbt.so/2013.1/901 2013/11/27
 22 23  0  0  0  0  0  0  0  0999 V2000
   28.2350   -3.2745  105.7819 N   0  0  0  0  0  0  0  0  0  0  0  0
   30.4827   -0.7197  106.1432 C   0  0  1  0  0  0  0  0  0  0  0  0
   30.0620   -1.8707  105.3310 O   0  0  0  0  0  0  0  0  0  0  0  0
   32.9223   -2.8931  108.1121 P   0  0  2  0  0  0  0  0  0  0  0  0
   28.6114   -1.9715  105.4399 C   0  0  2  0  0  0  0  0  0  0  0  0
   28.1613   -5.2158  106.8006 N   0  0  0  0  0  0  0  0  0  0  0  0
   26.9327   -0.4350  106.1734 O   0  0  0  0  0  0  0  0  0  0  0  0
   28.2007   -1.0253  106.4959 C   0  0  2  0  0  0  0  0  0  0  0  0
   26.2658   -7.4815  106.3585 N   0  0  0  0  0  0  0  0  0  0  0  0
   28.9591    1.0165  105.5476 O   0  0  0  0  0  0  0  0  0  0  0  0
   29.2557   -0.0063  106.5238 C   0  0  2  0  0  0  0  0  0  0  0  0
   27.2195   -5.2224  105.8373 C   0  0  0  0  0  0  0  0  0  0  0  0
   26.4291   -3.5871  104.1003 N   0  0  0  0  0  0  0  0  0  0  0  0
   32.1935   -2.0850  106.9895 O   0  0  0  0  0  0  0  0  0  0  0  0
   31.1869   -1.1932  107.3600 C   0  0  0  0  0  0  0  0  0  0  0  0
   34.1519   -3.6848  107.4965 O   0  0  0  0  0  0  0  0  0  0  0  0
   28.7767   -4.0105  106.7531 C   0  0  0  0  0  0  0  0  0  0  0  0
   25.5760   -6.3060  104.5335 O   0  0  0  0  0  0  0  0  0  0  0  0
   26.2973   -6.3595  105.5264 C   0  0  0  0  0  0  0  0  0  0  0  0
   27.2550   -4.0000  105.1821 C   0  0  0  0  0  0  0  0  0  0  0  0
   31.9898   -3.8094  108.8064 O   0  5  0  0  0  0  0  0  0  0  0  0
   33.3621   -2.0037  109.2210 O   0  0  0  0  0  0  0  0  0  0  0  0
  1 17  1  0  0  0  0
  1 20  1  0  0  0  0
  2 15  1  1  0  0  0
  2  3  1  0  0  0  0
  2 11  1  0  0  0  0
  3  5  1  0  0  0  0
  4 16  1  6  0  0  0
  4 21  1  0  0  0  0
  4 22  2  0  0  0  0
  4 14  1  0  0  0  0
  5  1  1  1  0  0  0
  5  8  1  0  0  0  0
  6 17  2  0  0  0  0
  6 12  1  0  0  0  0
  8  7  1  6  0  0  0
  8 11  1  0  0  0  0
  9 19  1  0  0  0  0
 11 10  1  6  0  0  0
 12 20  2  0  0  0  0
 12 19  1  0  0  0  0
 13 20  1  0  0  0  0
 14 15  1  0  0  0  0
 18 19  2  0  0  0  0
M  CHG  1  21  -1
M  END
>  <CHROM.1>
47.33476061,51.56372636,-172.15951072,-170.31909301,7.31744158,29.50039034
-2.94987859,106.51065682,2.77722556,0.44408988,3.00190316

>  <Name>
ligand

>  <RI>
0

>  <Rbt.Current_Directory>
/home/itssahil/PROJECTS/Mol_Feturizer/New_Systems/rnas/4XW7

>  <Rbt.Executable>
rbdock ($Id: //depot/dev/client3/rdock/2013.1/src/exe/rbdock.cxx#4 $)

>  <Rbt.Library>
libRbt.so (2013.1, Build901 2013/11/27)

>  <Rbt.Parameter_File>
/export/apps/rDock/src/rDock_2013.1_src/data/scripts/dock_solv.prm

>  <Rbt.Receptor>
prm/pocket_docking_3.prm

>  <SCORE>
-6.36335

>  <SCORE.INTER>
-6.00118

>  <SCORE.INTER.CONST>
1

>  <SCORE.INTER.POLAR>
0

>  <SCORE.INTER.ROT>
5

>  <SCORE.INTER.SOLV>
10.6728

>  <SCORE.INTER.VDW>
-14.4917

>  <SCORE.INTER.norm>
-0.272781

>  <SCORE.INTRA>
-0.362168

>  <SCORE.INTRA.DIHEDRAL>
-0.286746

>  <SCORE.INTRA.DIHEDRAL.0>
2.61549

>  <SCORE.INTRA.POLAR>
0

>  <SCORE.INTRA.POLAR.0>
0

>  <SCORE.INTRA.REPUL>
0

>  <SCORE.INTRA.REPUL.0>
0

>  <SCORE.INTRA.SOLV>
0.443229

>  <SCORE.INTRA.SOLV.lig_0>
-73.766

>  <SCORE.INTRA.VDW>
-0.440409

>  <SCORE.INTRA.VDW.0>
-1.95055

>  <SCORE.INTRA.norm>
-0.0164622

>  <SCORE.RESTR>
0

>  <SCORE.RESTR.CAVITY>
0

>  <SCORE.RESTR.norm>
0

>  <SCORE.SYSTEM>
0

>  <SCORE.SYSTEM.CONST>
0

>  <SCORE.SYSTEM.DIHEDRAL>
0

>  <SCORE.SYSTEM.SOLV>
0

>  <SCORE.SYSTEM.norm>
0

>  <SCORE.heavy>
22

>  <SCORE.norm>
-0.289243

>  <RMSD>
6.571

$$$$
ligand
 OpenBabel11021811513D
libRbt.so/2013.1/901 2013/11/27
 22 23  0  0  0  0  0  0  0  0999 V2000
   28.1662   -3.2775  105.8008 N   0  0  0  0  0  0  0  0  0  0  0  0
   30.4473   -0.7493  106.1390 C   0  0  1  0  0  0  0  0  0  0  0  0
   30.0114   -1.9018  105.3372 O   0  0  0  0  0  0  0  0  0  0  0  0
   32.8939   -2.9031  108.1217 P   0  0  2  0  0  0  0  0  0  0  0  0
   28.5597   -1.9826  105.4471 C   0  0  2  0  0  0  0  0  0  0  0  0
   28.0661   -5.2078  106.8379 N   0  0  0  0  0  0  0  0  0  0  0  0
   26.9014   -0.4177  106.1668 O   0  0  0  0  0  0  0  0  0  0  0  0
   28.1615   -1.0217  106.4945 C   0  0  2  0  0  0  0  0  0  0  0  0
   26.2654   -7.5262  106.3058 N   0  0  0  0  0  0  0  0  0  0  0  0
   28.9465    1.0014  105.5279 O   0  0  0  0  0  0  0  0  0  0  0  0
   29.2298   -0.0164  106.5133 C   0  0  2  0  0  0  0  0  0  0  0  0
   27.1261   -5.2117  105.8729 C   0  0  0  0  0  0  0  0  0  0  0  0
   26.3596   -3.5834  104.1188 N   0  0  0  0  0  0  0  0  0  0  0  0
   32.1618   -2.1039  106.9950 O   0  0  0  0  0  0  0  0  0  0  0  0
   31.1455   -1.2210  107.3600 C   0  0  0  0  0  0  0  0  0  0  0  0
   34.1343   -3.6830  107.5125 O   0  0  0  0  0  0  0  0  0  0  0  0
   28.6968   -4.0109  106.7801 C   0  0  0  0  0  0  0  0  0  0  0  0
   25.3631   -6.2224  104.6704 O   0  0  0  0  0  0  0  0  0  0  0  0
   26.1902   -6.3401  105.5711 C   0  0  0  0  0  0  0  0  0  0  0  0
   27.1783   -3.9962  105.2061 C   0  0  0  0  0  0  0  0  0  0  0  0
   31.9678   -3.8281  108.8131 O   0  5  0  0  0  0  0  0  0  0  0  0
   33.3197   -2.0080  109.2315 O   0  0  0  0  0  0  0  0  0  0  0  0
  1 17  1  0  0  0  0
  1 20  1  0  0  0  0
  2 15  1  1  0  0  0
  2  3  1  0  0  0  0
  2 11  1  0  0  0  0
  3  5  1  0  0  0  0
  4 16  1  6  0  0  0
  4 21  1  0  0  0  0
  4 22  2  0  0  0  0
  4 14  1  0  0  0  0
  5  1  1  1  0  0  0
  5  8  1  0  0  0  0
  6 17  2  0  0  0  0
  6 12  1  0  0  0  0
  8  7  1  6  0  0  0
  8 11  1  0  0  0  0
  9 19  1  0  0  0  0
 11 10  1  6  0  0  0
 12 20  2  0  0  0  0
 12 19  1  0  0  0  0
 13 20  1  0  0  0  0
 14 15  1  0  0  0  0
 18 19  2  0  0  0  0
M  CHG  1  21  -1
M  END
>  <CHROM.1>
47.45710464,53.01859297,-172.09732660,-170.69270347,-1.15035045,29.44647647
-2.95347282,106.52448112,2.79008879,0.43845536,2.99108863

>  <Name>
ligand

>  <RI>
0

>  <Rbt.Current_Directory>
/home/itssahil/PROJECTS/Mol_Feturizer/New_Systems/rnas/4XW7

>  <Rbt.Executable>
rbdock ($Id: //depot/dev/client3/rdock/2013.1/src/exe/rbdock.cxx#4 $)

>  <Rbt.Library>
libRbt.so (2013.1, Build901 2013/11/27)

>  <Rbt.Parameter_File>
/export/apps/rDock/src/rDock_2013.1_src/data/scripts/dock_solv.prm

>  <Rbt.Receptor>
prm/pocket_docking_3.prm

>  <SCORE>
-6.34159

>  <SCORE.INTER>
-5.89726

>  <SCORE.INTER.CONST>
1

>  <SCORE.INTER.POLAR>
0

>  <SCORE.INTER.ROT>
5

>  <SCORE.INTER.SOLV>
10.342

>  <SCORE.INTER.VDW>
-14.3122

>  <SCORE.INTER.norm>
-0.268057

>  <SCORE.INTRA>
-0.444329

>  <SCORE.INTRA.DIHEDRAL>
-0.455202

>  <SCORE.INTRA.DIHEDRAL.0>
2.61549

>  <SCORE.INTRA.POLAR>
0

>  <SCORE.INTRA.POLAR.0>
0

>  <SCORE.INTRA.REPUL>
0

>  <SCORE.INTRA.REPUL.0>
0

>  <SCORE.INTRA.SOLV>
0.427998

>  <SCORE.INTRA.SOLV.lig_0>
-73.766

>  <SCORE.INTRA.VDW>
-0.430727

>  <SCORE.INTRA.VDW.0>
-1.95055

>  <SCORE.INTRA.norm>
-0.0201968

>  <SCORE.RESTR>
0

>  <SCORE.RESTR.CAVITY>
0

>  <SCORE.RESTR.norm>
0

>  <SCORE.SYSTEM>
0

>  <SCORE.SYSTEM.CONST>
0

>  <SCORE.SYSTEM.DIHEDRAL>
0

>  <SCORE.SYSTEM.SOLV>
0

>  <SCORE.SYSTEM.norm>
0

>  <SCORE.heavy>
22

>  <SCORE.norm>
-0.288254

>  <RMSD>
6.571

$$$$
ligand
 OpenBabel11021811513D
libRbt.so/2013.1/901 2013/11/27
 22 23  0  0  0  0  0  0  0  0999 V2000
   28.1924   -3.2780  105.8221 N   0  0  0  0  0  0  0  0  0  0  0  0
   30.4603   -0.7359  106.1446 C   0  0  1  0  0  0  0  0  0  0  0  0
   30.0284   -1.8937  105.3482 O   0  0  0  0  0  0  0  0  0  0  0  0
   32.9120   -2.8872  108.1168 P   0  0  2  0  0  0  0  0  0  0  0  0
   28.5775   -1.9822  105.4627 C   0  0  2  0  0  0  0  0  0  0  0  0
   28.1237   -5.2152  106.8489 N   0  0  0  0  0  0  0  0  0  0  0  0
   26.9126   -0.4240  106.1818 O   0  0  0  0  0  0  0  0  0  0  0  0
   28.1772   -1.0198  106.5079 C   0  0  2  0  0  0  0  0  0  0  0  0
   26.2829   -7.5160  106.3821 N   0  0  0  0  0  0  0  0  0  0  0  0
   28.9479    1.0042  105.5318 O   0  0  0  0  0  0  0  0  0  0  0  0
   29.2399   -0.0085  106.5198 C   0  0  2  0  0  0  0  0  0  0  0  0
   27.1477   -5.2086  105.9203 C   0  0  0  0  0  0  0  0  0  0  0  0
   26.3220   -3.5650  104.2079 N   0  0  0  0  0  0  0  0  0  0  0  0
   32.2015   -2.0575  106.9983 O   0  0  0  0  0  0  0  0  0  0  0  0
   31.1647   -1.1994  107.3650 C   0  0  0  0  0  0  0  0  0  0  0  0
   34.1273   -3.6986  107.4982 O   0  0  0  0  0  0  0  0  0  0  0  0
   28.7567   -4.0203  106.7755 C   0  0  0  0  0  0  0  0  0  0  0  0
   25.3463   -6.2099  104.7680 O   0  0  0  0  0  0  0  0  0  0  0  0
   26.1963   -6.3312  105.6465 C   0  0  0  0  0  0  0  0  0  0  0  0
   27.1796   -3.9887  105.2604 C   0  0  0  0  0  0  0  0  0  0  0  0
   31.9604   -3.7898  108.8030 O   0  5  0  0  0  0  0  0  0  0  0  0
   33.3668   -2.0141  109.2326 O   0  0  0  0  0  0  0  0  0  0  0  0
  1 17  1  0  0  0  0
  1 20  1  0  0  0  0
  2 15  1  1  0  0  0
  2  3  1  0  0  0  0
  2 11  1  0  0  0  0
  3  5  1  0  0  0  0
  4 16  1  6  0  0  0
  4 21  1  0  0  0  0
  4 22  2  0  0  0  0
  4 14  1  0  0  0  0
  5  1  1  1  0  0  0
  5  8  1  0  0  0  0
  6 17  2  0  0  0  0
  6 12  1  0  0  0  0
  8  7  1  6  0  0  0
  8 11  1  0  0  0  0
  9 19  1  0  0  0  0
 11 10  1  6  0  0  0
 12 20  2  0  0  0  0
 12 19  1  0  0  0  0
 13 20  1  0  0  0  0
 14 15  1  0  0  0  0
 18 19  2  0  0  0  0
M  CHG  1  21  -1
M  END
>  <CHROM.1>
45.29196376,54.16402248,-175.40883421,-168.45076479,-0.28951174,29.46133995
-2.94498296,106.54578395,2.78936741,0.43023578,2.98538774

>  <Name>
ligand

>  <RI>
0

>  <Rbt.Current_Directory>
/home/itssahil/PROJECTS/Mol_Feturizer/New_Systems/rnas/4XW7

>  <Rbt.Executable>
rbdock ($Id: //depot/dev/client3/rdock/2013.1/src/exe/rbdock.cxx#4 $)

>  <Rbt.Library>
libRbt.so (2013.1, Build901 2013/11/27)

>  <Rbt.Parameter_File>
/export/apps/rDock/src/rDock_2013.1_src/data/scripts/dock_solv.prm

>  <Rbt.Receptor>
prm/pocket_docking_3.prm

>  <SCORE>
-6.32439

>  <SCORE.INTER>
-5.94469

>  <SCORE.INTER.CONST>
1

>  <SCORE.INTER.POLAR>
0

>  <SCORE.INTER.ROT>
5

>  <SCORE.INTER.SOLV>
10.4573

>  <SCORE.INTER.VDW>
-14.3822

>  <SCORE.INTER.norm>
-0.270213

>  <SCORE.INTRA>
-0.379699

>  <SCORE.INTRA.DIHEDRAL>
-0.353416

>  <SCORE.INTRA.DIHEDRAL.0>
2.61549

>  <SCORE.INTRA.POLAR>
0

>  <SCORE.INTRA.POLAR.0>
0

>  <SCORE.INTRA.REPUL>
0

>  <SCORE.INTRA.REPUL.0>
0

>  <SCORE.INTRA.SOLV>
0.538421

>  <SCORE.INTRA.SOLV.lig_0>
-73.766

>  <SCORE.INTRA.VDW>
-0.472202

>  <SCORE.INTRA.VDW.0>
-1.95055

>  <SCORE.INTRA.norm>
-0.0172591

>  <SCORE.RESTR>
0

>  <SCORE.RESTR.CAVITY>
0

>  <SCORE.RESTR.norm>
0

>  <SCORE.SYSTEM>
0

>  <SCORE.SYSTEM.CONST>
0

>  <SCORE.SYSTEM.DIHEDRAL>
0

>  <SCORE.SYSTEM.SOLV>
0

>  <SCORE.SYSTEM.norm>
0

>  <SCORE.heavy>
22

>  <SCORE.norm>
-0.287472

>  <RMSD>
6.573

$$$$
ligand
 OpenBabel11021811513D
libRbt.so/2013.1/901 2013/11/27
 22 23  0  0  0  0  0  0  0  0999 V2000
   28.1720   -3.2675  105.8091 N   0  0  0  0  0  0  0  0  0  0  0  0
   30.4569   -0.7427  106.1467 C   0  0  1  0  0  0  0  0  0  0  0  0
   30.0180   -1.8935  105.3441 O   0  0  0  0  0  0  0  0  0  0  0  0
   32.9065   -2.9016  108.1191 P   0  0  2  0  0  0  0  0  0  0  0  0
   28.5664   -1.9726  105.4565 C   0  0  2  0  0  0  0  0  0  0  0  0
   28.0657   -5.1960  106.8489 N   0  0  0  0  0  0  0  0  0  0  0  0
   26.9115   -0.4066  106.1816 O   0  0  0  0  0  0  0  0  0  0  0  0
   28.1715   -1.0127  106.5060 C   0  0  2  0  0  0  0  0  0  0  0  0
   26.2696   -7.5161  106.3091 N   0  0  0  0  0  0  0  0  0  0  0  0
   28.9573    1.0108  105.5409 O   0  0  0  0  0  0  0  0  0  0  0  0
   29.2411   -0.0088  106.5243 C   0  0  2  0  0  0  0  0  0  0  0  0
   27.1345   -5.2034  105.8753 C   0  0  0  0  0  0  0  0  0  0  0  0
   26.3814   -3.5797  104.1112 N   0  0  0  0  0  0  0  0  0  0  0  0
   32.1774   -2.0934  106.9968 O   0  0  0  0  0  0  0  0  0  0  0  0
   31.1568   -1.2170  107.3656 C   0  0  0  0  0  0  0  0  0  0  0  0
   34.1312   -3.6996  107.5017 O   0  0  0  0  0  0  0  0  0  0  0  0
   28.6949   -3.9981  106.7946 C   0  0  0  0  0  0  0  0  0  0  0  0
   25.3883   -6.2215  104.6550 O   0  0  0  0  0  0  0  0  0  0  0  0
   26.2034   -6.3340  105.5671 C   0  0  0  0  0  0  0  0  0  0  0  0
   27.1908   -3.9891  105.2067 C   0  0  0  0  0  0  0  0  0  0  0  0
   31.9725   -3.8126  108.8184 O   0  5  0  0  0  0  0  0  0  0  0  0
   33.3531   -2.0113  109.2246 O   0  0  0  0  0  0  0  0  0  0  0  0
  1 17  1  0  0  0  0
  1 20  1  0  0  0  0
  2 15  1  1  0  0  0
  2  3  1  0  0  0  0
  2 11  1  0  0  0  0
  3  5  1  0  0  0  0
  4 16  1  6  0  0  0
  4 21  1  0  0  0  0
  4 22  2  0  0  0  0
  4 14  1  0  0  0  0
  5  1  1  1  0  0  0
  5  8  1  0  0  0  0
  6 17  2  0  0  0  0
  6 12  1  0  0  0  0
  8  7  1  6  0  0  0
  8 11  1  0  0  0  0
  9 19  1  0  0  0  0
 11 10  1  6  0  0  0
 12 20  2  0  0  0  0
 12 19  1  0  0  0  0
 13 20  1  0  0  0  0
 14 15  1  0  0  0  0
 18 19  2  0  0  0  0
M  CHG  1  21  -1
M  END
>  <CHROM.1>
48.13836518,53.43724579,-173.45526100,-170.29902701,-0.83878210,29.45716912
-2.94733312,106.52759983,2.78891925,0.43762092,2.99398079

>  <Name>
ligand

>  <RI>
0

>  <Rbt.Current_Directory>
/home/itssahil/PROJECTS/Mol_Feturizer/New_Systems/rnas/4XW7

>  <Rbt.Executable>
rbdock ($Id: //depot/dev/client3/rdock/2013.1/src/exe/rbdock.cxx#4 $)

>  <Rbt.Library>
libRbt.so (2013.1, Build901 2013/11/27)

>  <Rbt.Parameter_File>
/export/apps/rDock/src/rDock_2013.1_src/data/scripts/dock_solv.prm

>  <Rbt.Receptor>
prm/pocket_docking_3.prm

>  <SCORE>
-6.33746

>  <SCORE.INTER>
-5.87325

>  <SCORE.INTER.CONST>
1

>  <SCORE.INTER.POLAR>
0

>  <SCORE.INTER.ROT>
5

>  <SCORE.INTER.SOLV>
10.4352

>  <SCORE.INTER.VDW>
-14.3272

>  <SCORE.INTER.norm>
-0.266966

>  <SCORE.INTRA>
-0.464209

>  <SCORE.INTRA.DIHEDRAL>
-0.470674

>  <SCORE.INTRA.DIHEDRAL.0>
2.61549

>  <SCORE.INTRA.POLAR>
0

>  <SCORE.INTRA.POLAR.0>
0

>  <SCORE.INTRA.REPUL>
0

>  <SCORE.INTRA.REPUL.0>
0

>  <SCORE.INTRA.SOLV>
0.410169

>  <SCORE.INTRA.SOLV.lig_0>
-73.766

>  <SCORE.INTRA.VDW>
-0.433956

>  <SCORE.INTRA.VDW.0>
-1.95055

>  <SCORE.INTRA.norm>
-0.0211004

>  <SCORE.RESTR>
0

>  <SCORE.RESTR.CAVITY>
0

>  <SCORE.RESTR.norm>
0

>  <SCORE.SYSTEM>
0

>  <SCORE.SYSTEM.CONST>
0

>  <SCORE.SYSTEM.DIHEDRAL>
0

>  <SCORE.SYSTEM.SOLV>
0

>  <SCORE.SYSTEM.norm>
0

>  <SCORE.heavy>
22

>  <SCORE.norm>
-0.288066

>  <RMSD>
6.574

$$$$
ligand
 OpenBabel11021811513D
libRbt.so/2013.1/901 2013/11/27
 22 23  0  0  0  0  0  0  0  0999 V2000
   28.1752   -3.2638  105.7285 N   0  0  0  0  0  0  0  0  0  0  0  0
   30.4424   -0.7309  106.1211 C   0  0  1  0  0  0  0  0  0  0  0  0
   30.0183   -1.8740  105.2997 O   0  0  0  0  0  0  0  0  0  0  0  0
   32.8824   -2.8977  108.1015 P   0  0  2  0  0  0  0  0  0  0  0  0
   28.5661   -1.9624  105.3961 C   0  0  2  0  0  0  0  0  0  0  0  0
   28.0748   -5.2088  106.7377 N   0  0  0  0  0  0  0  0  0  0  0  0
   26.8950   -0.4147  106.1235 O   0  0  0  0  0  0  0  0  0  0  0  0
   28.1550   -1.0179  106.4534 C   0  0  2  0  0  0  0  0  0  0  0  0
   26.2414   -7.5010  106.2029 N   0  0  0  0  0  0  0  0  0  0  0  0
   28.9393    1.0218  105.5217 O   0  0  0  0  0  0  0  0  0  0  0  0
   29.2187   -0.0085  106.4952 C   0  0  2  0  0  0  0  0  0  0  0  0
   27.1428   -5.2031  105.7649 C   0  0  0  0  0  0  0  0  0  0  0  0
   26.3840   -3.5537  104.0273 N   0  0  0  0  0  0  0  0  0  0  0  0
   32.1389   -2.1099  106.9742 O   0  0  0  0  0  0  0  0  0  0  0  0
   31.1323   -1.2166  107.3413 C   0  0  0  0  0  0  0  0  0  0  0  0
   34.1227   -3.6755  107.4893 O   0  0  0  0  0  0  0  0  0  0  0  0
   28.7009   -4.0085  106.7018 C   0  0  0  0  0  0  0  0  0  0  0  0
   25.4360   -6.2274  104.4948 O   0  0  0  0  0  0  0  0  0  0  0  0
   26.2143   -6.3311  105.4396 C   0  0  0  0  0  0  0  0  0  0  0  0
   27.1954   -3.9782  105.1156 C   0  0  0  0  0  0  0  0  0  0  0  0
   31.9656   -3.8226  108.8052 O   0  5  0  0  0  0  0  0  0  0  0  0
   33.3111   -1.9930  109.2023 O   0  0  0  0  0  0  0  0  0  0  0  0
  1 17  1  0  0  0  0
  1 20  1  0  0  0  0
  2 15  1  1  0  0  0
  2  3  1  0  0  0  0
  2 11  1  0  0  0  0
  3  5  1  0  0  0  0
  4 16  1  6  0  0  0
  4 21  1  0  0  0  0
  4 22  2  0  0  0  0
  4 14  1  0  0  0  0
  5  1  1  1  0  0  0
  5  8  1  0  0  0  0
  6 17  2  0  0  0  0
  6 12  1  0  0  0  0
  8  7  1  6  0  0  0
  8 11  1  0  0  0  0
  9 19  1  0  0  0  0
 11 10  1  6  0  0  0
 12 20  2  0  0  0  0
 12 19  1  0  0  0  0
 13 20  1  0  0  0  0
 14 15  1  0  0  0  0
 18 19  2  0  0  0  0
M  CHG  1  21  -1
M  END
>  <CHROM.1>
47.44879030,51.89395081,-171.27700004,-172.13475713,2.16026560,29.44826323
-2.94321227,106.46949000,2.78720636,0.44908003,3.00477543

>  <Name>
ligand

>  <RI>
0

>  <Rbt.Current_Directory>
/home/itssahil/PROJECTS/Mol_Feturizer/New_Systems/rnas/4XW7

>  <Rbt.Executable>
rbdock ($Id: //depot/dev/client3/rdock/2013.1/src/exe/rbdock.cxx#4 $)

>  <Rbt.Library>
libRbt.so (2013.1, Build901 2013/11/27)

>  <Rbt.Parameter_File>
/export/apps/rDock/src/rDock_2013.1_src/data/scripts/dock_solv.prm

>  <Rbt.Receptor>
prm/pocket_docking_3.prm

>  <SCORE>
-6.3269

>  <SCORE.INTER>
-5.88813

>  <SCORE.INTER.CONST>
1

>  <SCORE.INTER.POLAR>
0

>  <SCORE.INTER.ROT>
5

>  <SCORE.INTER.SOLV>
10.4401

>  <SCORE.INTER.VDW>
-14.3388

>  <SCORE.INTER.norm>
-0.267642

>  <SCORE.INTRA>
-0.438761

>  <SCORE.INTRA.DIHEDRAL>
-0.489548

>  <SCORE.INTRA.DIHEDRAL.0>
2.61549

>  <SCORE.INTRA.POLAR>
0

>  <SCORE.INTRA.POLAR.0>
0

>  <SCORE.INTRA.REPUL>
0

>  <SCORE.INTRA.REPUL.0>
0

>  <SCORE.INTRA.SOLV>
0.409099

>  <SCORE.INTRA.SOLV.lig_0>
-73.766

>  <SCORE.INTRA.VDW>
-0.398537

>  <SCORE.INTRA.VDW.0>
-1.95055

>  <SCORE.INTRA.norm>
-0.0199437

>  <SCORE.RESTR>
0

>  <SCORE.RESTR.CAVITY>
0

>  <SCORE.RESTR.norm>
0

>  <SCORE.SYSTEM>
0

>  <SCORE.SYSTEM.CONST>
0

>  <SCORE.SYSTEM.DIHEDRAL>
0

>  <SCORE.SYSTEM.SOLV>
0

>  <SCORE.SYSTEM.norm>
0

>  <SCORE.heavy>
22

>  <SCORE.norm>
-0.287586

>  <RMSD>
6.574

$$$$
ligand
 OpenBabel11021811513D
libRbt.so/2013.1/901 2013/11/27
 22 23  0  0  0  0  0  0  0  0999 V2000
   28.2812   -3.2864  105.9031 N   0  0  0  0  0  0  0  0  0  0  0  0
   30.5223   -0.7145  106.1725 C   0  0  1  0  0  0  0  0  0  0  0  0
   30.0942   -1.8849  105.3926 O   0  0  0  0  0  0  0  0  0  0  0  0
   32.9391   -2.9066  108.1289 P   0  0  2  0  0  0  0  0  0  0  0  0
   28.6461   -1.9896  105.5267 C   0  0  2  0  0  0  0  0  0  0  0  0
   28.2035   -5.1891  106.9919 N   0  0  0  0  0  0  0  0  0  0  0  0
   26.9719   -0.4446  106.2527 O   0  0  0  0  0  0  0  0  0  0  0  0
   28.2476   -1.0222  106.5679 C   0  0  2  0  0  0  0  0  0  0  0  0
   25.0269   -6.2603  105.6904 N   0  0  0  0  0  0  0  0  0  0  0  0
   28.9814    1.0015  105.5631 O   0  0  0  0  0  0  0  0  0  0  0  0
   29.2981    0.0018  106.5567 C   0  0  2  0  0  0  0  0  0  0  0  0
   27.3019   -5.2514  105.9928 C   0  0  0  0  0  0  0  0  0  0  0  0
   26.5515   -3.6994  104.1642 N   0  0  0  0  0  0  0  0  0  0  0  0
   32.2698   -2.0326  107.0187 O   0  0  0  0  0  0  0  0  0  0  0  0
   31.2479   -1.1580  107.3880 C   0  0  0  0  0  0  0  0  0  0  0  0
   34.1582   -3.7172  107.5168 O   0  0  0  0  0  0  0  0  0  0  0  0
   28.7971   -3.9739  106.9228 C   0  0  0  0  0  0  0  0  0  0  0  0
   26.9121   -7.5157  105.4483 O   0  0  0  0  0  0  0  0  0  0  0  0
   26.4151   -6.4184  105.6893 C   0  0  0  0  0  0  0  0  0  0  0  0
   27.3406   -4.0541  105.2931 C   0  0  0  0  0  0  0  0  0  0  0  0
   31.9571   -3.8150  108.7626 O   0  5  0  0  0  0  0  0  0  0  0  0
   33.3773   -2.0748  109.2822 O   0  0  0  0  0  0  0  0  0  0  0  0
  1 17  1  0  0  0  0
  1 20  1  0  0  0  0
  2 15  1  1  0  0  0
  2  3  1  0  0  0  0
  2 11  1  0  0  0  0
  3  5  1  0  0  0  0
  4 16  1  6  0  0  0
  4 21  1  0  0  0  0
  4 22  2  0  0  0  0
  4 14  1  0  0  0  0
  5  1  1  1  0  0  0
  5  8  1  0  0  0  0
  6 17  2  0  0  0  0
  6 12  1  0  0  0  0
  8  7  1  6  0  0  0
  8 11  1  0  0  0  0
  9 19  1  0  0  0  0
 11 10  1  6  0  0  0
 12 20  2  0  0  0  0
 12 19  1  0  0  0  0
 13 20  1  0  0  0  0
 14 15  1  0  0  0  0
 18 19  2  0  0  0  0
M  CHG  1  21  -1
M  END
>  <CHROM.1>
50.79244714,52.74228076,-174.60629970,-164.89763422,121.48695475,29.55113665
-2.96919325,106.58692853,2.74865903,0.41993818,3.01877311

>  <Name>
ligand

>  <RI>
0

>  <Rbt.Current_Directory>
/home/itssahil/PROJECTS/Mol_Feturizer/New_Systems/rnas/4XW7

>  <Rbt.Executable>
rbdock ($Id: //depot/dev/client3/rdock/2013.1/src/exe/rbdock.cxx#4 $)

>  <Rbt.Library>
libRbt.so (2013.1, Build901 2013/11/27)

>  <Rbt.Parameter_File>
/export/apps/rDock/src/rDock_2013.1_src/data/scripts/dock_solv.prm

>  <Rbt.Receptor>
prm/pocket_docking_3.prm

>  <SCORE>
-6.27793

>  <SCORE.INTER>
-5.97914

>  <SCORE.INTER.CONST>
1

>  <SCORE.INTER.POLAR>
0

>  <SCORE.INTER.ROT>
5

>  <SCORE.INTER.SOLV>
10.9239

>  <SCORE.INTER.VDW>
-14.5607

>  <SCORE.INTER.norm>
-0.271779

>  <SCORE.INTRA>
-0.298783

>  <SCORE.INTRA.DIHEDRAL>
0.15676

>  <SCORE.INTRA.DIHEDRAL.0>
2.61549

>  <SCORE.INTRA.POLAR>
0

>  <SCORE.INTRA.POLAR.0>
0

>  <SCORE.INTRA.REPUL>
0

>  <SCORE.INTRA.REPUL.0>
0

>  <SCORE.INTRA.SOLV>
0.48969

>  <SCORE.INTRA.SOLV.lig_0>
-73.766

>  <SCORE.INTRA.VDW>
-0.622007

>  <SCORE.INTRA.VDW.0>
-1.95055

>  <SCORE.INTRA.norm>
-0.013581

>  <SCORE.RESTR>
0

>  <SCORE.RESTR.CAVITY>
0

>  <SCORE.RESTR.norm>
0

>  <SCORE.SYSTEM>
0

>  <SCORE.SYSTEM.CONST>
0

>  <SCORE.SYSTEM.DIHEDRAL>
0

>  <SCORE.SYSTEM.SOLV>
0

>  <SCORE.SYSTEM.norm>
0

>  <SCORE.heavy>
22

>  <SCORE.norm>
-0.28536

>  <RMSD>
6.581

$$$$
ligand
 OpenBabel11021811513D
libRbt.so/2013.1/901 2013/11/27
 22 23  0  0  0  0  0  0  0  0999 V2000
   29.9168   -4.3896  108.0577 N   0  0  0  0  0  0  0  0  0  0  0  0
   31.1911   -1.2294  107.7423 C   0  0  1  0  0  0  0  0  0  0  0  0
   30.2737   -2.1082  108.4822 O   0  0  0  0  0  0  0  0  0  0  0  0
   28.3406   -0.4057  105.3431 P   0  0  2  0  0  0  0  0  0  0  0  0
   30.8573   -3.4445  108.4807 C   0  0  2  0  0  0  0  0  0  0  0  0
   28.3420   -5.3749  106.8912 N   0  0  0  0  0  0  0  0  0  0  0  0
   33.0617   -4.2474  108.0194 O   0  0  0  0  0  0  0  0  0  0  0  0
   32.0000   -3.4049  107.5470 C   0  0  2  0  0  0  0  0  0  0  0  0
   27.3965   -7.7667  109.3843 N   0  0  0  0  0  0  0  0  0  0  0  0
   33.3501   -1.7619  108.6059 O   0  0  0  0  0  0  0  0  0  0  0  0
   32.4229   -2.0003  107.5239 C   0  0  2  0  0  0  0  0  0  0  0  0
   28.6742   -6.1955  107.9067 C   0  0  0  0  0  0  0  0  0  0  0  0
   30.3060   -6.1055  109.8158 N   0  0  0  0  0  0  0  0  0  0  0  0
   29.2304   -0.6075  106.6127 O   0  0  0  0  0  0  0  0  0  0  0  0
   30.5908   -0.8604  106.4369 C   0  0  0  0  0  0  0  0  0  0  0  0
   28.4711    1.0879  104.8236 O   0  0  0  0  0  0  0  0  0  0  0  0
   29.1155   -4.2686  106.9986 C   0  0  0  0  0  0  0  0  0  0  0  0
   28.1663   -8.4324  107.3465 O   0  0  0  0  0  0  0  0  0  0  0  0
   28.0663   -7.5357  108.1801 C   0  0  0  0  0  0  0  0  0  0  0  0
   29.6695   -5.5845  108.6555 C   0  0  0  0  0  0  0  0  0  0  0  0
   26.9283   -0.7557  105.6155 O   0  5  0  0  0  0  0  0  0  0  0  0
   28.6967   -1.3756  104.2723 O   0  0  0  0  0  0  0  0  0  0  0  0
  1 17  1  0  0  0  0
  1 20  1  0  0  0  0
  2 15  1  6  0  0  0
  2  3  1  0  0  0  0
  2 11  1  0  0  0  0
  3  5  1  0  0  0  0
  4 16  1  6  0  0  0
  4 21  1  0  0  0  0
  4 22  2  0  0  0  0
  4 14  1  0  0  0  0
  5  1  1  6  0  0  0
  5  8  1  0  0  0  0
  6 17  2  0  0  0  0
  6 12  1  0  0  0  0
  8  7  1  1  0  0  0
  8 11  1  0  0  0  0
  9 19  1  0  0  0  0
 11 10  1  1  0  0  0
 12 20  2  0  0  0  0
 12 19  1  0  0  0  0
 13 20  1  0  0  0  0
 14 15  1  0  0  0  0
 18 19  2  0  0  0  0
M  CHG  1  21  -1
M  END
>  <CHROM.1>
46.17718357,40.54198569,-82.14594547,-171.08557575,-118.94676924,29.70127505
-3.22473334,107.24054960,-1.60138249,-0.43281123,-0.40548233

>  <Name>
ligand

>  <RI>
0

>  <Rbt.Current_Directory>
/home/itssahil/PROJECTS/Mol_Feturizer/New_Systems/rnas/4XW7

>  <Rbt.Executable>
rbdock ($Id: //depot/dev/client3/rdock/2013.1/src/exe/rbdock.cxx#4 $)

>  <Rbt.Library>
libRbt.so (2013.1, Build901 2013/11/27)

>  <Rbt.Parameter_File>
/export/apps/rDock/src/rDock_2013.1_src/data/scripts/dock_solv.prm

>  <Rbt.Receptor>
prm/pocket_docking_4.prm

>  <SCORE>
-6.15389

>  <SCORE.INTER>
-6.21918

>  <SCORE.INTER.CONST>
1

>  <SCORE.INTER.POLAR>
0

>  <SCORE.INTER.ROT>
5

>  <SCORE.INTER.SOLV>
8.19981

>  <SCORE.INTER.VDW>
-13.8127

>  <SCORE.INTER.norm>
-0.28269

>  <SCORE.INTRA>
0.0652897

>  <SCORE.INTRA.DIHEDRAL>
1.1891

>  <SCORE.INTRA.DIHEDRAL.0>
2.61549

>  <SCORE.INTRA.POLAR>
0

>  <SCORE.INTRA.POLAR.0>
0

>  <SCORE.INTRA.REPUL>
0

>  <SCORE.INTRA.REPUL.0>
0

>  <SCORE.INTRA.SOLV>
-0.0118007

>  <SCORE.INTRA.SOLV.lig_0>
-73.766

>  <SCORE.INTRA.VDW>
-0.523359

>  <SCORE.INTRA.VDW.0>
-1.95055

>  <SCORE.INTRA.norm>
0.00296771

>  <SCORE.RESTR>
0

>  <SCORE.RESTR.CAVITY>
0

>  <SCORE.RESTR.norm>
0

>  <SCORE.SYSTEM>
0

>  <SCORE.SYSTEM.CONST>
0

>  <SCORE.SYSTEM.DIHEDRAL>
0

>  <SCORE.SYSTEM.SOLV>
0

>  <SCORE.SYSTEM.norm>
0

>  <SCORE.heavy>
22

>  <SCORE.norm>
-0.279722

>  <RMSD>
6.582

$$$$
ligand
 OpenBabel11021811513D
libRbt.so/2013.1/901 2013/11/27
 22 23  0  0  0  0  0  0  0  0999 V2000
   27.9571   -3.2080  104.7073 N   0  0  0  0  0  0  0  0  0  0  0  0
   29.9320   -0.5687  105.6257 C   0  0  1  0  0  0  0  0  0  0  0  0
   29.7058   -1.6427  104.6476 O   0  0  0  0  0  0  0  0  0  0  0  0
   32.4277   -2.6141  107.6631 P   0  0  2  0  0  0  0  0  0  0  0  0
   28.2656   -1.8519  104.5582 C   0  0  2  0  0  0  0  0  0  0  0  0
   27.7368   -5.2032  105.5919 N   0  0  0  0  0  0  0  0  0  0  0  0
   26.3927   -0.5264  105.2309 O   0  0  0  0  0  0  0  0  0  0  0  0
   27.6563   -1.0645  105.6480 C   0  0  2  0  0  0  0  0  0  0  0  0
   25.3674   -6.4861  103.2468 N   0  0  0  0  0  0  0  0  0  0  0  0
   28.3559    1.1197  105.0293 O   0  0  0  0  0  0  0  0  0  0  0  0
   28.6148    0.0123  105.9201 C   0  0  2  0  0  0  0  0  0  0  0  0
   27.2663   -5.2597  104.3308 C   0  0  0  0  0  0  0  0  0  0  0  0
   27.0280   -3.6239  102.4379 N   0  0  0  0  0  0  0  0  0  0  0  0
   31.7238   -1.7669  106.5535 O   0  0  0  0  0  0  0  0  0  0  0  0
   30.5211   -1.1326  106.8648 C   0  0  0  0  0  0  0  0  0  0  0  0
   31.6678   -3.9941  107.8528 O   0  0  0  0  0  0  0  0  0  0  0  0
   28.1578   -3.9343  105.8076 C   0  0  0  0  0  0  0  0  0  0  0  0
   27.4103   -7.4629  103.4939 O   0  0  0  0  0  0  0  0  0  0  0  0
   26.7008   -6.4746  103.6642 C   0  0  0  0  0  0  0  0  0  0  0  0
   27.4006   -4.0038  103.7569 C   0  0  0  0  0  0  0  0  0  0  0  0
   32.5080   -1.8680  108.9390 O   0  5  0  0  0  0  0  0  0  0  0  0
   33.8644   -2.8359  107.3455 O   0  0  0  0  0  0  0  0  0  0  0  0
  1 17  1  0  0  0  0
  1 20  1  0  0  0  0
  2 15  1  1  0  0  0
  2  3  1  0  0  0  0
  2 11  1  0  0  0  0
  3  5  1  0  0  0  0
  4 16  1  1  0  0  0
  4 21  1  0  0  0  0
  4 22  2  0  0  0  0
  4 14  1  0  0  0  0
  5  1  1  1  0  0  0
  5  8  1  0  0  0  0
  6 17  2  0  0  0  0
  6 12  1  0  0  0  0
  8  7  1  6  0  0  0
  8 11  1  0  0  0  0
  9 19  1  0  0  0  0
 11 10  1  6  0  0  0
 12 20  2  0  0  0  0
 12 19  1  0  0  0  0
 13 20  1  0  0  0  0
 14 15  1  0  0  0  0
 18 19  2  0  0  0  0
M  CHG  1  21  -1
M  END
>  <CHROM.1>
64.69202956,58.85107270,75.55135139,-171.36783551,117.20421859,29.22195247
-2.86015281,105.58139592,2.61920876,0.57097442,-3.05000844

>  <Name>
ligand

>  <RI>
0

>  <Rbt.Current_Directory>
/home/itssahil/PROJECTS/Mol_Feturizer/New_Systems/rnas/4XW7

>  <Rbt.Executable>
rbdock ($Id: //depot/dev/client3/rdock/2013.1/src/exe/rbdock.cxx#4 $)

>  <Rbt.Library>
libRbt.so (2013.1, Build901 2013/11/27)

>  <Rbt.Parameter_File>
/export/apps/rDock/src/rDock_2013.1_src/data/scripts/dock_solv.prm

>  <Rbt.Receptor>
prm/pocket_docking_4.prm

>  <SCORE>
-6.14996

>  <SCORE.INTER>
-5.29479

>  <SCORE.INTER.CONST>
1

>  <SCORE.INTER.POLAR>
0

>  <SCORE.INTER.ROT>
5

>  <SCORE.INTER.SOLV>
14.2655

>  <SCORE.INTER.VDW>
-15.2183

>  <SCORE.INTER.norm>
-0.240672

>  <SCORE.INTRA>
-0.874904

>  <SCORE.INTRA.DIHEDRAL>
-0.393153

>  <SCORE.INTRA.DIHEDRAL.0>
2.61549

>  <SCORE.INTRA.POLAR>
0

>  <SCORE.INTRA.POLAR.0>
0

>  <SCORE.INTRA.REPUL>
0

>  <SCORE.INTRA.REPUL.0>
0

>  <SCORE.INTRA.SOLV>
-0.688699

>  <SCORE.INTRA.SOLV.lig_0>
-73.766

>  <SCORE.INTRA.VDW>
-0.333978

>  <SCORE.INTRA.VDW.0>
-1.95055

>  <SCORE.INTRA.norm>
-0.0397684

>  <SCORE.RESTR>
0.0197284

>  <SCORE.RESTR.CAVITY>
0.0197284

>  <SCORE.RESTR.norm>
0.000896746

>  <SCORE.SYSTEM>
0

>  <SCORE.SYSTEM.CONST>
0

>  <SCORE.SYSTEM.DIHEDRAL>
0

>  <SCORE.SYSTEM.SOLV>
0

>  <SCORE.SYSTEM.norm>
0

>  <SCORE.heavy>
22

>  <SCORE.norm>
-0.279544

>  <RMSD>
6.594

$$$$
ligand
 OpenBabel11021811513D
libRbt.so/2013.1/901 2013/11/27
 22 23  0  0  0  0  0  0  0  0999 V2000
   28.1850   -3.3075  105.8269 N   0  0  0  0  0  0  0  0  0  0  0  0
   30.4418   -0.7540  106.1368 C   0  0  1  0  0  0  0  0  0  0  0  0
   30.0138   -1.9164  105.3450 O   0  0  0  0  0  0  0  0  0  0  0  0
   32.9081   -2.8834  108.1181 P   0  0  2  0  0  0  0  0  0  0  0  0
   28.5636   -2.0112  105.4625 C   0  0  2  0  0  0  0  0  0  0  0  0
   28.0726   -5.2117  106.9100 N   0  0  0  0  0  0  0  0  0  0  0  0
   26.8929   -0.4583  106.1797 O   0  0  0  0  0  0  0  0  0  0  0  0
   28.1607   -1.0472  106.5053 C   0  0  2  0  0  0  0  0  0  0  0  0
   24.9421   -6.2453  105.3936 N   0  0  0  0  0  0  0  0  0  0  0  0
   28.9204    0.9771  105.5212 O   0  0  0  0  0  0  0  0  0  0  0  0
   29.2188   -0.0310  106.5120 C   0  0  2  0  0  0  0  0  0  0  0  0
   27.1982   -5.2699  105.8868 C   0  0  0  0  0  0  0  0  0  0  0  0
   26.5019   -3.7130  104.0410 N   0  0  0  0  0  0  0  0  0  0  0  0
   32.1790   -2.0793  106.9929 O   0  0  0  0  0  0  0  0  0  0  0  0
   31.1507   -1.2102  107.3574 C   0  0  0  0  0  0  0  0  0  0  0  0
   34.1301   -3.6872  107.5028 O   0  0  0  0  0  0  0  0  0  0  0  0
   28.6712   -3.9980  106.8590 C   0  0  0  0  0  0  0  0  0  0  0  0
   26.8051   -7.5550  105.4410 O   0  0  0  0  0  0  0  0  0  0  0  0
   26.3168   -6.4339  105.5575 C   0  0  0  0  0  0  0  0  0  0  0  0
   27.2591   -4.0716  105.1903 C   0  0  0  0  0  0  0  0  0  0  0  0
   31.9733   -3.7889  108.8234 O   0  5  0  0  0  0  0  0  0  0  0  0
   33.3584   -1.9886  109.2183 O   0  0  0  0  0  0  0  0  0  0  0  0
  1 17  1  0  0  0  0
  1 20  1  0  0  0  0
  2 15  1  1  0  0  0
  2  3  1  0  0  0  0
  2 11  1  0  0  0  0
  3  5  1  0  0  0  0
  4 16  1  6  0  0  0
  4 21  1  0  0  0  0
  4 22  2  0  0  0  0
  4 14  1  0  0  0  0
  5  1  1  1  0  0  0
  5  8  1  0  0  0  0
  6 17  2  0  0  0  0
  6 12  1  0  0  0  0
  8  7  1  6  0  0  0
  8 11  1  0  0  0  0
  9 19  1  0  0  0  0
 11 10  1  6  0  0  0
 12 20  2  0  0  0  0
 12 19  1  0  0  0  0
 13 20  1  0  0  0  0
 14 15  1  0  0  0  0
 18 19  2  0  0  0  0
M  CHG  1  21  -1
M  END
>  <CHROM.1>
51.78518305,53.35209816,-174.16709255,-169.54294841,127.69923468,29.47890936
-2.97913604,106.52670544,2.75661377,0.43093541,3.02346259

>  <Name>
ligand

>  <RI>
0

>  <Rbt.Current_Directory>
/home/itssahil/PROJECTS/Mol_Feturizer/New_Systems/rnas/4XW7

>  <Rbt.Executable>
rbdock ($Id: //depot/dev/client3/rdock/2013.1/src/exe/rbdock.cxx#4 $)

>  <Rbt.Library>
libRbt.so (2013.1, Build901 2013/11/27)

>  <Rbt.Parameter_File>
/export/apps/rDock/src/rDock_2013.1_src/data/scripts/dock_solv.prm

>  <Rbt.Receptor>
prm/pocket_docking_3.prm

>  <SCORE>
-6.42307

>  <SCORE.INTER>
-5.90143

>  <SCORE.INTER.CONST>
1

>  <SCORE.INTER.POLAR>
0

>  <SCORE.INTER.ROT>
5

>  <SCORE.INTER.SOLV>
10.4203

>  <SCORE.INTER.VDW>
-14.3411

>  <SCORE.INTER.norm>
-0.268247

>  <SCORE.INTRA>
-0.521646

>  <SCORE.INTRA.DIHEDRAL>
-0.341564

>  <SCORE.INTRA.DIHEDRAL.0>
2.61549

>  <SCORE.INTRA.POLAR>
0

>  <SCORE.INTRA.POLAR.0>
0

>  <SCORE.INTRA.REPUL>
0

>  <SCORE.INTRA.REPUL.0>
0

>  <SCORE.INTRA.SOLV>
0.352327

>  <SCORE.INTRA.SOLV.lig_0>
-73.766

>  <SCORE.INTRA.VDW>
-0.527027

>  <SCORE.INTRA.VDW.0>
-1.95055

>  <SCORE.INTRA.norm>
-0.0237112

>  <SCORE.RESTR>
0

>  <SCORE.RESTR.CAVITY>
0

>  <SCORE.RESTR.norm>
0

>  <SCORE.SYSTEM>
0

>  <SCORE.SYSTEM.CONST>
0

>  <SCORE.SYSTEM.DIHEDRAL>
0

>  <SCORE.SYSTEM.SOLV>
0

>  <SCORE.SYSTEM.norm>
0

>  <SCORE.heavy>
22

>  <SCORE.norm>
-0.291958

>  <RMSD>
6.597

$$$$
ligand
 OpenBabel11021811513D
libRbt.so/2013.1/901 2013/11/27
 22 23  0  0  0  0  0  0  0  0999 V2000
   28.1978   -3.2748  105.8226 N   0  0  0  0  0  0  0  0  0  0  0  0
   30.4636   -0.7295  106.1348 C   0  0  1  0  0  0  0  0  0  0  0  0
   30.0314   -1.8895  105.3419 O   0  0  0  0  0  0  0  0  0  0  0  0
   32.9018   -2.8888  108.1188 P   0  0  2  0  0  0  0  0  0  0  0  0
   28.5808   -1.9794  105.4595 C   0  0  2  0  0  0  0  0  0  0  0  0
   28.0857   -5.1832  106.8982 N   0  0  0  0  0  0  0  0  0  0  0  0
   26.9157   -0.4214  106.1787 O   0  0  0  0  0  0  0  0  0  0  0  0
   28.1815   -1.0151  106.5034 C   0  0  2  0  0  0  0  0  0  0  0  0
   24.9248   -6.1946  105.4529 N   0  0  0  0  0  0  0  0  0  0  0  0
   28.9481    1.0076  105.5213 O   0  0  0  0  0  0  0  0  0  0  0  0
   29.2431   -0.0026  106.5110 C   0  0  2  0  0  0  0  0  0  0  0  0
   27.1980   -5.2305  105.8859 C   0  0  0  0  0  0  0  0  0  0  0  0
   26.4894   -3.6600  104.0564 N   0  0  0  0  0  0  0  0  0  0  0  0
   32.1801   -2.0812  106.9913 O   0  0  0  0  0  0  0  0  0  0  0  0
   31.1710   -1.1895  107.3549 C   0  0  0  0  0  0  0  0  0  0  0  0
   34.1385   -3.6766  107.5122 O   0  0  0  0  0  0  0  0  0  0  0  0
   28.6921   -3.9736  106.8452 C   0  0  0  0  0  0  0  0  0  0  0  0
   26.7873   -7.5049  105.4026 O   0  0  0  0  0  0  0  0  0  0  0  0
   26.3043   -6.3867  105.5624 C   0  0  0  0  0  0  0  0  0  0  0  0
   27.2586   -4.0293  105.1943 C   0  0  0  0  0  0  0  0  0  0  0  0
   31.9660   -3.8083  108.8043 O   0  5  0  0  0  0  0  0  0  0  0  0
   33.3303   -1.9997  109.2323 O   0  0  0  0  0  0  0  0  0  0  0  0
  1 17  1  0  0  0  0
  1 20  1  0  0  0  0
  2 15  1  1  0  0  0
  2  3  1  0  0  0  0
  2 11  1  0  0  0  0
  3  5  1  0  0  0  0
  4 16  1  6  0  0  0
  4 21  1  0  0  0  0
  4 22  2  0  0  0  0
  4 14  1  0  0  0  0
  5  1  1  1  0  0  0
  5  8  1  0  0  0  0
  6 17  2  0  0  0  0
  6 12  1  0  0  0  0
  8  7  1  6  0  0  0
  8 11  1  0  0  0  0
  9 19  1  0  0  0  0
 11 10  1  6  0  0  0
 12 20  2  0  0  0  0
 12 19  1  0  0  0  0
 13 20  1  0  0  0  0
 14 15  1  0  0  0  0
 18 19  2  0  0  0  0
M  CHG  1  21  -1
M  END
>  <CHROM.1>
51.01236607,52.25007407,-171.97152551,-169.62179866,125.94763331,29.48380148
-2.95557267,106.52672283,2.76296139,0.43012038,3.02044648

>  <Name>
ligand

>  <RI>
0

>  <Rbt.Current_Directory>
/home/itssahil/PROJECTS/Mol_Feturizer/New_Systems/rnas/4XW7

>  <Rbt.Executable>
rbdock ($Id: //depot/dev/client3/rdock/2013.1/src/exe/rbdock.cxx#4 $)

>  <Rbt.Library>
libRbt.so (2013.1, Build901 2013/11/27)

>  <Rbt.Parameter_File>
/export/apps/rDock/src/rDock_2013.1_src/data/scripts/dock_solv.prm

>  <Rbt.Receptor>
prm/pocket_docking_3.prm

>  <SCORE>
-6.42718

>  <SCORE.INTER>
-5.93222

>  <SCORE.INTER.CONST>
1

>  <SCORE.INTER.POLAR>
0

>  <SCORE.INTER.ROT>
5

>  <SCORE.INTER.SOLV>
10.5485

>  <SCORE.INTER.VDW>
-14.4043

>  <SCORE.INTER.norm>
-0.269646

>  <SCORE.INTRA>
-0.494962

>  <SCORE.INTRA.DIHEDRAL>
-0.273752

>  <SCORE.INTRA.DIHEDRAL.0>
2.61549

>  <SCORE.INTRA.POLAR>
0

>  <SCORE.INTRA.POLAR.0>
0

>  <SCORE.INTRA.REPUL>
0

>  <SCORE.INTRA.REPUL.0>
0

>  <SCORE.INTRA.SOLV>
0.37632

>  <SCORE.INTRA.SOLV.lig_0>
-73.766

>  <SCORE.INTRA.VDW>
-0.546246

>  <SCORE.INTRA.VDW.0>
-1.95055

>  <SCORE.INTRA.norm>
-0.0224983

>  <SCORE.RESTR>
0

>  <SCORE.RESTR.CAVITY>
0

>  <SCORE.RESTR.norm>
0

>  <SCORE.SYSTEM>
0

>  <SCORE.SYSTEM.CONST>
0

>  <SCORE.SYSTEM.DIHEDRAL>
0

>  <SCORE.SYSTEM.SOLV>
0

>  <SCORE.SYSTEM.norm>
0

>  <SCORE.heavy>
22

>  <SCORE.norm>
-0.292145

>  <RMSD>
6.597

$$$$
ligand
 OpenBabel11021811513D
libRbt.so/2013.1/901 2013/11/27
 22 23  0  0  0  0  0  0  0  0999 V2000
   33.0296   -3.0677  108.1414 N   0  0  0  0  0  0  0  0  0  0  0  0
   30.7857   -0.5960  107.3896 C   0  0  1  0  0  0  0  0  0  0  0  0
   32.1476   -1.1117  107.1884 O   0  0  0  0  0  0  0  0  0  0  0  0
   29.1061    1.4270  110.1628 P   0  0  2  0  0  0  0  0  0  0  0  0
   32.0742   -2.5667  107.2511 C   0  0  2  0  0  0  0  0  0  0  0  0
   34.7781   -4.1321  108.9297 N   0  0  0  0  0  0  0  0  0  0  0  0
   30.2503   -4.1039  107.0860 O   0  0  0  0  0  0  0  0  0  0  0  0
   30.7140   -2.9010  107.7170 C   0  0  2  0  0  0  0  0  0  0  0  0
   34.9301   -2.3848  112.0670 N   0  0  0  0  0  0  0  0  0  0  0  0
   29.4240   -1.9427  105.9674 O   0  0  0  0  0  0  0  0  0  0  0  0
   29.8858   -1.7558  107.3235 C   0  0  2  0  0  0  0  0  0  0  0  0
   34.1707   -3.5191  109.9642 C   0  0  0  0  0  0  0  0  0  0  0  0
   32.1394   -2.0647  110.2362 N   0  0  0  0  0  0  0  0  0  0  0  0
   29.4281    0.6419  108.8497 O   0  0  0  0  0  0  0  0  0  0  0  0
   30.6825    0.0449  108.7235 C   0  0  0  0  0  0  0  0  0  0  0  0
   30.1068    2.6482  110.3215 O   0  0  0  0  0  0  0  0  0  0  0  0
   34.0637   -3.8443  107.8159 C   0  0  0  0  0  0  0  0  0  0  0  0
   34.7177   -4.6504  111.9633 O   0  0  0  0  0  0  0  0  0  0  0  0
   34.6180   -3.5676  111.3917 C   0  0  0  0  0  0  0  0  0  0  0  0
   33.0604   -2.8420  109.4810 C   0  0  0  0  0  0  0  0  0  0  0  0
   29.1547    0.5386  111.3458 O   0  5  0  0  0  0  0  0  0  0  0  0
   27.6922    1.8902  110.1840 O   0  0  0  0  0  0  0  0  0  0  0  0
  1 17  1  0  0  0  0
  1 20  1  0  0  0  0
  2 15  1  1  0  0  0
  2  3  1  0  0  0  0
  2 11  1  0  0  0  0
  3  5  1  0  0  0  0
  4 16  1  1  0  0  0
  4 21  1  0  0  0  0
  4 22  2  0  0  0  0
  4 14  1  0  0  0  0
  5  1  1  1  0  0  0
  5  8  1  0  0  0  0
  6 17  2  0  0  0  0
  6 12  1  0  0  0  0
  8  7  1  6  0  0  0
  8 11  1  0  0  0  0
  9 19  1  0  0  0  0
 11 10  1  6  0  0  0
 12 20  2  0  0  0  0
 12 19  1  0  0  0  0
 13 20  1  0  0  0  0
 14 15  1  0  0  0  0
 18 19  2  0  0  0  0
M  CHG  1  21  -1
M  END
>  <CHROM.1>
-115.47411344,174.31971851,61.78902853,-177.90460685,121.15193346,31.43759565
-1.46744310,109.13214484,0.36376800,0.70030823,-2.14936332

>  <Name>
ligand

>  <RI>
0

>  <Rbt.Current_Directory>
/home/itssahil/PROJECTS/Mol_Feturizer/New_Systems/rnas/4XW7

>  <Rbt.Executable>
rbdock ($Id: //depot/dev/client3/rdock/2013.1/src/exe/rbdock.cxx#4 $)

>  <Rbt.Library>
libRbt.so (2013.1, Build901 2013/11/27)

>  <Rbt.Parameter_File>
/export/apps/rDock/src/rDock_2013.1_src/data/scripts/dock_solv.prm

>  <Rbt.Receptor>
prm/pocket_docking_8.prm

>  <SCORE>
-7.35682

>  <SCORE.INTER>
-8.79978

>  <SCORE.INTER.CONST>
1

>  <SCORE.INTER.POLAR>
0

>  <SCORE.INTER.ROT>
5

>  <SCORE.INTER.SOLV>
11.0566

>  <SCORE.INTER.VDW>
-16.4854

>  <SCORE.INTER.norm>
-0.39999

>  <SCORE.INTRA>
1.44296

>  <SCORE.INTRA.DIHEDRAL>
-1.00088

>  <SCORE.INTRA.DIHEDRAL.0>
2.61549

>  <SCORE.INTRA.POLAR>
0

>  <SCORE.INTRA.POLAR.0>
0

>  <SCORE.INTRA.REPUL>
0

>  <SCORE.INTRA.REPUL.0>
0

>  <SCORE.INTRA.SOLV>
4.71038

>  <SCORE.INTRA.SOLV.lig_0>
-73.766

>  <SCORE.INTRA.VDW>
-0.411789

>  <SCORE.INTRA.VDW.0>
-1.95055

>  <SCORE.INTRA.norm>
0.065589

>  <SCORE.RESTR>
0

>  <SCORE.RESTR.CAVITY>
0

>  <SCORE.RESTR.norm>
0

>  <SCORE.SYSTEM>
0

>  <SCORE.SYSTEM.CONST>
0

>  <SCORE.SYSTEM.DIHEDRAL>
0

>  <SCORE.SYSTEM.SOLV>
0

>  <SCORE.SYSTEM.norm>
0

>  <SCORE.heavy>
22

>  <SCORE.norm>
-0.334401

>  <RMSD>
6.599

$$$$
ligand
 OpenBabel11021811513D
libRbt.so/2013.1/901 2013/11/27
 22 23  0  0  0  0  0  0  0  0999 V2000
   28.2000   -3.2848  105.8439 N   0  0  0  0  0  0  0  0  0  0  0  0
   30.4680   -0.7404  106.1477 C   0  0  1  0  0  0  0  0  0  0  0  0
   30.0319   -1.8998  105.3559 O   0  0  0  0  0  0  0  0  0  0  0  0
   32.9187   -2.8994  108.1148 P   0  0  2  0  0  0  0  0  0  0  0  0
   28.5818   -1.9893  105.4799 C   0  0  2  0  0  0  0  0  0  0  0  0
   28.1041   -5.2004  106.9083 N   0  0  0  0  0  0  0  0  0  0  0  0
   26.9205   -0.4312  106.2075 O   0  0  0  0  0  0  0  0  0  0  0  0
   28.1875   -1.0255  106.5262 C   0  0  2  0  0  0  0  0  0  0  0  0
   24.9001   -6.1769  105.5243 N   0  0  0  0  0  0  0  0  0  0  0  0
   28.9504    0.9975  105.5421 O   0  0  0  0  0  0  0  0  0  0  0  0
   29.2495   -0.0134  106.5298 C   0  0  2  0  0  0  0  0  0  0  0  0
   27.1892   -5.2343  105.9199 C   0  0  0  0  0  0  0  0  0  0  0  0
   26.4422   -3.6457  104.1216 N   0  0  0  0  0  0  0  0  0  0  0  0
   32.1976   -2.0817  106.9943 O   0  0  0  0  0  0  0  0  0  0  0  0
   31.1807   -1.2015  107.3643 C   0  0  0  0  0  0  0  0  0  0  0  0
   34.1516   -3.6871  107.5006 O   0  0  0  0  0  0  0  0  0  0  0  0
   28.7170   -3.9943  106.8477 C   0  0  0  0  0  0  0  0  0  0  0  0
   26.7489   -7.5053  105.4466 O   0  0  0  0  0  0  0  0  0  0  0  0
   26.2794   -6.3823  105.6123 C   0  0  0  0  0  0  0  0  0  0  0  0
   27.2392   -4.0285  105.2357 C   0  0  0  0  0  0  0  0  0  0  0  0
   31.9811   -3.8206  108.7957 O   0  5  0  0  0  0  0  0  0  0  0  0
   33.3521   -2.0195  109.2337 O   0  0  0  0  0  0  0  0  0  0  0  0
  1 17  1  0  0  0  0
  1 20  1  0  0  0  0
  2 15  1  1  0  0  0
  2  3  1  0  0  0  0
  2 11  1  0  0  0  0
  3  5  1  0  0  0  0
  4 16  1  6  0  0  0
  4 21  1  0  0  0  0
  4 22  2  0  0  0  0
  4 14  1  0  0  0  0
  5  1  1  1  0  0  0
  5  8  1  0  0  0  0
  6 17  2  0  0  0  0
  6 12  1  0  0  0  0
  8  7  1  6  0  0  0
  8 11  1  0  0  0  0
  9 19  1  0  0  0  0
 11 10  1  6  0  0  0
 12 20  2  0  0  0  0
 12 19  1  0  0  0  0
 13 20  1  0  0  0  0
 14 15  1  0  0  0  0
 18 19  2  0  0  0  0
M  CHG  1  21  -1
M  END
>  <CHROM.1>
49.62089082,52.91085320,-172.76059924,-169.06398363,126.77926602,29.48508895
-2.96283292,106.54597922,2.76662206,0.42186343,3.01794696

>  <Name>
ligand

>  <RI>
0

>  <Rbt.Current_Directory>
/home/itssahil/PROJECTS/Mol_Feturizer/New_Systems/rnas/4XW7

>  <Rbt.Executable>
rbdock ($Id: //depot/dev/client3/rdock/2013.1/src/exe/rbdock.cxx#4 $)

>  <Rbt.Library>
libRbt.so (2013.1, Build901 2013/11/27)

>  <Rbt.Parameter_File>
/export/apps/rDock/src/rDock_2013.1_src/data/scripts/dock_solv.prm

>  <Rbt.Receptor>
prm/pocket_docking_3.prm

>  <SCORE>
-6.43801

>  <SCORE.INTER>
-5.95897

>  <SCORE.INTER.CONST>
1

>  <SCORE.INTER.POLAR>
0

>  <SCORE.INTER.ROT>
5

>  <SCORE.INTER.SOLV>
10.5987

>  <SCORE.INTER.VDW>
-14.4389

>  <SCORE.INTER.norm>
-0.270862

>  <SCORE.INTRA>
-0.479043

>  <SCORE.INTRA.DIHEDRAL>
-0.259051

>  <SCORE.INTRA.DIHEDRAL.0>
2.61549

>  <SCORE.INTRA.POLAR>
0

>  <SCORE.INTRA.POLAR.0>
0

>  <SCORE.INTRA.REPUL>
0

>  <SCORE.INTRA.REPUL.0>
0

>  <SCORE.INTRA.SOLV>
0.432374

>  <SCORE.INTRA.SOLV.lig_0>
-73.766

>  <SCORE.INTRA.VDW>
-0.565704

>  <SCORE.INTRA.VDW.0>
-1.95055

>  <SCORE.INTRA.norm>
-0.0217747

>  <SCORE.RESTR>
0

>  <SCORE.RESTR.CAVITY>
0

>  <SCORE.RESTR.norm>
0

>  <SCORE.SYSTEM>
0

>  <SCORE.SYSTEM.CONST>
0

>  <SCORE.SYSTEM.DIHEDRAL>
0

>  <SCORE.SYSTEM.SOLV>
0

>  <SCORE.SYSTEM.norm>
0

>  <SCORE.heavy>
22

>  <SCORE.norm>
-0.292637

>  <RMSD>
6.600

$$$$
ligand
 OpenBabel11021811513D
libRbt.so/2013.1/901 2013/11/27
 22 23  0  0  0  0  0  0  0  0999 V2000
   28.1039   -3.2026  105.2973 N   0  0  0  0  0  0  0  0  0  0  0  0
   30.1962   -0.5668  105.9177 C   0  0  1  0  0  0  0  0  0  0  0  0
   29.8893   -1.7010  105.0340 O   0  0  0  0  0  0  0  0  0  0  0  0
   32.7189   -2.5549  107.9849 P   0  0  2  0  0  0  0  0  0  0  0  0
   28.4412   -1.8710  105.0333 C   0  0  2  0  0  0  0  0  0  0  0  0
   27.9612   -5.1507  106.2955 N   0  0  0  0  0  0  0  0  0  0  0  0
   26.6435   -0.4428  105.7006 O   0  0  0  0  0  0  0  0  0  0  0  0
   27.9121   -0.9886  106.0917 C   0  0  2  0  0  0  0  0  0  0  0  0
   26.5513   -7.6185  105.3887 N   0  0  0  0  0  0  0  0  0  0  0  0
   28.6377    1.1225  105.2793 O   0  0  0  0  0  0  0  0  0  0  0  0
   28.9128    0.0746  106.2349 C   0  0  2  0  0  0  0  0  0  0  0  0
   27.2614   -5.2264  105.1469 C   0  0  0  0  0  0  0  0  0  0  0  0
   26.7492   -3.6481  103.2595 N   0  0  0  0  0  0  0  0  0  0  0  0
   31.9541   -1.8221  106.8349 O   0  0  0  0  0  0  0  0  0  0  0  0
   30.8342   -1.0581  107.1635 C   0  0  0  0  0  0  0  0  0  0  0  0
   33.9689   -3.3326  107.3927 O   0  0  0  0  0  0  0  0  0  0  0  0
   28.4730   -3.8993  106.3729 C   0  0  0  0  0  0  0  0  0  0  0  0
   25.9087   -6.3768  103.5905 O   0  0  0  0  0  0  0  0  0  0  0  0
   26.5260   -6.4322  104.6511 C   0  0  0  0  0  0  0  0  0  0  0  0
   27.3437   -4.0005  104.5025 C   0  0  0  0  0  0  0  0  0  0  0  0
   31.8233   -3.4694  108.7283 O   0  5  0  0  0  0  0  0  0  0  0  0
   33.1384   -1.6030  109.0488 O   0  0  0  0  0  0  0  0  0  0  0  0
  1 17  1  0  0  0  0
  1 20  1  0  0  0  0
  2 15  1  1  0  0  0
  2  3  1  0  0  0  0
  2 11  1  0  0  0  0
  3  5  1  0  0  0  0
  4 16  1  6  0  0  0
  4 21  1  0  0  0  0
  4 22  2  0  0  0  0
  4 14  1  0  0  0  0
  5  1  1  1  0  0  0
  5  8  1  0  0  0  0
  6 17  2  0  0  0  0
  6 12  1  0  0  0  0
  8  7  1  6  0  0  0
  8 11  1  0  0  0  0
  9 19  1  0  0  0  0
 11 10  1  6  0  0  0
 12 20  2  0  0  0  0
 12 19  1  0  0  0  0
 13 20  1  0  0  0  0
 14 15  1  0  0  0  0
 18 19  2  0  0  0  0
M  CHG  1  21  -1
M  END
>  <CHROM.1>
56.63855590,55.12120284,-178.75561811,-174.60454128,-1.24813431,29.37548100
-2.82349100,106.10187622,2.69651616,0.52992858,3.09519110

>  <Name>
ligand

>  <RI>
0

>  <Rbt.Current_Directory>
/home/itssahil/PROJECTS/Mol_Feturizer/New_Systems/rnas/4XW7

>  <Rbt.Executable>
rbdock ($Id: //depot/dev/client3/rdock/2013.1/src/exe/rbdock.cxx#4 $)

>  <Rbt.Library>
libRbt.so (2013.1, Build901 2013/11/27)

>  <Rbt.Parameter_File>
/export/apps/rDock/src/rDock_2013.1_src/data/scripts/dock_solv.prm

>  <Rbt.Receptor>
prm/pocket_docking_5.prm

>  <SCORE>
-7.14425

>  <SCORE.INTER>
-6.42491

>  <SCORE.INTER.CONST>
1

>  <SCORE.INTER.POLAR>
0

>  <SCORE.INTER.ROT>
5

>  <SCORE.INTER.SOLV>
10.1138

>  <SCORE.INTER.VDW>
-14.5879

>  <SCORE.INTER.norm>
-0.292041

>  <SCORE.INTRA>
-0.719347

>  <SCORE.INTRA.DIHEDRAL>
-0.911383

>  <SCORE.INTRA.DIHEDRAL.0>
2.61549

>  <SCORE.INTRA.POLAR>
0

>  <SCORE.INTRA.POLAR.0>
0

>  <SCORE.INTRA.REPUL>
0

>  <SCORE.INTRA.REPUL.0>
0

>  <SCORE.INTRA.SOLV>
0.0625007

>  <SCORE.INTRA.SOLV.lig_0>
-73.766

>  <SCORE.INTRA.VDW>
-0.294906

>  <SCORE.INTRA.VDW.0>
-1.95055

>  <SCORE.INTRA.norm>
-0.0326976

>  <SCORE.RESTR>
0

>  <SCORE.RESTR.CAVITY>
0

>  <SCORE.RESTR.norm>
0

>  <SCORE.SYSTEM>
0

>  <SCORE.SYSTEM.CONST>
0

>  <SCORE.SYSTEM.DIHEDRAL>
0

>  <SCORE.SYSTEM.SOLV>
0

>  <SCORE.SYSTEM.norm>
0

>  <SCORE.heavy>
22

>  <SCORE.norm>
-0.324739

>  <RMSD>
6.601

$$$$
ligand
 OpenBabel11021811513D
libRbt.so/2013.1/901 2013/11/27
 22 23  0  0  0  0  0  0  0  0999 V2000
   28.1726   -3.3446  105.8234 N   0  0  0  0  0  0  0  0  0  0  0  0
   30.4467   -0.8074  106.1414 C   0  0  1  0  0  0  0  0  0  0  0  0
   30.0115   -1.9651  105.3466 O   0  0  0  0  0  0  0  0  0  0  0  0
   32.9253   -2.9256  108.1245 P   0  0  2  0  0  0  0  0  0  0  0  0
   28.5605   -2.0501  105.4623 C   0  0  2  0  0  0  0  0  0  0  0  0
   28.0568   -5.2561  106.8932 N   0  0  0  0  0  0  0  0  0  0  0  0
   26.8998   -0.4872  106.1810 O   0  0  0  0  0  0  0  0  0  0  0  0
   28.1631   -1.0856  106.5067 C   0  0  2  0  0  0  0  0  0  0  0  0
   24.8871   -6.2348  105.4122 N   0  0  0  0  0  0  0  0  0  0  0  0
   28.9379    0.9355  105.5279 O   0  0  0  0  0  0  0  0  0  0  0  0
   29.2282   -0.0768  106.5168 C   0  0  2  0  0  0  0  0  0  0  0  0
   27.1622   -5.2948  105.8865 C   0  0  0  0  0  0  0  0  0  0  0  0
   26.4505   -3.7140  104.0671 N   0  0  0  0  0  0  0  0  0  0  0  0
   32.1742   -2.1460  106.9965 O   0  0  0  0  0  0  0  0  0  0  0  0
   31.1509   -1.2712  107.3619 C   0  0  0  0  0  0  0  0  0  0  0  0
   34.1610   -3.7084  107.5096 O   0  0  0  0  0  0  0  0  0  0  0  0
   28.6696   -4.0497  106.8403 C   0  0  0  0  0  0  0  0  0  0  0  0
   26.7296   -7.5736  105.4448 O   0  0  0  0  0  0  0  0  0  0  0  0
   26.2599   -6.4449  105.5649 C   0  0  0  0  0  0  0  0  0  0  0  0
   27.2250   -4.0916  105.1987 C   0  0  0  0  0  0  0  0  0  0  0  0
   32.0130   -3.8448  108.8415 O   0  5  0  0  0  0  0  0  0  0  0  0
   33.3619   -2.0127  109.2154 O   0  0  0  0  0  0  0  0  0  0  0  0
  1 17  1  0  0  0  0
  1 20  1  0  0  0  0
  2 15  1  1  0  0  0
  2  3  1  0  0  0  0
  2 11  1  0  0  0  0
  3  5  1  0  0  0  0
  4 16  1  6  0  0  0
  4 21  1  0  0  0  0
  4 22  2  0  0  0  0
  4 14  1  0  0  0  0
  5  1  1  1  0  0  0
  5  8  1  0  0  0  0
  6 17  2  0  0  0  0
  6 12  1  0  0  0  0
  8  7  1  6  0  0  0
  8 11  1  0  0  0  0
  9 19  1  0  0  0  0
 11 10  1  6  0  0  0
 12 20  2  0  0  0  0
 12 19  1  0  0  0  0
 13 20  1  0  0  0  0
 14 15  1  0  0  0  0
 18 19  2  0  0  0  0
M  CHG  1  21  -1
M  END
>  <CHROM.1>
50.52547895,53.38937877,-172.64306603,-171.33763948,128.51876058,29.47142102
-3.01454086,106.53074014,2.76771482,0.42781674,3.01951520

>  <Name>
ligand

>  <RI>
0

>  <Rbt.Current_Directory>
/home/itssahil/PROJECTS/Mol_Feturizer/New_Systems/rnas/4XW7

>  <Rbt.Executable>
rbdock ($Id: //depot/dev/client3/rdock/2013.1/src/exe/rbdock.cxx#4 $)

>  <Rbt.Library>
libRbt.so (2013.1, Build901 2013/11/27)

>  <Rbt.Parameter_File>
/export/apps/rDock/src/rDock_2013.1_src/data/scripts/dock_solv.prm

>  <Rbt.Receptor>
prm/pocket_docking_3.prm

>  <SCORE>
-6.33567

>  <SCORE.INTER>
-5.76379

>  <SCORE.INTER.CONST>
1

>  <SCORE.INTER.POLAR>
0

>  <SCORE.INTER.ROT>
5

>  <SCORE.INTER.SOLV>
10.3668

>  <SCORE.INTER.VDW>
-14.2315

>  <SCORE.INTER.norm>
-0.26199

>  <SCORE.INTRA>
-0.57188

>  <SCORE.INTRA.DIHEDRAL>
-0.459379

>  <SCORE.INTRA.DIHEDRAL.0>
2.61549

>  <SCORE.INTRA.POLAR>
0

>  <SCORE.INTRA.POLAR.0>
0

>  <SCORE.INTRA.REPUL>
0

>  <SCORE.INTRA.REPUL.0>
0

>  <SCORE.INTRA.SOLV>
0.355847

>  <SCORE.INTRA.SOLV.lig_0>
-73.766

>  <SCORE.INTRA.VDW>
-0.520113

>  <SCORE.INTRA.VDW.0>
-1.95055

>  <SCORE.INTRA.norm>
-0.0259945

>  <SCORE.RESTR>
0

>  <SCORE.RESTR.CAVITY>
0

>  <SCORE.RESTR.norm>
0

>  <SCORE.SYSTEM>
0

>  <SCORE.SYSTEM.CONST>
0

>  <SCORE.SYSTEM.DIHEDRAL>
0

>  <SCORE.SYSTEM.SOLV>
0

>  <SCORE.SYSTEM.norm>
0

>  <SCORE.heavy>
22

>  <SCORE.norm>
-0.287985

>  <RMSD>
6.602

$$$$
ligand
 OpenBabel11021811513D
libRbt.so/2013.1/901 2013/11/27
 22 23  0  0  0  0  0  0  0  0999 V2000
   28.3368   -3.3257  105.9560 N   0  0  0  0  0  0  0  0  0  0  0  0
   30.5087   -0.6942  106.2168 C   0  0  1  0  0  0  0  0  0  0  0  0
   30.1241   -1.8892  105.4517 O   0  0  0  0  0  0  0  0  0  0  0  0
   32.9959   -2.7281  108.2659 P   0  0  2  0  0  0  0  0  0  0  0  0
   28.6767   -2.0275  105.5616 C   0  0  2  0  0  0  0  0  0  0  0  0
   28.3495   -5.2439  107.0201 N   0  0  0  0  0  0  0  0  0  0  0  0
   26.9519   -0.5114  106.2278 O   0  0  0  0  0  0  0  0  0  0  0  0
   28.2353   -1.0511  106.5769 C   0  0  2  0  0  0  0  0  0  0  0  0
   25.0456   -6.2733  106.0936 N   0  0  0  0  0  0  0  0  0  0  0  0
   28.9377    0.9712  105.5472 O   0  0  0  0  0  0  0  0  0  0  0  0
   29.2604   -0.0016  106.5652 C   0  0  2  0  0  0  0  0  0  0  0  0
   27.3476   -5.2809  106.1202 C   0  0  0  0  0  0  0  0  0  0  0  0
   26.4297   -3.6930  104.4022 N   0  0  0  0  0  0  0  0  0  0  0  0
   32.2765   -1.9467  107.1187 O   0  0  0  0  0  0  0  0  0  0  0  0
   31.2223   -1.0968  107.4535 C   0  0  0  0  0  0  0  0  0  0  0  0
   33.4955   -1.7142  109.3796 O   0  0  0  0  0  0  0  0  0  0  0  0
   28.9478   -4.0344  106.9062 C   0  0  0  0  0  0  0  0  0  0  0  0
   26.8706   -7.5204  105.5438 O   0  0  0  0  0  0  0  0  0  0  0  0
   26.4193   -6.4332  105.8949 C   0  0  0  0  0  0  0  0  0  0  0  0
   27.3280   -4.0735  105.4372 C   0  0  0  0  0  0  0  0  0  0  0  0
   34.1162   -3.5415  107.7419 O   0  5  0  0  0  0  0  0  0  0  0  0
   32.1082   -3.7687  108.8519 O   0  0  0  0  0  0  0  0  0  0  0  0
  1 17  1  0  0  0  0
  1 20  1  0  0  0  0
  2 15  1  1  0  0  0
  2  3  1  0  0  0  0
  2 11  1  0  0  0  0
  3  5  1  0  0  0  0
  4 16  1  1  0  0  0
  4 21  1  0  0  0  0
  4 22  2  0  0  0  0
  4 14  1  0  0  0  0
  5  1  1  1  0  0  0
  5  8  1  0  0  0  0
  6 17  2  0  0  0  0
  6 12  1  0  0  0  0
  8  7  1  6  0  0  0
  8 11  1  0  0  0  0
  9 19  1  0  0  0  0
 11 10  1  6  0  0  0
 12 20  2  0  0  0  0
 12 19  1  0  0  0  0
 13 20  1  0  0  0  0
 14 15  1  0  0  0  0
 18 19  2  0  0  0  0
M  CHG  1  21  -1
M  END
>  <CHROM.1>
43.18460973,53.05988995,-54.34505529,-167.94210582,119.03006035,29.57286028
-2.93324621,106.68440010,2.74220564,0.42406188,2.99263877

>  <Name>
ligand

>  <RI>
0

>  <Rbt.Current_Directory>
/home/itssahil/PROJECTS/Mol_Feturizer/New_Systems/rnas/4XW7

>  <Rbt.Executable>
rbdock ($Id: //depot/dev/client3/rdock/2013.1/src/exe/rbdock.cxx#4 $)

>  <Rbt.Library>
libRbt.so (2013.1, Build901 2013/11/27)

>  <Rbt.Parameter_File>
/export/apps/rDock/src/rDock_2013.1_src/data/scripts/dock_solv.prm

>  <Rbt.Receptor>
prm/pocket_docking_3.prm

>  <SCORE>
-4.50574

>  <SCORE.INTER>
-3.65936

>  <SCORE.INTER.CONST>
1

>  <SCORE.INTER.POLAR>
0

>  <SCORE.INTER.ROT>
5

>  <SCORE.INTER.SOLV>
14.9092

>  <SCORE.INTER.VDW>
-14.3426

>  <SCORE.INTER.norm>
-0.166334

>  <SCORE.INTRA>
-0.846386

>  <SCORE.INTRA.DIHEDRAL>
-0.231513

>  <SCORE.INTRA.DIHEDRAL.0>
2.61549

>  <SCORE.INTRA.POLAR>
0

>  <SCORE.INTRA.POLAR.0>
0

>  <SCORE.INTRA.REPUL>
0

>  <SCORE.INTRA.REPUL.0>
0

>  <SCORE.INTRA.SOLV>
-0.0105641

>  <SCORE.INTRA.SOLV.lig_0>
-73.766

>  <SCORE.INTRA.VDW>
-0.725347

>  <SCORE.INTRA.VDW.0>
-1.95055

>  <SCORE.INTRA.norm>
-0.0384721

>  <SCORE.RESTR>
0

>  <SCORE.RESTR.CAVITY>
0

>  <SCORE.RESTR.norm>
0

>  <SCORE.SYSTEM>
0

>  <SCORE.SYSTEM.CONST>
0

>  <SCORE.SYSTEM.DIHEDRAL>
0

>  <SCORE.SYSTEM.SOLV>
0

>  <SCORE.SYSTEM.norm>
0

>  <SCORE.heavy>
22

>  <SCORE.norm>
-0.204806

>  <RMSD>
6.604

$$$$
ligand
 OpenBabel11021811513D
libRbt.so/2013.1/901 2013/11/27
 22 23  0  0  0  0  0  0  0  0999 V2000
   29.1332   -3.7439  107.2546 N   0  0  0  0  0  0  0  0  0  0  0  0
   31.0987   -1.0191  106.6048 C   0  0  1  0  0  0  0  0  0  0  0  0
   30.3086   -2.1193  106.0334 O   0  0  0  0  0  0  0  0  0  0  0  0
   33.3916   -3.3533  108.5797 P   0  0  2  0  0  0  0  0  0  0  0  0
   29.2038   -2.3809  106.9483 C   0  0  2  0  0  0  0  0  0  0  0  0
   29.6917   -5.7492  107.9465 N   0  0  0  0  0  0  0  0  0  0  0  0
   28.2426   -1.1095  108.7306 O   0  0  0  0  0  0  0  0  0  0  0  0
   29.4711   -1.5944  108.1685 C   0  0  2  0  0  0  0  0  0  0  0  0
   28.0277   -8.2246  108.0417 N   0  0  0  0  0  0  0  0  0  0  0  0
   29.4748    0.6007  107.2603 O   0  0  0  0  0  0  0  0  0  0  0  0
   30.3146   -0.4794  107.7243 C   0  0  2  0  0  0  0  0  0  0  0  0
   28.4188   -5.8063  107.5089 C   0  0  0  0  0  0  0  0  0  0  0  0
   26.7927   -4.1625  106.5244 N   0  0  0  0  0  0  0  0  0  0  0  0
   32.1647   -2.6493  107.9137 O   0  0  0  0  0  0  0  0  0  0  0  0
   32.3960   -1.5377  107.1036 C   0  0  0  0  0  0  0  0  0  0  0  0
   34.5432   -3.5605  107.5078 O   0  0  0  0  0  0  0  0  0  0  0  0
   30.1163   -4.4737  107.7832 C   0  0  0  0  0  0  0  0  0  0  0  0
   26.4303   -6.9753  107.0044 O   0  0  0  0  0  0  0  0  0  0  0  0
   27.5536   -7.0276  107.4989 C   0  0  0  0  0  0  0  0  0  0  0  0
   28.0513   -4.5440  107.0658 C   0  0  0  0  0  0  0  0  0  0  0  0
   33.0015   -4.6391  109.2007 O   0  5  0  0  0  0  0  0  0  0  0  0
   33.8871   -2.5832  109.7525 O   0  0  0  0  0  0  0  0  0  0  0  0
  1 17  1  0  0  0  0
  1 20  1  0  0  0  0
  2 15  1  1  0  0  0
  2  3  1  0  0  0  0
  2 11  1  0  0  0  0
  3  5  1  0  0  0  0
  4 16  1  6  0  0  0
  4 21  1  0  0  0  0
  4 22  2  0  0  0  0
  4 14  1  0  0  0  0
  5  1  1  1  0  0  0
  5  8  1  0  0  0  0
  6 17  2  0  0  0  0
  6 12  1  0  0  0  0
  8  7  1  6  0  0  0
  8 11  1  0  0  0  0
  9 19  1  0  0  0  0
 11 10  1  6  0  0  0
 12 20  2  0  0  0  0
 12 19  1  0  0  0  0
 13 20  1  0  0  0  0
 14 15  1  0  0  0  0
 18 19  2  0  0  0  0
M  CHG  1  21  -1
M  END
>  <CHROM.1>
56.87923661,-49.98199422,-46.34097599,-178.84183908,3.63566681,30.33194326
-3.44585718,107.71310525,2.51948766,0.23428442,3.02528934

>  <Name>
ligand

>  <RI>
0

>  <Rbt.Current_Directory>
/home/itssahil/PROJECTS/Mol_Feturizer/New_Systems/rnas/4XW7

>  <Rbt.Executable>
rbdock ($Id: //depot/dev/client3/rdock/2013.1/src/exe/rbdock.cxx#4 $)

>  <Rbt.Library>
libRbt.so (2013.1, Build901 2013/11/27)

>  <Rbt.Parameter_File>
/export/apps/rDock/src/rDock_2013.1_src/data/scripts/dock_solv.prm

>  <Rbt.Receptor>
prm/pocket_docking_4.prm

>  <SCORE>
-7.7514

>  <SCORE.INTER>
-7.14223

>  <SCORE.INTER.CONST>
1

>  <SCORE.INTER.POLAR>
0

>  <SCORE.INTER.ROT>
5

>  <SCORE.INTER.SOLV>
12.0715

>  <SCORE.INTER.VDW>
-15.7186

>  <SCORE.INTER.norm>
-0.324647

>  <SCORE.INTRA>
-0.609166

>  <SCORE.INTRA.DIHEDRAL>
-0.465943

>  <SCORE.INTRA.DIHEDRAL.0>
2.61549

>  <SCORE.INTRA.POLAR>
0

>  <SCORE.INTRA.POLAR.0>
0

>  <SCORE.INTRA.REPUL>
0

>  <SCORE.INTRA.REPUL.0>
0

>  <SCORE.INTRA.SOLV>
0.517697

>  <SCORE.INTRA.SOLV.lig_0>
-73.766

>  <SCORE.INTRA.VDW>
-0.635042

>  <SCORE.INTRA.VDW.0>
-1.95055

>  <SCORE.INTRA.norm>
-0.0276893

>  <SCORE.RESTR>
0

>  <SCORE.RESTR.CAVITY>
0

>  <SCORE.RESTR.norm>
0

>  <SCORE.SYSTEM>
0

>  <SCORE.SYSTEM.CONST>
0

>  <SCORE.SYSTEM.DIHEDRAL>
0

>  <SCORE.SYSTEM.SOLV>
0

>  <SCORE.SYSTEM.norm>
0

>  <SCORE.heavy>
22

>  <SCORE.norm>
-0.352336

>  <RMSD>
6.605

$$$$
ligand
 OpenBabel11021811513D
libRbt.so/2013.1/901 2013/11/27
 22 23  0  0  0  0  0  0  0  0999 V2000
   29.1201   -3.9294  107.3178 N   0  0  0  0  0  0  0  0  0  0  0  0
   30.9430   -1.1405  106.5378 C   0  0  1  0  0  0  0  0  0  0  0  0
   30.2001   -2.2984  106.0196 O   0  0  0  0  0  0  0  0  0  0  0  0
   33.3710   -3.2876  108.5627 P   0  0  2  0  0  0  0  0  0  0  0  0
   29.1207   -2.5774  106.9594 C   0  0  2  0  0  0  0  0  0  0  0  0
   29.7962   -5.8877  108.0389 N   0  0  0  0  0  0  0  0  0  0  0  0
   28.1214   -1.2861  108.7061 O   0  0  0  0  0  0  0  0  0  0  0  0
   29.3648   -1.7327  108.1452 C   0  0  2  0  0  0  0  0  0  0  0  0
   27.1125   -7.8048  106.6378 N   0  0  0  0  0  0  0  0  0  0  0  0
   29.2508    0.4235  107.1548 O   0  0  0  0  0  0  0  0  0  0  0  0
   30.1477   -0.5964  107.6472 C   0  0  2  0  0  0  0  0  0  0  0  0
   28.4989   -6.0032  107.6947 C   0  0  0  0  0  0  0  0  0  0  0  0
   26.7508   -4.4522  106.7704 N   0  0  0  0  0  0  0  0  0  0  0  0
   32.1035   -2.6701  107.8872 O   0  0  0  0  0  0  0  0  0  0  0  0
   32.2701   -1.5767  107.0371 C   0  0  0  0  0  0  0  0  0  0  0  0
   34.4868   -3.5626  107.4685 O   0  0  0  0  0  0  0  0  0  0  0  0
   30.1629   -4.6059  107.8010 C   0  0  0  0  0  0  0  0  0  0  0  0
   27.4993   -7.7824  108.8824 O   0  0  0  0  0  0  0  0  0  0  0  0
   27.6790   -7.2518  107.7891 C   0  0  0  0  0  0  0  0  0  0  0  0
   28.0568   -4.7713  107.2345 C   0  0  0  0  0  0  0  0  0  0  0  0
   33.0357   -4.5226  109.3067 O   0  5  0  0  0  0  0  0  0  0  0  0
   33.8907   -2.4083  109.6448 O   0  0  0  0  0  0  0  0  0  0  0  0
  1 17  1  0  0  0  0
  1 20  1  0  0  0  0
  2 15  1  1  0  0  0
  2  3  1  0  0  0  0
  2 11  1  0  0  0  0
  3  5  1  0  0  0  0
  4 16  1  6  0  0  0
  4 21  1  0  0  0  0
  4 22  2  0  0  0  0
  4 14  1  0  0  0  0
  5  1  1  1  0  0  0
  5  8  1  0  0  0  0
  6 17  2  0  0  0  0
  6 12  1  0  0  0  0
  8  7  1  6  0  0  0
  8 11  1  0  0  0  0
  9 19  1  0  0  0  0
 11 10  1  6  0  0  0
 12 20  2  0  0  0  0
 12 19  1  0  0  0  0
 13 20  1  0  0  0  0
 14 15  1  0  0  0  0
 18 19  2  0  0  0  0
M  CHG  1  21  -1
M  END
>  <CHROM.1>
53.52499749,-49.71778985,-50.08811938,-178.73493932,-119.20213944,30.30298246
-3.55283009,107.76502856,2.46846897,0.22085379,2.98708696

>  <Name>
ligand

>  <RI>
0

>  <Rbt.Current_Directory>
/home/itssahil/PROJECTS/Mol_Feturizer/New_Systems/rnas/4XW7

>  <Rbt.Executable>
rbdock ($Id: //depot/dev/client3/rdock/2013.1/src/exe/rbdock.cxx#4 $)

>  <Rbt.Library>
libRbt.so (2013.1, Build901 2013/11/27)

>  <Rbt.Parameter_File>
/export/apps/rDock/src/rDock_2013.1_src/data/scripts/dock_solv.prm

>  <Rbt.Receptor>
prm/pocket_docking_4.prm

>  <SCORE>
-7.73519

>  <SCORE.INTER>
-6.91296

>  <SCORE.INTER.CONST>
1

>  <SCORE.INTER.POLAR>
0

>  <SCORE.INTER.ROT>
5

>  <SCORE.INTER.SOLV>
11.3629

>  <SCORE.INTER.VDW>
-15.3296

>  <SCORE.INTER.norm>
-0.314226

>  <SCORE.INTRA>
-0.822228

>  <SCORE.INTRA.DIHEDRAL>
-0.595357

>  <SCORE.INTRA.DIHEDRAL.0>
2.61549

>  <SCORE.INTRA.POLAR>
0

>  <SCORE.INTRA.POLAR.0>
0

>  <SCORE.INTRA.REPUL>
0

>  <SCORE.INTRA.REPUL.0>
0

>  <SCORE.INTRA.SOLV>
0.606506

>  <SCORE.INTRA.SOLV.lig_0>
-73.766

>  <SCORE.INTRA.VDW>
-0.827802

>  <SCORE.INTRA.VDW.0>
-1.95055

>  <SCORE.INTRA.norm>
-0.037374

>  <SCORE.RESTR>
0

>  <SCORE.RESTR.CAVITY>
0

>  <SCORE.RESTR.norm>
0

>  <SCORE.SYSTEM>
0

>  <SCORE.SYSTEM.CONST>
0

>  <SCORE.SYSTEM.DIHEDRAL>
0

>  <SCORE.SYSTEM.SOLV>
0

>  <SCORE.SYSTEM.norm>
0

>  <SCORE.heavy>
22

>  <SCORE.norm>
-0.3516

>  <RMSD>
6.610

$$$$
ligand
 OpenBabel11021811513D
libRbt.so/2013.1/901 2013/11/27
 22 23  0  0  0  0  0  0  0  0999 V2000
   28.1307   -3.3297  105.8257 N   0  0  0  0  0  0  0  0  0  0  0  0
   30.4149   -0.7994  106.1253 C   0  0  1  0  0  0  0  0  0  0  0  0
   29.9724   -1.9584  105.3364 O   0  0  0  0  0  0  0  0  0  0  0  0
   32.9061   -2.9042  108.1103 P   0  0  2  0  0  0  0  0  0  0  0  0
   28.5216   -2.0379  105.4583 C   0  0  2  0  0  0  0  0  0  0  0  0
   28.0401   -5.2525  106.8776 N   0  0  0  0  0  0  0  0  0  0  0  0
   26.8693   -0.4667  106.1782 O   0  0  0  0  0  0  0  0  0  0  0  0
   28.1319   -1.0683  106.5009 C   0  0  2  0  0  0  0  0  0  0  0  0
   24.7690   -6.1697  105.6440 N   0  0  0  0  0  0  0  0  0  0  0  0
   28.9097    0.9465  105.5116 O   0  0  0  0  0  0  0  0  0  0  0  0
   29.2005   -0.0632  106.5030 C   0  0  2  0  0  0  0  0  0  0  0  0
   27.0891   -5.2621  105.9234 C   0  0  0  0  0  0  0  0  0  0  0  0
   26.3047   -3.6453  104.1666 N   0  0  0  0  0  0  0  0  0  0  0  0
   32.1320   -2.1519  106.9793 O   0  0  0  0  0  0  0  0  0  0  0  0
   31.1225   -1.2613  107.3445 C   0  0  0  0  0  0  0  0  0  0  0  0
   34.1422   -3.6842  107.4925 O   0  0  0  0  0  0  0  0  0  0  0  0
   28.6716   -4.0568  106.8041 C   0  0  0  0  0  0  0  0  0  0  0  0
   26.5936   -7.5138  105.4139 O   0  0  0  0  0  0  0  0  0  0  0  0
   26.1485   -6.3914  105.6403 C   0  0  0  0  0  0  0  0  0  0  0  0
   27.1352   -4.0514  105.2474 C   0  0  0  0  0  0  0  0  0  0  0  0
   32.0133   -3.8207  108.8546 O   0  5  0  0  0  0  0  0  0  0  0  0
   33.3469   -1.9683  109.1799 O   0  0  0  0  0  0  0  0  0  0  0  0
  1 17  1  0  0  0  0
  1 20  1  0  0  0  0
  2 15  1  1  0  0  0
  2  3  1  0  0  0  0
  2 11  1  0  0  0  0
  3  5  1  0  0  0  0
  4 16  1  6  0  0  0
  4 21  1  0  0  0  0
  4 22  2  0  0  0  0
  4 14  1  0  0  0  0
  5  1  1  1  0  0  0
  5  8  1  0  0  0  0
  6 17  2  0  0  0  0
  6 12  1  0  0  0  0
  8  7  1  6  0  0  0
  8 11  1  0  0  0  0
  9 19  1  0  0  0  0
 11 10  1  6  0  0  0
 12 20  2  0  0  0  0
 12 19  1  0  0  0  0
 13 20  1  0  0  0  0
 14 15  1  0  0  0  0
 18 19  2  0  0  0  0
M  CHG  1  21  -1
M  END
>  <CHROM.1>
47.23688943,52.76735110,-171.35042791,-172.84326939,124.88335148,29.42457692
-2.99028087,106.53949893,2.77889041,0.41552750,3.00768312

>  <Name>
ligand

>  <RI>
0

>  <Rbt.Current_Directory>
/home/itssahil/PROJECTS/Mol_Feturizer/New_Systems/rnas/4XW7

>  <Rbt.Executable>
rbdock ($Id: //depot/dev/client3/rdock/2013.1/src/exe/rbdock.cxx#4 $)

>  <Rbt.Library>
libRbt.so (2013.1, Build901 2013/11/27)

>  <Rbt.Parameter_File>
/export/apps/rDock/src/rDock_2013.1_src/data/scripts/dock_solv.prm

>  <Rbt.Receptor>
prm/pocket_docking_3.prm

>  <SCORE>
-6.39913

>  <SCORE.INTER>
-5.78869

>  <SCORE.INTER.CONST>
1

>  <SCORE.INTER.POLAR>
0

>  <SCORE.INTER.ROT>
5

>  <SCORE.INTER.SOLV>
10.1656

>  <SCORE.INTER.VDW>
-14.181

>  <SCORE.INTER.norm>
-0.263122

>  <SCORE.INTRA>
-0.610439

>  <SCORE.INTRA.DIHEDRAL>
-0.56668

>  <SCORE.INTRA.DIHEDRAL.0>
2.61549

>  <SCORE.INTRA.POLAR>
0

>  <SCORE.INTRA.POLAR.0>
0

>  <SCORE.INTRA.REPUL>
0

>  <SCORE.INTRA.REPUL.0>
0

>  <SCORE.INTRA.SOLV>
0.408608

>  <SCORE.INTRA.SOLV.lig_0>
-73.766

>  <SCORE.INTRA.VDW>
-0.531403

>  <SCORE.INTRA.VDW.0>
-1.95055

>  <SCORE.INTRA.norm>
-0.0277472

>  <SCORE.RESTR>
0

>  <SCORE.RESTR.CAVITY>
0

>  <SCORE.RESTR.norm>
0

>  <SCORE.SYSTEM>
0

>  <SCORE.SYSTEM.CONST>
0

>  <SCORE.SYSTEM.DIHEDRAL>
0

>  <SCORE.SYSTEM.SOLV>
0

>  <SCORE.SYSTEM.norm>
0

>  <SCORE.heavy>
22

>  <SCORE.norm>
-0.29087

>  <RMSD>
6.611

$$$$
ligand
 OpenBabel11021811513D
libRbt.so/2013.1/901 2013/11/27
 22 23  0  0  0  0  0  0  0  0999 V2000
   29.0957   -3.8074  107.2362 N   0  0  0  0  0  0  0  0  0  0  0  0
   31.0173   -1.0746  106.4952 C   0  0  1  0  0  0  0  0  0  0  0  0
   30.2355   -2.1992  105.9609 O   0  0  0  0  0  0  0  0  0  0  0  0
   33.3575   -3.2850  108.5541 P   0  0  2  0  0  0  0  0  0  0  0  0
   29.1447   -2.4518  106.8949 C   0  0  2  0  0  0  0  0  0  0  0  0
   29.6793   -5.7805  107.9964 N   0  0  0  0  0  0  0  0  0  0  0  0
   28.1868   -1.1481  108.6555 O   0  0  0  0  0  0  0  0  0  0  0  0
   29.4152   -1.6311  108.0917 C   0  0  2  0  0  0  0  0  0  0  0  0
   27.1167   -7.6486  106.3239 N   0  0  0  0  0  0  0  0  0  0  0  0
   29.3795    0.5400  107.1283 O   0  0  0  0  0  0  0  0  0  0  0  0
   30.2388   -0.5169  107.6096 C   0  0  2  0  0  0  0  0  0  0  0  0
   28.4197   -5.8776  107.5285 C   0  0  0  0  0  0  0  0  0  0  0  0
   26.7844   -4.2973  106.4589 N   0  0  0  0  0  0  0  0  0  0  0  0
   32.1183   -2.6447  107.8480 O   0  0  0  0  0  0  0  0  0  0  0  0
   32.3270   -1.5634  106.9918 C   0  0  0  0  0  0  0  0  0  0  0  0
   34.4980   -3.5720  107.4889 O   0  0  0  0  0  0  0  0  0  0  0  0
   30.0803   -4.5007  107.8092 C   0  0  0  0  0  0  0  0  0  0  0  0
   27.2974   -7.6607  108.5945 O   0  0  0  0  0  0  0  0  0  0  0  0
   27.5815   -7.1177  107.5299 C   0  0  0  0  0  0  0  0  0  0  0  0
   28.0365   -4.6361  107.0420 C   0  0  0  0  0  0  0  0  0  0  0  0
   32.9833   -4.5182  109.2824 O   0  5  0  0  0  0  0  0  0  0  0  0
   33.8613   -2.4190  109.6543 O   0  0  0  0  0  0  0  0  0  0  0  0
  1 17  1  0  0  0  0
  1 20  1  0  0  0  0
  2 15  1  1  0  0  0
  2  3  1  0  0  0  0
  2 11  1  0  0  0  0
  3  5  1  0  0  0  0
  4 16  1  6  0  0  0
  4 21  1  0  0  0  0
  4 22  2  0  0  0  0
  4 14  1  0  0  0  0
  5  1  1  1  0  0  0
  5  8  1  0  0  0  0
  6 17  2  0  0  0  0
  6 12  1  0  0  0  0
  8  7  1  6  0  0  0
  8 11  1  0  0  0  0
  9 19  1  0  0  0  0
 11 10  1  6  0  0  0
 12 20  2  0  0  0  0
 12 19  1  0  0  0  0
 13 20  1  0  0  0  0
 14 15  1  0  0  0  0
 18 19  2  0  0  0  0
M  CHG  1  21  -1
M  END
>  <CHROM.1>
59.05888680,-50.84957229,-49.08526203,-176.99405921,-119.51731923,30.29763723
-3.47246635,107.67807479,2.49477597,0.24622875,3.00259548

>  <Name>
ligand

>  <RI>
0

>  <Rbt.Current_Directory>
/home/itssahil/PROJECTS/Mol_Feturizer/New_Systems/rnas/4XW7

>  <Rbt.Executable>
rbdock ($Id: //depot/dev/client3/rdock/2013.1/src/exe/rbdock.cxx#4 $)

>  <Rbt.Library>
libRbt.so (2013.1, Build901 2013/11/27)

>  <Rbt.Parameter_File>
/export/apps/rDock/src/rDock_2013.1_src/data/scripts/dock_solv.prm

>  <Rbt.Receptor>
prm/pocket_docking_4.prm

>  <SCORE>
-7.82825

>  <SCORE.INTER>
-6.99529

>  <SCORE.INTER.CONST>
1

>  <SCORE.INTER.POLAR>
0

>  <SCORE.INTER.ROT>
5

>  <SCORE.INTER.SOLV>
11.8666

>  <SCORE.INTER.VDW>
-15.5524

>  <SCORE.INTER.norm>
-0.317968

>  <SCORE.INTRA>
-0.832956

>  <SCORE.INTRA.DIHEDRAL>
-0.602303

>  <SCORE.INTRA.DIHEDRAL.0>
2.61549

>  <SCORE.INTRA.POLAR>
0

>  <SCORE.INTRA.POLAR.0>
0

>  <SCORE.INTRA.REPUL>
0

>  <SCORE.INTRA.REPUL.0>
0

>  <SCORE.INTRA.SOLV>
0.468176

>  <SCORE.INTRA.SOLV.lig_0>
-73.766

>  <SCORE.INTRA.VDW>
-0.765892

>  <SCORE.INTRA.VDW.0>
-1.95055

>  <SCORE.INTRA.norm>
-0.0378616

>  <SCORE.RESTR>
0

>  <SCORE.RESTR.CAVITY>
0

>  <SCORE.RESTR.norm>
0

>  <SCORE.SYSTEM>
0

>  <SCORE.SYSTEM.CONST>
0

>  <SCORE.SYSTEM.DIHEDRAL>
0

>  <SCORE.SYSTEM.SOLV>
0

>  <SCORE.SYSTEM.norm>
0

>  <SCORE.heavy>
22

>  <SCORE.norm>
-0.35583

>  <RMSD>
6.612

$$$$
ligand
 OpenBabel11021811513D
libRbt.so/2013.1/901 2013/11/27
 22 23  0  0  0  0  0  0  0  0999 V2000
   28.0890   -3.2430  105.3616 N   0  0  0  0  0  0  0  0  0  0  0  0
   30.1643   -0.5547  105.7802 C   0  0  1  0  0  0  0  0  0  0  0  0
   29.8520   -1.7424  104.9721 O   0  0  0  0  0  0  0  0  0  0  0  0
   32.7437   -2.3995  107.9095 P   0  0  2  0  0  0  0  0  0  0  0  0
   28.4061   -1.9263  105.0120 C   0  0  2  0  0  0  0  0  0  0  0  0
   27.9741   -5.1240  106.4844 N   0  0  0  0  0  0  0  0  0  0  0  0
   26.6068   -0.4785  105.6311 O   0  0  0  0  0  0  0  0  0  0  0  0
   27.8890   -0.9876  106.0271 C   0  0  2  0  0  0  0  0  0  0  0  0
   26.5288   -7.6374  105.7788 N   0  0  0  0  0  0  0  0  0  0  0  0
   28.5746    1.0784  105.0756 O   0  0  0  0  0  0  0  0  0  0  0  0
   28.8807    0.0920  106.0858 C   0  0  2  0  0  0  0  0  0  0  0  0
   27.2785   -5.2854  105.3420 C   0  0  0  0  0  0  0  0  0  0  0  0
   26.7467   -3.8415  103.3550 N   0  0  0  0  0  0  0  0  0  0  0  0
   31.9477   -1.7455  106.7335 O   0  0  0  0  0  0  0  0  0  0  0  0
   30.8331   -0.9646  107.0394 C   0  0  0  0  0  0  0  0  0  0  0  0
   34.0100   -3.1696  107.3425 O   0  0  0  0  0  0  0  0  0  0  0  0
   28.4660   -3.8623  106.4809 C   0  0  0  0  0  0  0  0  0  0  0  0
   26.0157   -6.5827  103.8262 O   0  0  0  0  0  0  0  0  0  0  0  0
   26.5634   -6.5323  104.9246 C   0  0  0  0  0  0  0  0  0  0  0  0
   27.3434   -4.1029  104.6193 C   0  0  0  0  0  0  0  0  0  0  0  0
   31.8817   -3.3016  108.7059 O   0  5  0  0  0  0  0  0  0  0  0  0
   33.1456   -1.3854  108.9215 O   0  0  0  0  0  0  0  0  0  0  0  0
  1 17  1  0  0  0  0
  1 20  1  0  0  0  0
  2 15  1  1  0  0  0
  2  3  1  0  0  0  0
  2 11  1  0  0  0  0
  3  5  1  0  0  0  0
  4 16  1  6  0  0  0
  4 21  1  0  0  0  0
  4 22  2  0  0  0  0
  4 14  1  0  0  0  0
  5  1  1  1  0  0  0
  5  8  1  0  0  0  0
  6 17  2  0  0  0  0
  6 12  1  0  0  0  0
  8  7  1  6  0  0  0
  8 11  1  0  0  0  0
  9 19  1  0  0  0  0
 11 10  1  6  0  0  0
 12 20  2  0  0  0  0
 12 19  1  0  0  0  0
 13 20  1  0  0  0  0
 14 15  1  0  0  0  0
 18 19  2  0  0  0  0
M  CHG  1  21  -1
M  END
>  <CHROM.1>
58.02262207,54.60691141,-176.82405927,-174.74827325,3.10352352,29.37692094
-2.80919173,106.11201271,2.67803930,0.51339001,3.04519224

>  <Name>
ligand

>  <RI>
0

>  <Rbt.Current_Directory>
/home/itssahil/PROJECTS/Mol_Feturizer/New_Systems/rnas/4XW7

>  <Rbt.Executable>
rbdock ($Id: //depot/dev/client3/rdock/2013.1/src/exe/rbdock.cxx#4 $)

>  <Rbt.Library>
libRbt.so (2013.1, Build901 2013/11/27)

>  <Rbt.Parameter_File>
/export/apps/rDock/src/rDock_2013.1_src/data/scripts/dock_solv.prm

>  <Rbt.Receptor>
prm/pocket_docking_4.prm

>  <SCORE>
-7.22028

>  <SCORE.INTER>
-6.51999

>  <SCORE.INTER.CONST>
1

>  <SCORE.INTER.POLAR>
0

>  <SCORE.INTER.ROT>
5

>  <SCORE.INTER.SOLV>
10.5149

>  <SCORE.INTER.VDW>
-14.7849

>  <SCORE.INTER.norm>
-0.296363

>  <SCORE.INTRA>
-0.700287

>  <SCORE.INTRA.DIHEDRAL>
-0.877107

>  <SCORE.INTRA.DIHEDRAL.0>
2.61549

>  <SCORE.INTRA.POLAR>
0

>  <SCORE.INTRA.POLAR.0>
0

>  <SCORE.INTRA.REPUL>
0

>  <SCORE.INTRA.REPUL.0>
0

>  <SCORE.INTRA.SOLV>
0.0270234

>  <SCORE.INTRA.SOLV.lig_0>
-73.766

>  <SCORE.INTRA.VDW>
-0.275245

>  <SCORE.INTRA.VDW.0>
-1.95055

>  <SCORE.INTRA.norm>
-0.0318312

>  <SCORE.RESTR>
0

>  <SCORE.RESTR.CAVITY>
0

>  <SCORE.RESTR.norm>
0

>  <SCORE.SYSTEM>
0

>  <SCORE.SYSTEM.CONST>
0

>  <SCORE.SYSTEM.DIHEDRAL>
0

>  <SCORE.SYSTEM.SOLV>
0

>  <SCORE.SYSTEM.norm>
0

>  <SCORE.heavy>
22

>  <SCORE.norm>
-0.328195

>  <RMSD>
6.617

$$$$
ligand
 OpenBabel11021811513D
libRbt.so/2013.1/901 2013/11/27
 22 23  0  0  0  0  0  0  0  0999 V2000
   28.0633   -3.2222  105.2098 N   0  0  0  0  0  0  0  0  0  0  0  0
   30.1375   -0.5561  105.7574 C   0  0  1  0  0  0  0  0  0  0  0  0
   29.8408   -1.7184  104.9075 O   0  0  0  0  0  0  0  0  0  0  0  0
   32.6618   -2.4657  107.8970 P   0  0  2  0  0  0  0  0  0  0  0  0
   28.3937   -1.8972  104.9067 C   0  0  2  0  0  0  0  0  0  0  0  0
   27.9163   -5.1353  106.2728 N   0  0  0  0  0  0  0  0  0  0  0  0
   26.5849   -0.4602  105.5237 O   0  0  0  0  0  0  0  0  0  0  0  0
   27.8553   -0.9862  105.9358 C   0  0  2  0  0  0  0  0  0  0  0  0
   26.9627   -7.1477  103.4878 N   0  0  0  0  0  0  0  0  0  0  0  0
   28.5715    1.1036  105.0622 O   0  0  0  0  0  0  0  0  0  0  0  0
   28.8490    0.0869  106.0503 C   0  0  2  0  0  0  0  0  0  0  0  0
   27.2442   -5.2588  105.1118 C   0  0  0  0  0  0  0  0  0  0  0  0
   26.7608   -3.7532  103.1585 N   0  0  0  0  0  0  0  0  0  0  0  0
   31.8841   -1.7940  106.7188 O   0  0  0  0  0  0  0  0  0  0  0  0
   30.7736   -1.0054  107.0200 C   0  0  0  0  0  0  0  0  0  0  0  0
   33.9279   -3.2408  107.3365 O   0  0  0  0  0  0  0  0  0  0  0  0
   28.4139   -3.8766  106.3176 C   0  0  0  0  0  0  0  0  0  0  0  0
   25.5645   -6.9107  105.2703 O   0  0  0  0  0  0  0  0  0  0  0  0
   26.5323   -6.4889  104.6423 C   0  0  0  0  0  0  0  0  0  0  0  0
   27.3296   -4.0555  104.4266 C   0  0  0  0  0  0  0  0  0  0  0  0
   31.7836   -3.3682  108.6752 O   0  5  0  0  0  0  0  0  0  0  0  0
   33.0606   -1.4647  108.9232 O   0  0  0  0  0  0  0  0  0  0  0  0
  1 17  1  0  0  0  0
  1 20  1  0  0  0  0
  2 15  1  1  0  0  0
  2  3  1  0  0  0  0
  2 11  1  0  0  0  0
  3  5  1  0  0  0  0
  4 16  1  6  0  0  0
  4 21  1  0  0  0  0
  4 22  2  0  0  0  0
  4 14  1  0  0  0  0
  5  1  1  1  0  0  0
  5  8  1  0  0  0  0
  6 17  2  0  0  0  0
  6 12  1  0  0  0  0
  8  7  1  6  0  0  0
  8 11  1  0  0  0  0
  9 19  1  0  0  0  0
 11 10  1  6  0  0  0
 12 20  2  0  0  0  0
 12 19  1  0  0  0  0
 13 20  1  0  0  0  0
 14 15  1  0  0  0  0
 18 19  2  0  0  0  0
M  CHG  1  21  -1
M  END
>  <CHROM.1>
57.80738968,53.96846591,-176.74394735,-175.85284209,-116.14666754,29.33359353
-2.81303411,106.00569230,2.67163154,0.52425075,3.08952048

>  <Name>
ligand

>  <RI>
0

>  <Rbt.Current_Directory>
/home/itssahil/PROJECTS/Mol_Feturizer/New_Systems/rnas/4XW7

>  <Rbt.Executable>
rbdock ($Id: //depot/dev/client3/rdock/2013.1/src/exe/rbdock.cxx#4 $)

>  <Rbt.Library>
libRbt.so (2013.1, Build901 2013/11/27)

>  <Rbt.Parameter_File>
/export/apps/rDock/src/rDock_2013.1_src/data/scripts/dock_solv.prm

>  <Rbt.Receptor>
prm/pocket_docking_7.prm

>  <SCORE>
-7.40268

>  <SCORE.INTER>
-6.54487

>  <SCORE.INTER.CONST>
1

>  <SCORE.INTER.POLAR>
0

>  <SCORE.INTER.ROT>
5

>  <SCORE.INTER.SOLV>
10.2498

>  <SCORE.INTER.VDW>
-14.7132

>  <SCORE.INTER.norm>
-0.297494

>  <SCORE.INTRA>
-0.857804

>  <SCORE.INTRA.DIHEDRAL>
-0.895951

>  <SCORE.INTRA.DIHEDRAL.0>
2.61549

>  <SCORE.INTRA.POLAR>
0

>  <SCORE.INTRA.POLAR.0>
0

>  <SCORE.INTRA.REPUL>
0

>  <SCORE.INTRA.REPUL.0>
0

>  <SCORE.INTRA.SOLV>
-0.000279926

>  <SCORE.INTRA.SOLV.lig_0>
-73.766

>  <SCORE.INTRA.VDW>
-0.409688

>  <SCORE.INTRA.VDW.0>
-1.95055

>  <SCORE.INTRA.norm>
-0.0389911

>  <SCORE.RESTR>
0

>  <SCORE.RESTR.CAVITY>
0

>  <SCORE.RESTR.norm>
0

>  <SCORE.SYSTEM>
0

>  <SCORE.SYSTEM.CONST>
0

>  <SCORE.SYSTEM.DIHEDRAL>
0

>  <SCORE.SYSTEM.SOLV>
0

>  <SCORE.SYSTEM.norm>
0

>  <SCORE.heavy>
22

>  <SCORE.norm>
-0.336485

>  <RMSD>
6.620

$$$$
ligand
 OpenBabel11021811513D
libRbt.so/2013.1/901 2013/11/27
 22 23  0  0  0  0  0  0  0  0999 V2000
   28.0590   -3.2369  105.2530 N   0  0  0  0  0  0  0  0  0  0  0  0
   30.1420   -0.5694  105.7585 C   0  0  1  0  0  0  0  0  0  0  0  0
   29.8380   -1.7407  104.9236 O   0  0  0  0  0  0  0  0  0  0  0  0
   32.6763   -2.4585  107.9034 P   0  0  2  0  0  0  0  0  0  0  0  0
   28.3906   -1.9162  104.9329 C   0  0  2  0  0  0  0  0  0  0  0  0
   27.9246   -5.1416  106.3328 N   0  0  0  0  0  0  0  0  0  0  0  0
   26.5884   -0.4683  105.5435 O   0  0  0  0  0  0  0  0  0  0  0  0
   27.8599   -0.9923  105.9545 C   0  0  2  0  0  0  0  0  0  0  0  0
   26.8808   -7.1542  103.5722 N   0  0  0  0  0  0  0  0  0  0  0  0
   28.5756    1.0857  105.0531 O   0  0  0  0  0  0  0  0  0  0  0  0
   28.8566    0.0798  106.0511 C   0  0  2  0  0  0  0  0  0  0  0  0
   27.2255   -5.2690  105.1883 C   0  0  0  0  0  0  0  0  0  0  0  0
   26.7070   -3.7743  103.2357 N   0  0  0  0  0  0  0  0  0  0  0  0
   31.9015   -1.7857  106.7239 O   0  0  0  0  0  0  0  0  0  0  0  0
   30.7843   -1.0057  107.0225 C   0  0  0  0  0  0  0  0  0  0  0  0
   33.9442   -3.2324  107.3452 O   0  0  0  0  0  0  0  0  0  0  0  0
   28.4308   -3.8858  106.3572 C   0  0  0  0  0  0  0  0  0  0  0  0
   25.5526   -6.9208  105.4079 O   0  0  0  0  0  0  0  0  0  0  0  0
   26.4956   -6.4978  104.7439 C   0  0  0  0  0  0  0  0  0  0  0  0
   27.3027   -4.0711  104.4926 C   0  0  0  0  0  0  0  0  0  0  0  0
   31.7966   -3.3623  108.6782 O   0  5  0  0  0  0  0  0  0  0  0  0
   33.0722   -1.4586  108.9317 O   0  0  0  0  0  0  0  0  0  0  0  0
  1 17  1  0  0  0  0
  1 20  1  0  0  0  0
  2 15  1  1  0  0  0
  2  3  1  0  0  0  0
  2 11  1  0  0  0  0
  3  5  1  0  0  0  0
  4 16  1  6  0  0  0
  4 21  1  0  0  0  0
  4 22  2  0  0  0  0
  4 14  1  0  0  0  0
  5  1  1  1  0  0  0
  5  8  1  0  0  0  0
  6 17  2  0  0  0  0
  6 12  1  0  0  0  0
  8  7  1  6  0  0  0
  8 11  1  0  0  0  0
  9 19  1  0  0  0  0
 11 10  1  6  0  0  0
 12 20  2  0  0  0  0
 12 19  1  0  0  0  0
 13 20  1  0  0  0  0
 14 15  1  0  0  0  0
 18 19  2  0  0  0  0
M  CHG  1  21  -1
M  END
>  <CHROM.1>
56.76861318,54.73063268,-177.18935660,-175.08348318,-117.25658653,29.33044007
-2.81926952,106.03909319,2.67787759,0.51721911,3.07285880

>  <Name>
ligand

>  <RI>
0

>  <Rbt.Current_Directory>
/home/itssahil/PROJECTS/Mol_Feturizer/New_Systems/rnas/4XW7

>  <Rbt.Executable>
rbdock ($Id: //depot/dev/client3/rdock/2013.1/src/exe/rbdock.cxx#4 $)

>  <Rbt.Library>
libRbt.so (2013.1, Build901 2013/11/27)

>  <Rbt.Parameter_File>
/export/apps/rDock/src/rDock_2013.1_src/data/scripts/dock_solv.prm

>  <Rbt.Receptor>
prm/pocket_docking_4.prm

>  <SCORE>
-7.41721

>  <SCORE.INTER>
-6.55361

>  <SCORE.INTER.CONST>
1

>  <SCORE.INTER.POLAR>
0

>  <SCORE.INTER.ROT>
5

>  <SCORE.INTER.SOLV>
10.1524

>  <SCORE.INTER.VDW>
-14.6865

>  <SCORE.INTER.norm>
-0.297891

>  <SCORE.INTRA>
-0.863597

>  <SCORE.INTRA.DIHEDRAL>
-0.90447

>  <SCORE.INTRA.DIHEDRAL.0>
2.61549

>  <SCORE.INTRA.POLAR>
0

>  <SCORE.INTRA.POLAR.0>
0

>  <SCORE.INTRA.REPUL>
0

>  <SCORE.INTRA.REPUL.0>
0

>  <SCORE.INTRA.SOLV>
0.0344357

>  <SCORE.INTRA.SOLV.lig_0>
-73.766

>  <SCORE.INTRA.VDW>
-0.42858

>  <SCORE.INTRA.VDW.0>
-1.95055

>  <SCORE.INTRA.norm>
-0.0392544

>  <SCORE.RESTR>
0

>  <SCORE.RESTR.CAVITY>
0

>  <SCORE.RESTR.norm>
0

>  <SCORE.SYSTEM>
0

>  <SCORE.SYSTEM.CONST>
0

>  <SCORE.SYSTEM.DIHEDRAL>
0

>  <SCORE.SYSTEM.SOLV>
0

>  <SCORE.SYSTEM.norm>
0

>  <SCORE.heavy>
22

>  <SCORE.norm>
-0.337146

>  <RMSD>
6.622

$$$$
ligand
 OpenBabel11021811513D
libRbt.so/2013.1/901 2013/11/27
 22 23  0  0  0  0  0  0  0  0999 V2000
   28.0276   -3.1629  104.4214 N   0  0  0  0  0  0  0  0  0  0  0  0
   30.0084   -0.6311  105.5945 C   0  0  1  0  0  0  0  0  0  0  0  0
   29.8102   -1.6400  104.5437 O   0  0  0  0  0  0  0  0  0  0  0  0
   32.4655   -2.6722  107.6908 P   0  0  2  0  0  0  0  0  0  0  0  0
   28.3724   -1.8083  104.3695 C   0  0  2  0  0  0  0  0  0  0  0  0
   27.6851   -5.1916  105.1823 N   0  0  0  0  0  0  0  0  0  0  0  0
   26.4960   -0.4792  105.0251 O   0  0  0  0  0  0  0  0  0  0  0  0
   27.7245   -1.0716  105.4724 C   0  0  2  0  0  0  0  0  0  0  0  0
   27.5449   -6.8273  102.0002 N   0  0  0  0  0  0  0  0  0  0  0  0
   28.5019    1.1274  105.0217 O   0  0  0  0  0  0  0  0  0  0  0  0
   28.6905   -0.0364  105.8565 C   0  0  2  0  0  0  0  0  0  0  0  0
   27.3443   -5.1796  103.8790 C   0  0  0  0  0  0  0  0  0  0  0  0
   27.3270   -3.4535  102.0526 N   0  0  0  0  0  0  0  0  0  0  0  0
   31.7676   -1.8470  106.5611 O   0  0  0  0  0  0  0  0  0  0  0  0
   30.5204   -1.2811  106.8258 C   0  0  0  0  0  0  0  0  0  0  0  0
   31.6758   -4.0262  107.9375 O   0  0  0  0  0  0  0  0  0  0  0  0
   28.1032   -3.9433  105.5001 C   0  0  0  0  0  0  0  0  0  0  0  0
   25.7717   -6.8825  103.4290 O   0  0  0  0  0  0  0  0  0  0  0  0
   26.8291   -6.3500  103.1011 C   0  0  0  0  0  0  0  0  0  0  0  0
   27.5573   -3.9018  103.3826 C   0  0  0  0  0  0  0  0  0  0  0  0
   32.5799   -1.8848  108.9391 O   0  5  0  0  0  0  0  0  0  0  0  0
   33.8924   -2.9393  107.3638 O   0  0  0  0  0  0  0  0  0  0  0  0
  1 17  1  0  0  0  0
  1 20  1  0  0  0  0
  2 15  1  1  0  0  0
  2  3  1  0  0  0  0
  2 11  1  0  0  0  0
  3  5  1  0  0  0  0
  4 16  1  1  0  0  0
  4 21  1  0  0  0  0
  4 22  2  0  0  0  0
  4 14  1  0  0  0  0
  5  1  1  1  0  0  0
  5  8  1  0  0  0  0
  6 17  2  0  0  0  0
  6 12  1  0  0  0  0
  8  7  1  6  0  0  0
  8 11  1  0  0  0  0
  9 19  1  0  0  0  0
 11 10  1  6  0  0  0
 12 20  2  0  0  0  0
 12 19  1  0  0  0  0
 13 20  1  0  0  0  0
 14 15  1  0  0  0  0
 18 19  2  0  0  0  0
M  CHG  1  21  -1
M  END
>  <CHROM.1>
67.65938749,62.88001474,69.43116362,-176.06869047,-118.71622247,29.30079023
-2.84917542,105.39003156,2.61537013,0.62175169,-2.99319751

>  <Name>
ligand

>  <RI>
0

>  <Rbt.Current_Directory>
/home/itssahil/PROJECTS/Mol_Feturizer/New_Systems/rnas/4XW7

>  <Rbt.Executable>
rbdock ($Id: //depot/dev/client3/rdock/2013.1/src/exe/rbdock.cxx#4 $)

>  <Rbt.Library>
libRbt.so (2013.1, Build901 2013/11/27)

>  <Rbt.Parameter_File>
/export/apps/rDock/src/rDock_2013.1_src/data/scripts/dock_solv.prm

>  <Rbt.Receptor>
prm/pocket_docking_4.prm

>  <SCORE>
-6.31354

>  <SCORE.INTER>
-5.2049

>  <SCORE.INTER.CONST>
1

>  <SCORE.INTER.POLAR>
0

>  <SCORE.INTER.ROT>
5

>  <SCORE.INTER.SOLV>
14.5007

>  <SCORE.INTER.VDW>
-15.2368

>  <SCORE.INTER.norm>
-0.236586

>  <SCORE.INTRA>
-1.13606

>  <SCORE.INTRA.DIHEDRAL>
-0.884505

>  <SCORE.INTRA.DIHEDRAL.0>
2.61549

>  <SCORE.INTRA.POLAR>
0

>  <SCORE.INTRA.POLAR.0>
0

>  <SCORE.INTRA.REPUL>
0

>  <SCORE.INTRA.REPUL.0>
0

>  <SCORE.INTRA.SOLV>
-0.800164

>  <SCORE.INTRA.SOLV.lig_0>
-73.766

>  <SCORE.INTRA.VDW>
-0.29373

>  <SCORE.INTRA.VDW.0>
-1.95055

>  <SCORE.INTRA.norm>
-0.0516393

>  <SCORE.RESTR>
0.0274279

>  <SCORE.RESTR.CAVITY>
0.0274279

>  <SCORE.RESTR.norm>
0.00124672

>  <SCORE.SYSTEM>
0

>  <SCORE.SYSTEM.CONST>
0

>  <SCORE.SYSTEM.DIHEDRAL>
0

>  <SCORE.SYSTEM.SOLV>
0

>  <SCORE.SYSTEM.norm>
0

>  <SCORE.heavy>
22

>  <SCORE.norm>
-0.286979

>  <RMSD>
6.624

$$$$
ligand
 OpenBabel11021811513D
libRbt.so/2013.1/901 2013/11/27
 22 23  0  0  0  0  0  0  0  0999 V2000
   29.3312   -3.7623  107.2819 N   0  0  0  0  0  0  0  0  0  0  0  0
   31.8575   -1.4556  107.1990 C   0  0  1  0  0  0  0  0  0  0  0  0
   30.9788   -2.3335  106.4125 O   0  0  0  0  0  0  0  0  0  0  0  0
   33.3021   -4.2633  109.3522 P   0  0  2  0  0  0  0  0  0  0  0  0
   29.7085   -2.4248  107.1226 C   0  0  2  0  0  0  0  0  0  0  0  0
   29.3802   -5.8815  107.8462 N   0  0  0  0  0  0  0  0  0  0  0  0
   28.7243   -1.1038  108.8556 O   0  0  0  0  0  0  0  0  0  0  0  0
   29.9144   -1.7899  108.4392 C   0  0  2  0  0  0  0  0  0  0  0  0
   26.7645   -6.9841  105.6745 N   0  0  0  0  0  0  0  0  0  0  0  0
   30.4844    0.4133  107.7577 O   0  0  0  0  0  0  0  0  0  0  0  0
   31.0156   -0.8422  108.2356 C   0  0  2  0  0  0  0  0  0  0  0  0
   28.2039   -5.6478  107.2325 C   0  0  0  0  0  0  0  0  0  0  0  0
   27.0964   -3.6439  106.1964 N   0  0  0  0  0  0  0  0  0  0  0  0
   32.3572   -3.2864  108.5795 O   0  0  0  0  0  0  0  0  0  0  0  0
   32.9322   -2.2574  107.8336 C   0  0  0  0  0  0  0  0  0  0  0  0
   34.3044   -4.9603  108.3387 O   0  0  0  0  0  0  0  0  0  0  0  0
   30.0617   -4.7114  107.8684 C   0  0  0  0  0  0  0  0  0  0  0  0
   26.5740   -7.2057  107.9335 O   0  0  0  0  0  0  0  0  0  0  0  0
   27.1328   -6.6633  106.9835 C   0  0  0  0  0  0  0  0  0  0  0  0
   28.1587   -4.3100  106.8676 C   0  0  0  0  0  0  0  0  0  0  0  0
   32.5282   -5.2684  110.1152 O   0  5  0  0  0  0  0  0  0  0  0  0
   34.0420   -3.5589  110.4341 O   0  0  0  0  0  0  0  0  0  0  0  0
  1 17  1  0  0  0  0
  1 20  1  0  0  0  0
  2 15  1  1  0  0  0
  2  3  1  0  0  0  0
  2 11  1  0  0  0  0
  3  5  1  0  0  0  0
  4 16  1  6  0  0  0
  4 21  1  0  0  0  0
  4 22  2  0  0  0  0
  4 14  1  0  0  0  0
  5  1  1  1  0  0  0
  5  8  1  0  0  0  0
  6 17  2  0  0  0  0
  6 12  1  0  0  0  0
  8  7  1  6  0  0  0
  8 11  1  0  0  0  0
  9 19  1  0  0  0  0
 11 10  1  6  0  0  0
 12 20  2  0  0  0  0
 12 19  1  0  0  0  0
 13 20  1  0  0  0  0
 14 15  1  0  0  0  0
 18 19  2  0  0  0  0
M  CHG  1  21  -1
M  END
>  <CHROM.1>
56.26845005,-54.79315936,-57.83758777,-179.58969666,-117.55980126,30.46900823
-3.72333971,107.97159547,2.74311195,0.38974179,3.02536946

>  <Name>
ligand

>  <RI>
0

>  <Rbt.Current_Directory>
/home/itssahil/PROJECTS/Mol_Feturizer/New_Systems/rnas/4XW7

>  <Rbt.Executable>
rbdock ($Id: //depot/dev/client3/rdock/2013.1/src/exe/rbdock.cxx#4 $)

>  <Rbt.Library>
libRbt.so (2013.1, Build901 2013/11/27)

>  <Rbt.Parameter_File>
/export/apps/rDock/src/rDock_2013.1_src/data/scripts/dock_solv.prm

>  <Rbt.Receptor>
prm/pocket_docking_5.prm

>  <SCORE>
-6.26669

>  <SCORE.INTER>
-5.24045

>  <SCORE.INTER.CONST>
1

>  <SCORE.INTER.POLAR>
0

>  <SCORE.INTER.ROT>
5

>  <SCORE.INTER.SOLV>
8.74325

>  <SCORE.INTER.VDW>
-13.3414

>  <SCORE.INTER.norm>
-0.238202

>  <SCORE.INTRA>
-1.02949

>  <SCORE.INTRA.DIHEDRAL>
-1.0208

>  <SCORE.INTRA.DIHEDRAL.0>
2.61549

>  <SCORE.INTRA.POLAR>
0

>  <SCORE.INTRA.POLAR.0>
0

>  <SCORE.INTRA.REPUL>
0

>  <SCORE.INTRA.REPUL.0>
0

>  <SCORE.INTRA.SOLV>
0.47107

>  <SCORE.INTRA.SOLV.lig_0>
-73.766

>  <SCORE.INTRA.VDW>
-0.754622

>  <SCORE.INTRA.VDW.0>
-1.95055

>  <SCORE.INTRA.norm>
-0.0467949

>  <SCORE.RESTR>
0.00324427

>  <SCORE.RESTR.CAVITY>
0.00324427

>  <SCORE.RESTR.norm>
0.000147467

>  <SCORE.SYSTEM>
0

>  <SCORE.SYSTEM.CONST>
0

>  <SCORE.SYSTEM.DIHEDRAL>
0

>  <SCORE.SYSTEM.SOLV>
0

>  <SCORE.SYSTEM.norm>
0

>  <SCORE.heavy>
22

>  <SCORE.norm>
-0.28485

>  <RMSD>
6.627

$$$$
ligand
 OpenBabel11021811513D
libRbt.so/2013.1/901 2013/11/27
 22 23  0  0  0  0  0  0  0  0999 V2000
   28.2264   -2.8746  103.4376 N   0  0  0  0  0  0  0  0  0  0  0  0
   29.5920   -0.5009  105.4895 C   0  0  1  0  0  0  0  0  0  0  0  0
   29.7279   -1.2555  104.2351 O   0  0  0  0  0  0  0  0  0  0  0  0
   31.9172   -2.6577  107.6218 P   0  0  2  0  0  0  0  0  0  0  0  0
   28.3822   -1.5175  103.7385 C   0  0  2  0  0  0  0  0  0  0  0  0
   27.9552   -5.0380  103.6785 N   0  0  0  0  0  0  0  0  0  0  0  0
   26.2518   -0.5628  104.2552 O   0  0  0  0  0  0  0  0  0  0  0  0
   27.4511   -1.1204  104.8129 C   0  0  2  0  0  0  0  0  0  0  0  0
   26.8651   -5.7382  100.3500 N   0  0  0  0  0  0  0  0  0  0  0  0
   27.9814    1.1880  104.9956 O   0  0  0  0  0  0  0  0  0  0  0  0
   28.1785   -0.1127  105.5925 C   0  0  2  0  0  0  0  0  0  0  0  0
   28.0176   -4.7772  102.3582 C   0  0  0  0  0  0  0  0  0  0  0  0
   28.3062   -2.7110  100.9570 N   0  0  0  0  0  0  0  0  0  0  0  0
   31.3082   -1.7120  106.5359 O   0  0  0  0  0  0  0  0  0  0  0  0
   29.9614   -1.3638  106.6382 C   0  0  0  0  0  0  0  0  0  0  0  0
   31.2619   -4.0987  107.5124 O   0  0  0  0  0  0  0  0  0  0  0  0
   28.0852   -3.8570  104.3283 C   0  0  0  0  0  0  0  0  0  0  0  0
   28.7691   -6.6775  101.1753 O   0  0  0  0  0  0  0  0  0  0  0  0
   27.9215   -5.7926  101.2628 C   0  0  0  0  0  0  0  0  0  0  0  0
   28.1910   -3.4111  102.1897 C   0  0  0  0  0  0  0  0  0  0  0  0
   31.7479   -2.0951  108.9805 O   0  5  0  0  0  0  0  0  0  0  0  0
   33.3984   -2.7352  107.5035 O   0  0  0  0  0  0  0  0  0  0  0  0
  1 17  1  0  0  0  0
  1 20  1  0  0  0  0
  2 15  1  1  0  0  0
  2  3  1  0  0  0  0
  2 11  1  0  0  0  0
  3  5  1  0  0  0  0
  4 16  1  6  0  0  0
  4 21  1  0  0  0  0
  4 22  2  0  0  0  0
  4 14  1  0  0  0  0
  5  1  1  1  0  0  0
  5  8  1  0  0  0  0
  6 17  2  0  0  0  0
  6 12  1  0  0  0  0
  8  7  1  6  0  0  0
  8 11  1  0  0  0  0
  9 19  1  0  0  0  0
 11 10  1  6  0  0  0
 12 20  2  0  0  0  0
 12 19  1  0  0  0  0
 13 20  1  0  0  0  0
 14 15  1  0  0  0  0
 18 19  2  0  0  0  0
M  CHG  1  21  -1
M  END
>  <CHROM.1>
74.64515979,63.85827909,66.54334081,-178.31574449,117.14967912,29.29543089
-2.65652603,104.70200092,2.35461482,0.76528483,-2.59409996

>  <Name>
ligand

>  <RI>
0

>  <Rbt.Current_Directory>
/home/itssahil/PROJECTS/Mol_Feturizer/New_Systems/rnas/4XW7

>  <Rbt.Executable>
rbdock ($Id: //depot/dev/client3/rdock/2013.1/src/exe/rbdock.cxx#4 $)

>  <Rbt.Library>
libRbt.so (2013.1, Build901 2013/11/27)

>  <Rbt.Parameter_File>
/export/apps/rDock/src/rDock_2013.1_src/data/scripts/dock_solv.prm

>  <Rbt.Receptor>
prm/pocket_docking_5.prm

>  <SCORE>
-7.36944

>  <SCORE.INTER>
-6.32539

>  <SCORE.INTER.CONST>
1

>  <SCORE.INTER.POLAR>
0

>  <SCORE.INTER.ROT>
5

>  <SCORE.INTER.SOLV>
13.2081

>  <SCORE.INTER.VDW>
-15.553

>  <SCORE.INTER.norm>
-0.287518

>  <SCORE.INTRA>
-1.04442

>  <SCORE.INTRA.DIHEDRAL>
-0.986109

>  <SCORE.INTRA.DIHEDRAL.0>
2.61549

>  <SCORE.INTRA.POLAR>
0

>  <SCORE.INTRA.POLAR.0>
0

>  <SCORE.INTRA.REPUL>
0

>  <SCORE.INTRA.REPUL.0>
0

>  <SCORE.INTRA.SOLV>
-0.851685

>  <SCORE.INTRA.SOLV.lig_0>
-73.766

>  <SCORE.INTRA.VDW>
-0.125525

>  <SCORE.INTRA.VDW.0>
-1.95055

>  <SCORE.INTRA.norm>
-0.0474738

>  <SCORE.RESTR>
0.000371913

>  <SCORE.RESTR.CAVITY>
0.000371913

>  <SCORE.RESTR.norm>
1.69051e-05

>  <SCORE.SYSTEM>
0

>  <SCORE.SYSTEM.CONST>
0

>  <SCORE.SYSTEM.DIHEDRAL>
0

>  <SCORE.SYSTEM.SOLV>
0

>  <SCORE.SYSTEM.norm>
0

>  <SCORE.heavy>
22

>  <SCORE.norm>
-0.334974

>  <RMSD>
6.629

$$$$
ligand
 OpenBabel11021811513D
libRbt.so/2013.1/901 2013/11/27
 22 23  0  0  0  0  0  0  0  0999 V2000
   28.2253   -2.8944  103.4572 N   0  0  0  0  0  0  0  0  0  0  0  0
   29.5723   -0.4952  105.4918 C   0  0  1  0  0  0  0  0  0  0  0  0
   29.7026   -1.2425  104.2324 O   0  0  0  0  0  0  0  0  0  0  0  0
   31.9829   -2.6160  107.5647 P   0  0  2  0  0  0  0  0  0  0  0  0
   28.3544   -1.5349  103.7600 C   0  0  2  0  0  0  0  0  0  0  0  0
   27.9792   -5.0612  103.6944 N   0  0  0  0  0  0  0  0  0  0  0  0
   26.2120   -0.6327  104.3195 O   0  0  0  0  0  0  0  0  0  0  0  0
   27.4344   -1.1634  104.8529 C   0  0  2  0  0  0  0  0  0  0  0  0
   26.9082   -5.8686  100.4274 N   0  0  0  0  0  0  0  0  0  0  0  0
   27.9131    1.1564  105.0338 O   0  0  0  0  0  0  0  0  0  0  0  0
   28.1521   -0.1411  105.6224 C   0  0  2  0  0  0  0  0  0  0  0  0
   28.0696   -4.8008  102.3757 C   0  0  0  0  0  0  0  0  0  0  0  0
   28.3622   -2.7321  100.9790 N   0  0  0  0  0  0  0  0  0  0  0  0
   31.3314   -1.6836  106.4921 O   0  0  0  0  0  0  0  0  0  0  0  0
   29.9834   -1.3527  106.6304 C   0  0  0  0  0  0  0  0  0  0  0  0
   31.3323   -4.0614  107.4911 O   0  0  0  0  0  0  0  0  0  0  0  0
   28.0767   -3.8778  104.3456 C   0  0  0  0  0  0  0  0  0  0  0  0
   28.9398   -6.6138  101.1384 O   0  0  0  0  0  0  0  0  0  0  0  0
   28.0143   -5.8185  101.2796 C   0  0  0  0  0  0  0  0  0  0  0  0
   28.2275   -3.4325  102.2096 C   0  0  0  0  0  0  0  0  0  0  0  0
   31.8576   -2.0417  108.9233 O   0  5  0  0  0  0  0  0  0  0  0  0
   33.4595   -2.6868  107.3957 O   0  0  0  0  0  0  0  0  0  0  0  0
  1 17  1  0  0  0  0
  1 20  1  0  0  0  0
  2 15  1  1  0  0  0
  2  3  1  0  0  0  0
  2 11  1  0  0  0  0
  3  5  1  0  0  0  0
  4 16  1  6  0  0  0
  4 21  1  0  0  0  0
  4 22  2  0  0  0  0
  4 14  1  0  0  0  0
  5  1  1  1  0  0  0
  5  8  1  0  0  0  0
  6 17  2  0  0  0  0
  6 12  1  0  0  0  0
  8  7  1  6  0  0  0
  8 11  1  0  0  0  0
  9 19  1  0  0  0  0
 11 10  1  6  0  0  0
 12 20  2  0  0  0  0
 12 19  1  0  0  0  0
 13 20  1  0  0  0  0
 14 15  1  0  0  0  0
 18 19  2  0  0  0  0
M  CHG  1  21  -1
M  END
>  <CHROM.1>
77.16018911,63.05407392,65.88949214,-178.56144003,110.40837328,29.32512713
-2.66009134,104.70022461,2.32787562,0.73438334,-2.57071034

>  <Name>
ligand

>  <RI>
0

>  <Rbt.Current_Directory>
/home/itssahil/PROJECTS/Mol_Feturizer/New_Systems/rnas/4XW7

>  <Rbt.Executable>
rbdock ($Id: //depot/dev/client3/rdock/2013.1/src/exe/rbdock.cxx#4 $)

>  <Rbt.Library>
libRbt.so (2013.1, Build901 2013/11/27)

>  <Rbt.Parameter_File>
/export/apps/rDock/src/rDock_2013.1_src/data/scripts/dock_solv.prm

>  <Rbt.Receptor>
prm/pocket_docking_5.prm

>  <SCORE>
-7.3116

>  <SCORE.INTER>
-6.34025

>  <SCORE.INTER.CONST>
1

>  <SCORE.INTER.POLAR>
0

>  <SCORE.INTER.ROT>
5

>  <SCORE.INTER.SOLV>
13.6871

>  <SCORE.INTER.VDW>
-15.7225

>  <SCORE.INTER.norm>
-0.288193

>  <SCORE.INTRA>
-0.971431

>  <SCORE.INTRA.DIHEDRAL>
-0.9311

>  <SCORE.INTRA.DIHEDRAL.0>
2.61549

>  <SCORE.INTRA.POLAR>
0

>  <SCORE.INTRA.POLAR.0>
0

>  <SCORE.INTRA.REPUL>
0

>  <SCORE.INTRA.REPUL.0>
0

>  <SCORE.INTRA.SOLV>
-0.878541

>  <SCORE.INTRA.SOLV.lig_0>
-73.766

>  <SCORE.INTRA.VDW>
-0.0666106

>  <SCORE.INTRA.VDW.0>
-1.95055

>  <SCORE.INTRA.norm>
-0.0441559

>  <SCORE.RESTR>
7.99673e-05

>  <SCORE.RESTR.CAVITY>
7.99673e-05

>  <SCORE.RESTR.norm>
3.63488e-06

>  <SCORE.SYSTEM>
0

>  <SCORE.SYSTEM.CONST>
0

>  <SCORE.SYSTEM.DIHEDRAL>
0

>  <SCORE.SYSTEM.SOLV>
0

>  <SCORE.SYSTEM.norm>
0

>  <SCORE.heavy>
22

>  <SCORE.norm>
-0.332345

>  <RMSD>
6.631

$$$$
ligand
 OpenBabel11021811513D
libRbt.so/2013.1/901 2013/11/27
 22 23  0  0  0  0  0  0  0  0999 V2000
   28.0891   -3.2660  105.3638 N   0  0  0  0  0  0  0  0  0  0  0  0
   30.1629   -0.5765  105.7833 C   0  0  1  0  0  0  0  0  0  0  0  0
   29.8499   -1.7629  104.9735 O   0  0  0  0  0  0  0  0  0  0  0  0
   32.7395   -2.4339  107.9054 P   0  0  2  0  0  0  0  0  0  0  0  0
   28.4043   -1.9483  105.0161 C   0  0  2  0  0  0  0  0  0  0  0  0
   28.0572   -5.1816  106.4321 N   0  0  0  0  0  0  0  0  0  0  0  0
   26.6050   -0.5033  105.6418 O   0  0  0  0  0  0  0  0  0  0  0  0
   27.8885   -1.0120  106.0341 C   0  0  2  0  0  0  0  0  0  0  0  0
   26.5953   -7.1221  103.8048 N   0  0  0  0  0  0  0  0  0  0  0  0
   28.5702    1.0564  105.0852 O   0  0  0  0  0  0  0  0  0  0  0  0
   28.8793    0.0684  106.0928 C   0  0  2  0  0  0  0  0  0  0  0  0
   27.2094   -5.2794  105.3897 C   0  0  0  0  0  0  0  0  0  0  0  0
   26.4692   -3.7486  103.5392 N   0  0  0  0  0  0  0  0  0  0  0  0
   31.9396   -1.7816  106.7311 O   0  0  0  0  0  0  0  0  0  0  0  0
   30.8347   -0.9883  107.0402 C   0  0  0  0  0  0  0  0  0  0  0  0
   34.0507   -3.1300  107.3450 O   0  0  0  0  0  0  0  0  0  0  0  0
   28.5899   -3.9369  106.4019 C   0  0  0  0  0  0  0  0  0  0  0  0
   25.5583   -6.9110  105.8219 O   0  0  0  0  0  0  0  0  0  0  0  0
   26.3998   -6.4870  105.0339 C   0  0  0  0  0  0  0  0  0  0  0  0
   27.2200   -4.0743  104.7024 C   0  0  0  0  0  0  0  0  0  0  0  0
   31.9024   -3.3964  108.6565 O   0  5  0  0  0  0  0  0  0  0  0  0
   33.0740   -1.4332  108.9546 O   0  0  0  0  0  0  0  0  0  0  0  0
  1 17  1  0  0  0  0
  1 20  1  0  0  0  0
  2 15  1  1  0  0  0
  2  3  1  0  0  0  0
  2 11  1  0  0  0  0
  3  5  1  0  0  0  0
  4 16  1  6  0  0  0
  4 21  1  0  0  0  0
  4 22  2  0  0  0  0
  4 14  1  0  0  0  0
  5  1  1  1  0  0  0
  5  8  1  0  0  0  0
  6 17  2  0  0  0  0
  6 12  1  0  0  0  0
  8  7  1  6  0  0  0
  8 11  1  0  0  0  0
  9 19  1  0  0  0  0
 11 10  1  6  0  0  0
 12 20  2  0  0  0  0
 12 19  1  0  0  0  0
 13 20  1  0  0  0  0
 14 15  1  0  0  0  0
 18 19  2  0  0  0  0
M  CHG  1  21  -1
M  END
>  <CHROM.1>
49.93448772,53.86267787,-172.72165328,-175.01611555,-118.34458618,29.33895369
-2.82042157,106.13737333,2.69431689,0.48939244,3.03633886

>  <Name>
ligand

>  <RI>
0

>  <Rbt.Current_Directory>
/home/itssahil/PROJECTS/Mol_Feturizer/New_Systems/rnas/4XW7

>  <Rbt.Executable>
rbdock ($Id: //depot/dev/client3/rdock/2013.1/src/exe/rbdock.cxx#4 $)

>  <Rbt.Library>
libRbt.so (2013.1, Build901 2013/11/27)

>  <Rbt.Parameter_File>
/export/apps/rDock/src/rDock_2013.1_src/data/scripts/dock_solv.prm

>  <Rbt.Receptor>
prm/pocket_docking_4.prm

>  <SCORE>
-7.32942

>  <SCORE.INTER>
-6.54405

>  <SCORE.INTER.CONST>
1

>  <SCORE.INTER.POLAR>
0

>  <SCORE.INTER.ROT>
5

>  <SCORE.INTER.SOLV>
10.273

>  <SCORE.INTER.VDW>
-14.7204

>  <SCORE.INTER.norm>
-0.297457

>  <SCORE.INTRA>
-0.785371

>  <SCORE.INTRA.DIHEDRAL>
-0.802861

>  <SCORE.INTRA.DIHEDRAL.0>
2.61549

>  <SCORE.INTRA.POLAR>
0

>  <SCORE.INTRA.POLAR.0>
0

>  <SCORE.INTRA.REPUL>
0

>  <SCORE.INTRA.REPUL.0>
0

>  <SCORE.INTRA.SOLV>
0.246522

>  <SCORE.INTRA.SOLV.lig_0>
-73.766

>  <SCORE.INTRA.VDW>
-0.507201

>  <SCORE.INTRA.VDW.0>
-1.95055

>  <SCORE.INTRA.norm>
-0.0356987

>  <SCORE.RESTR>
0

>  <SCORE.RESTR.CAVITY>
0

>  <SCORE.RESTR.norm>
0

>  <SCORE.SYSTEM>
0

>  <SCORE.SYSTEM.CONST>
0

>  <SCORE.SYSTEM.DIHEDRAL>
0

>  <SCORE.SYSTEM.SOLV>
0

>  <SCORE.SYSTEM.norm>
0

>  <SCORE.heavy>
22

>  <SCORE.norm>
-0.333155

>  <RMSD>
6.634

$$$$
ligand
 OpenBabel11021811513D
libRbt.so/2013.1/901 2013/11/27
 22 23  0  0  0  0  0  0  0  0999 V2000
   29.1353   -3.8133  107.2554 N   0  0  0  0  0  0  0  0  0  0  0  0
   31.0704   -1.0826  106.5422 C   0  0  1  0  0  0  0  0  0  0  0  0
   30.2788   -2.1948  105.9965 O   0  0  0  0  0  0  0  0  0  0  0  0
   33.4077   -3.3120  108.5846 P   0  0  2  0  0  0  0  0  0  0  0  0
   29.1911   -2.4535  106.9325 C   0  0  2  0  0  0  0  0  0  0  0  0
   29.7179   -5.8055  107.9649 N   0  0  0  0  0  0  0  0  0  0  0  0
   28.2503   -1.1682  108.7158 O   0  0  0  0  0  0  0  0  0  0  0  0
   29.4728   -1.6511  108.1391 C   0  0  2  0  0  0  0  0  0  0  0  0
   27.0701   -7.6124  106.3589 N   0  0  0  0  0  0  0  0  0  0  0  0
   29.4459    0.5333  107.2058 O   0  0  0  0  0  0  0  0  0  0  0  0
   30.3009   -0.5354  107.6682 C   0  0  2  0  0  0  0  0  0  0  0  0
   28.4411   -5.8784  107.5414 C   0  0  0  0  0  0  0  0  0  0  0  0
   26.7909   -4.2600  106.5549 N   0  0  0  0  0  0  0  0  0  0  0  0
   32.1659   -2.6443  107.9090 O   0  0  0  0  0  0  0  0  0  0  0  0
   32.3794   -1.5863  107.0254 C   0  0  0  0  0  0  0  0  0  0  0  0
   34.5405   -3.5651  107.5027 O   0  0  0  0  0  0  0  0  0  0  0  0
   30.1300   -4.5285  107.7822 C   0  0  0  0  0  0  0  0  0  0  0  0
   27.3336   -7.6626  108.6209 O   0  0  0  0  0  0  0  0  0  0  0  0
   27.5862   -7.1069  107.5548 C   0  0  0  0  0  0  0  0  0  0  0  0
   28.0583   -4.6246  107.0874 C   0  0  0  0  0  0  0  0  0  0  0  0
   33.0345   -4.5687  109.2721 O   0  5  0  0  0  0  0  0  0  0  0  0
   33.9210   -2.4861  109.7108 O   0  0  0  0  0  0  0  0  0  0  0  0
  1 17  1  0  0  0  0
  1 20  1  0  0  0  0
  2 15  1  1  0  0  0
  2  3  1  0  0  0  0
  2 11  1  0  0  0  0
  3  5  1  0  0  0  0
  4 16  1  6  0  0  0
  4 21  1  0  0  0  0
  4 22  2  0  0  0  0
  4 14  1  0  0  0  0
  5  1  1  1  0  0  0
  5  8  1  0  0  0  0
  6 17  2  0  0  0  0
  6 12  1  0  0  0  0
  8  7  1  6  0  0  0
  8 11  1  0  0  0  0
  9 19  1  0  0  0  0
 11 10  1  6  0  0  0
 12 20  2  0  0  0  0
 12 19  1  0  0  0  0
 13 20  1  0  0  0  0
 14 15  1  0  0  0  0
 18 19  2  0  0  0  0
M  CHG  1  21  -1
M  END
>  <CHROM.1>
57.23281299,-53.17265737,-45.22157134,-178.18861928,-119.56712151,30.33840561
-3.48285937,107.71262663,2.50486478,0.24111976,3.00726114

>  <Name>
ligand

>  <RI>
0

>  <Rbt.Current_Directory>
/home/itssahil/PROJECTS/Mol_Feturizer/New_Systems/rnas/4XW7

>  <Rbt.Executable>
rbdock ($Id: //depot/dev/client3/rdock/2013.1/src/exe/rbdock.cxx#4 $)

>  <Rbt.Library>
libRbt.so (2013.1, Build901 2013/11/27)

>  <Rbt.Parameter_File>
/export/apps/rDock/src/rDock_2013.1_src/data/scripts/dock_solv.prm

>  <Rbt.Receptor>
prm/pocket_docking_4.prm

>  <SCORE>
-7.89212

>  <SCORE.INTER>
-7.07606

>  <SCORE.INTER.CONST>
1

>  <SCORE.INTER.POLAR>
0

>  <SCORE.INTER.ROT>
5

>  <SCORE.INTER.SOLV>
12.0716

>  <SCORE.INTER.VDW>
-15.6746

>  <SCORE.INTER.norm>
-0.321639

>  <SCORE.INTRA>
-0.818293

>  <SCORE.INTRA.DIHEDRAL>
-0.613798

>  <SCORE.INTRA.DIHEDRAL.0>
2.61549

>  <SCORE.INTRA.POLAR>
0

>  <SCORE.INTRA.POLAR.0>
0

>  <SCORE.INTRA.REPUL>
0

>  <SCORE.INTRA.REPUL.0>
0

>  <SCORE.INTRA.SOLV>
0.46282

>  <SCORE.INTRA.SOLV.lig_0>
-73.766

>  <SCORE.INTRA.VDW>
-0.742804

>  <SCORE.INTRA.VDW.0>
-1.95055

>  <SCORE.INTRA.norm>
-0.0371951

>  <SCORE.RESTR>
0.00223635

>  <SCORE.RESTR.CAVITY>
0.00223635

>  <SCORE.RESTR.norm>
0.000101652

>  <SCORE.SYSTEM>
0

>  <SCORE.SYSTEM.CONST>
0

>  <SCORE.SYSTEM.DIHEDRAL>
0

>  <SCORE.SYSTEM.SOLV>
0

>  <SCORE.SYSTEM.norm>
0

>  <SCORE.heavy>
22

>  <SCORE.norm>
-0.358733

>  <RMSD>
6.634

$$$$
ligand
 OpenBabel11021811513D
libRbt.so/2013.1/901 2013/11/27
 22 23  0  0  0  0  0  0  0  0999 V2000
   28.0413   -3.2352  105.1016 N   0  0  0  0  0  0  0  0  0  0  0  0
   30.1114   -0.5861  105.7394 C   0  0  1  0  0  0  0  0  0  0  0  0
   29.8261   -1.7290  104.8599 O   0  0  0  0  0  0  0  0  0  0  0  0
   32.6773   -2.4411  107.8769 P   0  0  2  0  0  0  0  0  0  0  0  0
   28.3788   -1.9047  104.8325 C   0  0  2  0  0  0  0  0  0  0  0  0
   27.8545   -5.1636  106.1301 N   0  0  0  0  0  0  0  0  0  0  0  0
   26.5632   -0.4776  105.4520 O   0  0  0  0  0  0  0  0  0  0  0  0
   27.8259   -1.0150  105.8726 C   0  0  2  0  0  0  0  0  0  0  0  0
   26.5584   -7.6752  105.1743 N   0  0  0  0  0  0  0  0  0  0  0  0
   28.5595    1.0917  105.0559 O   0  0  0  0  0  0  0  0  0  0  0  0
   28.8197    0.0532  106.0259 C   0  0  2  0  0  0  0  0  0  0  0  0
   27.2380   -5.2738  104.9373 C   0  0  0  0  0  0  0  0  0  0  0  0
   26.8389   -3.7433  102.9844 N   0  0  0  0  0  0  0  0  0  0  0  0
   31.9066   -1.7472  106.7069 O   0  0  0  0  0  0  0  0  0  0  0  0
   30.7268   -1.0640  107.0018 C   0  0  0  0  0  0  0  0  0  0  0  0
   33.9921   -3.1346  107.3217 O   0  0  0  0  0  0  0  0  0  0  0  0
   28.3431   -3.9035  106.2155 C   0  0  0  0  0  0  0  0  0  0  0  0
   26.0005   -6.4720  103.3224 O   0  0  0  0  0  0  0  0  0  0  0  0
   26.5552   -6.5003  104.4181 C   0  0  0  0  0  0  0  0  0  0  0  0
   27.3493   -4.0607  104.2735 C   0  0  0  0  0  0  0  0  0  0  0  0
   31.8165   -3.4157  108.5841 O   0  5  0  0  0  0  0  0  0  0  0  0
   33.0015   -1.4742  108.9605 O   0  0  0  0  0  0  0  0  0  0  0  0
  1 17  1  0  0  0  0
  1 20  1  0  0  0  0
  2 15  1  1  0  0  0
  2  3  1  0  0  0  0
  2 11  1  0  0  0  0
  3  5  1  0  0  0  0
  4 16  1  6  0  0  0
  4 21  1  0  0  0  0
  4 22  2  0  0  0  0
  4 14  1  0  0  0  0
  5  1  1  1  0  0  0
  5  8  1  0  0  0  0
  6 17  2  0  0  0  0
  6 12  1  0  0  0  0
  8  7  1  6  0  0  0
  8 11  1  0  0  0  0
  9 19  1  0  0  0  0
 11 10  1  6  0  0  0
 12 20  2  0  0  0  0
 12 19  1  0  0  0  0
 13 20  1  0  0  0  0
 14 15  1  0  0  0  0
 18 19  2  0  0  0  0
M  CHG  1  21  -1
M  END
>  <CHROM.1>
59.68321314,59.22513040,-179.14030729,-175.34225508,-2.04226939,29.33220324
-2.81902026,105.92104959,2.67749031,0.54875935,3.09948914

>  <Name>
ligand

>  <RI>
0

>  <Rbt.Current_Directory>
/home/itssahil/PROJECTS/Mol_Feturizer/New_Systems/rnas/4XW7

>  <Rbt.Executable>
rbdock ($Id: //depot/dev/client3/rdock/2013.1/src/exe/rbdock.cxx#4 $)

>  <Rbt.Library>
libRbt.so (2013.1, Build901 2013/11/27)

>  <Rbt.Parameter_File>
/export/apps/rDock/src/rDock_2013.1_src/data/scripts/dock_solv.prm

>  <Rbt.Receptor>
prm/pocket_docking_4.prm

>  <SCORE>
-7.24444

>  <SCORE.INTER>
-6.49635

>  <SCORE.INTER.CONST>
1

>  <SCORE.INTER.POLAR>
0

>  <SCORE.INTER.ROT>
5

>  <SCORE.INTER.SOLV>
10.3643

>  <SCORE.INTER.VDW>
-14.719

>  <SCORE.INTER.norm>
-0.295289

>  <SCORE.INTRA>
-0.748091

>  <SCORE.INTRA.DIHEDRAL>
-1.02368

>  <SCORE.INTRA.DIHEDRAL.0>
2.61549

>  <SCORE.INTRA.POLAR>
0

>  <SCORE.INTRA.POLAR.0>
0

>  <SCORE.INTRA.REPUL>
0

>  <SCORE.INTRA.REPUL.0>
0

>  <SCORE.INTRA.SOLV>
-0.0318695

>  <SCORE.INTRA.SOLV.lig_0>
-73.766

>  <SCORE.INTRA.VDW>
-0.220316

>  <SCORE.INTRA.VDW.0>
-1.95055

>  <SCORE.INTRA.norm>
-0.0340042

>  <SCORE.RESTR>
0

>  <SCORE.RESTR.CAVITY>
0

>  <SCORE.RESTR.norm>
0

>  <SCORE.SYSTEM>
0

>  <SCORE.SYSTEM.CONST>
0

>  <SCORE.SYSTEM.DIHEDRAL>
0

>  <SCORE.SYSTEM.SOLV>
0

>  <SCORE.SYSTEM.norm>
0

>  <SCORE.heavy>
22

>  <SCORE.norm>
-0.329293

>  <RMSD>
6.635

$$$$
ligand
 OpenBabel11021811513D
libRbt.so/2013.1/901 2013/11/27
 22 23  0  0  0  0  0  0  0  0999 V2000
   28.0664   -3.2217  105.3366 N   0  0  0  0  0  0  0  0  0  0  0  0
   30.1729   -0.5830  105.8935 C   0  0  1  0  0  0  0  0  0  0  0  0
   29.8550   -1.7315  105.0325 O   0  0  0  0  0  0  0  0  0  0  0  0
   32.7028   -2.5450  107.9773 P   0  0  2  0  0  0  0  0  0  0  0  0
   28.4063   -1.8962  105.0463 C   0  0  2  0  0  0  0  0  0  0  0  0
   27.9421   -5.1579  106.3599 N   0  0  0  0  0  0  0  0  0  0  0  0
   26.6190   -0.4498  105.7022 O   0  0  0  0  0  0  0  0  0  0  0  0
   27.8887   -0.9932  106.0930 C   0  0  2  0  0  0  0  0  0  0  0  0
   25.0443   -6.3846  104.6688 N   0  0  0  0  0  0  0  0  0  0  0  0
   28.6153    1.1005  105.2374 O   0  0  0  0  0  0  0  0  0  0  0  0
   28.8942    0.0687  106.2094 C   0  0  2  0  0  0  0  0  0  0  0  0
   27.2000   -5.2386  105.2385 C   0  0  0  0  0  0  0  0  0  0  0  0
   26.6338   -3.6748  103.3544 N   0  0  0  0  0  0  0  0  0  0  0  0
   31.9271   -1.8373  106.8189 O   0  0  0  0  0  0  0  0  0  0  0  0
   30.8190   -1.0544  107.1429 C   0  0  0  0  0  0  0  0  0  0  0  0
   33.9533   -3.3269  107.3916 O   0  0  0  0  0  0  0  0  0  0  0  0
   28.4681   -3.9108  106.4053 C   0  0  0  0  0  0  0  0  0  0  0  0
   27.0350   -7.4812  104.5184 O   0  0  0  0  0  0  0  0  0  0  0  0
   26.4356   -6.4421  104.7828 C   0  0  0  0  0  0  0  0  0  0  0  0
   27.2702   -4.0202  104.5786 C   0  0  0  0  0  0  0  0  0  0  0  0
   31.8166   -3.4505  108.7428 O   0  5  0  0  0  0  0  0  0  0  0  0
   33.1237   -1.5717  109.0211 O   0  0  0  0  0  0  0  0  0  0  0  0
  1 17  1  0  0  0  0
  1 20  1  0  0  0  0
  2 15  1  1  0  0  0
  2  3  1  0  0  0  0
  2 11  1  0  0  0  0
  3  5  1  0  0  0  0
  4 16  1  6  0  0  0
  4 21  1  0  0  0  0
  4 22  2  0  0  0  0
  4 14  1  0  0  0  0
  5  1  1  1  0  0  0
  5  8  1  0  0  0  0
  6 17  2  0  0  0  0
  6 12  1  0  0  0  0
  8  7  1  6  0  0  0
  8 11  1  0  0  0  0
  9 19  1  0  0  0  0
 11 10  1  6  0  0  0
 12 20  2  0  0  0  0
 12 19  1  0  0  0  0
 13 20  1  0  0  0  0
 14 15  1  0  0  0  0
 18 19  2  0  0  0  0
M  CHG  1  21  -1
M  END
>  <CHROM.1>
54.90582122,54.63657311,-177.65757405,-175.05339702,117.27614941,29.33720615
-2.83074769,106.13040918,2.69473701,0.50171956,3.09686499

>  <Name>
ligand

>  <RI>
0

>  <Rbt.Current_Directory>
/home/itssahil/PROJECTS/Mol_Feturizer/New_Systems/rnas/4XW7

>  <Rbt.Executable>
rbdock ($Id: //depot/dev/client3/rdock/2013.1/src/exe/rbdock.cxx#4 $)

>  <Rbt.Library>
libRbt.so (2013.1, Build901 2013/11/27)

>  <Rbt.Parameter_File>
/export/apps/rDock/src/rDock_2013.1_src/data/scripts/dock_solv.prm

>  <Rbt.Receptor>
prm/pocket_docking_5.prm

>  <SCORE>
-7.29056

>  <SCORE.INTER>
-6.42301

>  <SCORE.INTER.CONST>
1

>  <SCORE.INTER.POLAR>
0

>  <SCORE.INTER.ROT>
5

>  <SCORE.INTER.SOLV>
9.81491

>  <SCORE.INTER.VDW>
-14.487

>  <SCORE.INTER.norm>
-0.291955

>  <SCORE.INTRA>
-0.867548

>  <SCORE.INTRA.DIHEDRAL>
-0.904762

>  <SCORE.INTRA.DIHEDRAL.0>
2.61549

>  <SCORE.INTRA.POLAR>
0

>  <SCORE.INTRA.POLAR.0>
0

>  <SCORE.INTRA.REPUL>
0

>  <SCORE.INTRA.REPUL.0>
0

>  <SCORE.INTRA.SOLV>
0.0715741

>  <SCORE.INTRA.SOLV.lig_0>
-73.766

>  <SCORE.INTRA.VDW>
-0.450953

>  <SCORE.INTRA.VDW.0>
-1.95055

>  <SCORE.INTRA.norm>
-0.039434

>  <SCORE.RESTR>
0

>  <SCORE.RESTR.CAVITY>
0

>  <SCORE.RESTR.norm>
0

>  <SCORE.SYSTEM>
0

>  <SCORE.SYSTEM.CONST>
0

>  <SCORE.SYSTEM.DIHEDRAL>
0

>  <SCORE.SYSTEM.SOLV>
0

>  <SCORE.SYSTEM.norm>
0

>  <SCORE.heavy>
22

>  <SCORE.norm>
-0.331389

>  <RMSD>
6.635

$$$$
ligand
 OpenBabel11021811513D
libRbt.so/2013.1/901 2013/11/27
 22 23  0  0  0  0  0  0  0  0999 V2000
   29.1317   -3.7862  107.2684 N   0  0  0  0  0  0  0  0  0  0  0  0
   31.0746   -1.0607  106.5565 C   0  0  1  0  0  0  0  0  0  0  0  0
   30.2861   -2.1748  106.0103 O   0  0  0  0  0  0  0  0  0  0  0  0
   33.3965   -3.3161  108.5879 P   0  0  2  0  0  0  0  0  0  0  0  0
   29.1912   -2.4280  106.9394 C   0  0  2  0  0  0  0  0  0  0  0  0
   29.7014   -5.7715  108.0073 N   0  0  0  0  0  0  0  0  0  0  0  0
   28.2384   -1.1334  108.7095 O   0  0  0  0  0  0  0  0  0  0  0  0
   29.4647   -1.6201  108.1442 C   0  0  2  0  0  0  0  0  0  0  0  0
   26.3606   -7.0909  108.2035 N   0  0  0  0  0  0  0  0  0  0  0  0
   29.4467    0.5598  107.2004 O   0  0  0  0  0  0  0  0  0  0  0  0
   30.2973   -0.5074  107.6742 C   0  0  2  0  0  0  0  0  0  0  0  0
   28.4387   -5.8530  107.5448 C   0  0  0  0  0  0  0  0  0  0  0  0
   26.8124   -4.2483  106.4981 N   0  0  0  0  0  0  0  0  0  0  0  0
   32.1603   -2.6421  107.9084 O   0  0  0  0  0  0  0  0  0  0  0  0
   32.3795   -1.5632  107.0518 C   0  0  0  0  0  0  0  0  0  0  0  0
   34.5331   -3.5714  107.5104 O   0  0  0  0  0  0  0  0  0  0  0  0
   30.1129   -4.4936  107.8300 C   0  0  0  0  0  0  0  0  0  0  0  0
   27.9811   -8.0933  106.9556 O   0  0  0  0  0  0  0  0  0  0  0  0
   27.5895   -7.0856  107.5388 C   0  0  0  0  0  0  0  0  0  0  0  0
   28.0643   -4.6036  107.0718 C   0  0  0  0  0  0  0  0  0  0  0  0
   33.0154   -4.5727  109.2712 O   0  5  0  0  0  0  0  0  0  0  0  0
   33.9082   -2.4945  109.7181 O   0  0  0  0  0  0  0  0  0  0  0  0
  1 17  1  0  0  0  0
  1 20  1  0  0  0  0
  2 15  1  1  0  0  0
  2  3  1  0  0  0  0
  2 11  1  0  0  0  0
  3  5  1  0  0  0  0
  4 16  1  6  0  0  0
  4 21  1  0  0  0  0
  4 22  2  0  0  0  0
  4 14  1  0  0  0  0
  5  1  1  1  0  0  0
  5  8  1  0  0  0  0
  6 17  2  0  0  0  0
  6 12  1  0  0  0  0
  8  7  1  6  0  0  0
  8 11  1  0  0  0  0
  9 19  1  0  0  0  0
 11 10  1  6  0  0  0
 12 20  2  0  0  0  0
 12 19  1  0  0  0  0
 13 20  1  0  0  0  0
 14 15  1  0  0  0  0
 18 19  2  0  0  0  0
M  CHG  1  21  -1
M  END
>  <CHROM.1>
58.62717951,-51.44858947,-46.67698033,-178.36670858,121.69869249,30.33566572
-3.46678870,107.71429791,2.50018582,0.22037497,3.03176722

>  <Name>
ligand

>  <RI>
0

>  <Rbt.Current_Directory>
/home/itssahil/PROJECTS/Mol_Feturizer/New_Systems/rnas/4XW7

>  <Rbt.Executable>
rbdock ($Id: //depot/dev/client3/rdock/2013.1/src/exe/rbdock.cxx#4 $)

>  <Rbt.Library>
libRbt.so (2013.1, Build901 2013/11/27)

>  <Rbt.Parameter_File>
/export/apps/rDock/src/rDock_2013.1_src/data/scripts/dock_solv.prm

>  <Rbt.Receptor>
prm/pocket_docking_4.prm

>  <SCORE>
-7.87156

>  <SCORE.INTER>
-7.05935

>  <SCORE.INTER.CONST>
1

>  <SCORE.INTER.POLAR>
0

>  <SCORE.INTER.ROT>
5

>  <SCORE.INTER.SOLV>
11.9414

>  <SCORE.INTER.VDW>
-15.62

>  <SCORE.INTER.norm>
-0.320879

>  <SCORE.INTRA>
-0.812477

>  <SCORE.INTRA.DIHEDRAL>
-0.579563

>  <SCORE.INTRA.DIHEDRAL.0>
2.61549

>  <SCORE.INTRA.POLAR>
0

>  <SCORE.INTRA.POLAR.0>
0

>  <SCORE.INTRA.REPUL>
0

>  <SCORE.INTRA.REPUL.0>
0

>  <SCORE.INTRA.SOLV>
0.456442

>  <SCORE.INTRA.SOLV.lig_0>
-73.766

>  <SCORE.INTRA.VDW>
-0.750917

>  <SCORE.INTRA.VDW.0>
-1.95055

>  <SCORE.INTRA.norm>
-0.0369308

>  <SCORE.RESTR>
0.000261801

>  <SCORE.RESTR.CAVITY>
0.000261801

>  <SCORE.RESTR.norm>
1.19e-05

>  <SCORE.SYSTEM>
0

>  <SCORE.SYSTEM.CONST>
0

>  <SCORE.SYSTEM.DIHEDRAL>
0

>  <SCORE.SYSTEM.SOLV>
0

>  <SCORE.SYSTEM.norm>
0

>  <SCORE.heavy>
22

>  <SCORE.norm>
-0.357798

>  <RMSD>
6.636

$$$$
ligand
 OpenBabel11021811513D
libRbt.so/2013.1/901 2013/11/27
 22 23  0  0  0  0  0  0  0  0999 V2000
   28.1701   -2.9460  104.1531 N   0  0  0  0  0  0  0  0  0  0  0  0
   29.9007   -0.3886  105.6279 C   0  0  1  0  0  0  0  0  0  0  0  0
   29.8499   -1.3458  104.5132 O   0  0  0  0  0  0  0  0  0  0  0  0
   32.2641   -2.4319  107.8291 P   0  0  2  0  0  0  0  0  0  0  0  0
   28.4440   -1.5751  104.2018 C   0  0  2  0  0  0  0  0  0  0  0  0
   27.8100   -5.0161  104.7830 N   0  0  0  0  0  0  0  0  0  0  0  0
   26.4482   -0.3793  104.7531 O   0  0  0  0  0  0  0  0  0  0  0  0
   27.6634   -0.9342  105.2783 C   0  0  2  0  0  0  0  0  0  0  0  0
   28.3587   -6.5905  101.6415 N   0  0  0  0  0  0  0  0  0  0  0  0
   28.3565    1.3224  105.0126 O   0  0  0  0  0  0  0  0  0  0  0  0
   28.5345    0.1245  105.8003 C   0  0  2  0  0  0  0  0  0  0  0  0
   27.7048   -4.9718  103.4406 C   0  0  0  0  0  0  0  0  0  0  0  0
   27.9163   -3.1812  101.6900 N   0  0  0  0  0  0  0  0  0  0  0  0
   31.5919   -1.6526  106.6523 O   0  0  0  0  0  0  0  0  0  0  0  0
   30.3378   -1.0802  106.8653 C   0  0  0  0  0  0  0  0  0  0  0  0
   33.6518   -3.0370  107.3536 O   0  0  0  0  0  0  0  0  0  0  0  0
   28.0964   -3.7617  105.2055 C   0  0  0  0  0  0  0  0  0  0  0  0
   26.3022   -6.6832  102.6164 O   0  0  0  0  0  0  0  0  0  0  0  0
   27.4000   -6.1359  102.5505 C   0  0  0  0  0  0  0  0  0  0  0  0
   27.9319   -3.6674  103.0266 C   0  0  0  0  0  0  0  0  0  0  0  0
   31.3709   -3.4898  108.3528 O   0  5  0  0  0  0  0  0  0  0  0  0
   32.4430   -1.5617  109.0228 O   0  0  0  0  0  0  0  0  0  0  0  0
  1 17  1  0  0  0  0
  1 20  1  0  0  0  0
  2 15  1  1  0  0  0
  2  3  1  0  0  0  0
  2 11  1  0  0  0  0
  3  5  1  0  0  0  0
  4 16  1  6  0  0  0
  4 21  1  0  0  0  0
  4 22  2  0  0  0  0
  4 14  1  0  0  0  0
  5  1  1  1  0  0  0
  5  8  1  0  0  0  0
  6 17  2  0  0  0  0
  6 12  1  0  0  0  0
  8  7  1  6  0  0  0
  8 11  1  0  0  0  0
  9 19  1  0  0  0  0
 11 10  1  6  0  0  0
 12 20  2  0  0  0  0
 12 19  1  0  0  0  0
 13 20  1  0  0  0  0
 14 15  1  0  0  0  0
 18 19  2  0  0  0  0
M  CHG  1  21  -1
M  END
>  <CHROM.1>
72.94164442,58.55488372,178.07327061,179.58750567,-114.55841313,29.35914778
-2.63364660,105.24412930,2.49886873,0.69741773,-2.85580206

>  <Name>
ligand

>  <RI>
0

>  <Rbt.Current_Directory>
/home/itssahil/PROJECTS/Mol_Feturizer/New_Systems/rnas/4XW7

>  <Rbt.Executable>
rbdock ($Id: //depot/dev/client3/rdock/2013.1/src/exe/rbdock.cxx#4 $)

>  <Rbt.Library>
libRbt.so (2013.1, Build901 2013/11/27)

>  <Rbt.Parameter_File>
/export/apps/rDock/src/rDock_2013.1_src/data/scripts/dock_solv.prm

>  <Rbt.Receptor>
prm/pocket_docking_7.prm

>  <SCORE>
-7.9546

>  <SCORE.INTER>
-7.2062

>  <SCORE.INTER.CONST>
1

>  <SCORE.INTER.POLAR>
0

>  <SCORE.INTER.ROT>
5

>  <SCORE.INTER.SOLV>
10.4239

>  <SCORE.INTER.VDW>
-15.2121

>  <SCORE.INTER.norm>
-0.327555

>  <SCORE.INTRA>
-0.748399

>  <SCORE.INTRA.DIHEDRAL>
-1.08663

>  <SCORE.INTRA.DIHEDRAL.0>
2.61549

>  <SCORE.INTRA.POLAR>
0

>  <SCORE.INTRA.POLAR.0>
0

>  <SCORE.INTRA.REPUL>
0

>  <SCORE.INTRA.REPUL.0>
0

>  <SCORE.INTRA.SOLV>
-0.27277

>  <SCORE.INTRA.SOLV.lig_0>
-73.766

>  <SCORE.INTRA.VDW>
-0.0686987

>  <SCORE.INTRA.VDW.0>
-1.95055

>  <SCORE.INTRA.norm>
-0.0340181

>  <SCORE.RESTR>
0

>  <SCORE.RESTR.CAVITY>
0

>  <SCORE.RESTR.norm>
0

>  <SCORE.SYSTEM>
0

>  <SCORE.SYSTEM.CONST>
0

>  <SCORE.SYSTEM.DIHEDRAL>
0

>  <SCORE.SYSTEM.SOLV>
0

>  <SCORE.SYSTEM.norm>
0

>  <SCORE.heavy>
22

>  <SCORE.norm>
-0.361573

>  <RMSD>
6.636

$$$$
ligand
 OpenBabel11021811513D
libRbt.so/2013.1/901 2013/11/27
 22 23  0  0  0  0  0  0  0  0999 V2000
   29.1407   -3.8024  107.2876 N   0  0  0  0  0  0  0  0  0  0  0  0
   31.0673   -1.0679  106.5659 C   0  0  1  0  0  0  0  0  0  0  0  0
   30.2762   -2.1821  106.0237 O   0  0  0  0  0  0  0  0  0  0  0  0
   33.4175   -3.3119  108.5773 P   0  0  2  0  0  0  0  0  0  0  0  0
   29.1924   -2.4426  106.9637 C   0  0  2  0  0  0  0  0  0  0  0  0
   29.7307   -5.7934  107.9943 N   0  0  0  0  0  0  0  0  0  0  0  0
   28.2553   -1.1584  108.7497 O   0  0  0  0  0  0  0  0  0  0  0  0
   29.4767   -1.6390  108.1688 C   0  0  2  0  0  0  0  0  0  0  0  0
   27.1357   -7.6466  106.3989 N   0  0  0  0  0  0  0  0  0  0  0  0
   29.4418    0.5449  107.2346 O   0  0  0  0  0  0  0  0  0  0  0  0
   30.3007   -0.5218  107.6944 C   0  0  2  0  0  0  0  0  0  0  0  0
   28.4515   -5.8684  107.5786 C   0  0  0  0  0  0  0  0  0  0  0  0
   26.7928   -4.2530  106.6015 N   0  0  0  0  0  0  0  0  0  0  0  0
   32.1721   -2.6434  107.9092 O   0  0  0  0  0  0  0  0  0  0  0  0
   32.3791   -1.5685  107.0446 C   0  0  0  0  0  0  0  0  0  0  0  0
   34.5520   -3.5459  107.4929 O   0  0  0  0  0  0  0  0  0  0  0  0
   30.1397   -4.5158  107.8086 C   0  0  0  0  0  0  0  0  0  0  0  0
   27.3007   -7.6173  108.6705 O   0  0  0  0  0  0  0  0  0  0  0  0
   27.5986   -7.0983  107.5978 C   0  0  0  0  0  0  0  0  0  0  0  0
   28.0640   -4.6154  107.1265 C   0  0  0  0  0  0  0  0  0  0  0  0
   33.0513   -4.5786  109.2501 O   0  5  0  0  0  0  0  0  0  0  0  0
   33.9259   -2.4962  109.7132 O   0  0  0  0  0  0  0  0  0  0  0  0
  1 17  1  0  0  0  0
  1 20  1  0  0  0  0
  2 15  1  1  0  0  0
  2  3  1  0  0  0  0
  2 11  1  0  0  0  0
  3  5  1  0  0  0  0
  4 16  1  6  0  0  0
  4 21  1  0  0  0  0
  4 22  2  0  0  0  0
  4 14  1  0  0  0  0
  5  1  1  1  0  0  0
  5  8  1  0  0  0  0
  6 17  2  0  0  0  0
  6 12  1  0  0  0  0
  8  7  1  6  0  0  0
  8 11  1  0  0  0  0
  9 19  1  0  0  0  0
 11 10  1  6  0  0  0
 12 20  2  0  0  0  0
 12 19  1  0  0  0  0
 13 20  1  0  0  0  0
 14 15  1  0  0  0  0
 18 19  2  0  0  0  0
M  CHG  1  21  -1
M  END
>  <CHROM.1>
57.08635667,-52.02102386,-45.62298148,-178.18581579,-116.11051789,30.34464739
-3.47488128,107.73411168,2.50122185,0.23077932,3.01038638

>  <Name>
ligand

>  <RI>
0

>  <Rbt.Current_Directory>
/home/itssahil/PROJECTS/Mol_Feturizer/New_Systems/rnas/4XW7

>  <Rbt.Executable>
rbdock ($Id: //depot/dev/client3/rdock/2013.1/src/exe/rbdock.cxx#4 $)

>  <Rbt.Library>
libRbt.so (2013.1, Build901 2013/11/27)

>  <Rbt.Parameter_File>
/export/apps/rDock/src/rDock_2013.1_src/data/scripts/dock_solv.prm

>  <Rbt.Receptor>
prm/pocket_docking_4.prm

>  <SCORE>
-7.85371

>  <SCORE.INTER>
-7.05266

>  <SCORE.INTER.CONST>
1

>  <SCORE.INTER.POLAR>
0

>  <SCORE.INTER.ROT>
5

>  <SCORE.INTER.SOLV>
12.1422

>  <SCORE.INTER.VDW>
-15.6825

>  <SCORE.INTER.norm>
-0.320575

>  <SCORE.INTRA>
-0.802273

>  <SCORE.INTRA.DIHEDRAL>
-0.552893

>  <SCORE.INTRA.DIHEDRAL.0>
2.61549

>  <SCORE.INTRA.POLAR>
0

>  <SCORE.INTRA.POLAR.0>
0

>  <SCORE.INTRA.REPUL>
0

>  <SCORE.INTRA.REPUL.0>
0

>  <SCORE.INTRA.SOLV>
0.462076

>  <SCORE.INTRA.SOLV.lig_0>
-73.766

>  <SCORE.INTRA.VDW>
-0.756864

>  <SCORE.INTRA.VDW.0>
-1.95055

>  <SCORE.INTRA.norm>
-0.0364669

>  <SCORE.RESTR>
0.00122202

>  <SCORE.RESTR.CAVITY>
0.00122202

>  <SCORE.RESTR.norm>
5.55465e-05

>  <SCORE.SYSTEM>
0

>  <SCORE.SYSTEM.CONST>
0

>  <SCORE.SYSTEM.DIHEDRAL>
0

>  <SCORE.SYSTEM.SOLV>
0

>  <SCORE.SYSTEM.norm>
0

>  <SCORE.heavy>
22

>  <SCORE.norm>
-0.356987

>  <RMSD>
6.637

$$$$
ligand
 OpenBabel11021811513D
libRbt.so/2013.1/901 2013/11/27
 22 23  0  0  0  0  0  0  0  0999 V2000
   31.7074   -5.1081  108.8090 N   0  0  0  0  0  0  0  0  0  0  0  0
   30.9728   -1.9272  107.7833 C   0  0  1  0  0  0  0  0  0  0  0  0
   30.8442   -2.9253  108.8551 O   0  0  0  0  0  0  0  0  0  0  0  0
   28.8592   -1.1873  104.6886 P   0  0  2  0  0  0  0  0  0  0  0  0
   32.0456   -3.7510  108.8254 C   0  0  2  0  0  0  0  0  0  0  0  0
   30.5992   -6.9687  108.4597 N   0  0  0  0  0  0  0  0  0  0  0  0
   34.1926   -3.4491  107.8173 O   0  0  0  0  0  0  0  0  0  0  0  0
   32.7759   -3.3896  107.5946 C   0  0  2  0  0  0  0  0  0  0  0  0
   32.5078   -8.9729  110.7691 N   0  0  0  0  0  0  0  0  0  0  0  0
   33.1942   -1.0893  108.0151 O   0  0  0  0  0  0  0  0  0  0  0  0
   32.3550   -2.0170  107.2926 C   0  0  2  0  0  0  0  0  0  0  0  0
   31.7565   -7.2893  109.0702 C   0  0  0  0  0  0  0  0  0  0  0  0
   33.7425   -6.0062  109.9216 N   0  0  0  0  0  0  0  0  0  0  0  0
   29.8985   -1.1302  105.8551 O   0  0  0  0  0  0  0  0  0  0  0  0
   30.0277   -2.2441  106.6847 C   0  0  0  0  0  0  0  0  0  0  0  0
   27.6022   -2.0511  105.1265 O   0  0  0  0  0  0  0  0  0  0  0  0
   30.5847   -5.6233  108.3063 C   0  0  0  0  0  0  0  0  0  0  0  0
   32.2822   -9.5371  108.5738 O   0  0  0  0  0  0  0  0  0  0  0  0
   32.1932   -8.6720  109.4414 C   0  0  0  0  0  0  0  0  0  0  0  0
   32.4687   -6.1210  109.2996 C   0  0  0  0  0  0  0  0  0  0  0  0
   29.4699   -1.7214  103.4504 O   0  5  0  0  0  0  0  0  0  0  0  0
   28.4462    0.1777  104.2637 O   0  0  0  0  0  0  0  0  0  0  0  0
  1 17  1  0  0  0  0
  1 20  1  0  0  0  0
  2 15  1  6  0  0  0
  2  3  1  0  0  0  0
  2 11  1  0  0  0  0
  3  5  1  0  0  0  0
  4 16  1  1  0  0  0
  4 21  1  0  0  0  0
  4 22  2  0  0  0  0
  4 14  1  0  0  0  0
  5  1  1  6  0  0  0
  5  8  1  0  0  0  0
  6 17  2  0  0  0  0
  6 12  1  0  0  0  0
  8  7  1  1  0  0  0
  8 11  1  0  0  0  0
  9 19  1  0  0  0  0
 11 10  1  1  0  0  0
 12 20  2  0  0  0  0
 12 19  1  0  0  0  0
 13 20  1  0  0  0  0
 14 15  1  0  0  0  0
 18 19  2  0  0  0  0
M  CHG  1  21  -1
M  END
>  <CHROM.1>
28.08312598,164.49301017,33.73070926,-175.03755903,-123.05165788,31.12411516
-3.86426797,107.43082638,-1.09606738,-0.60376327,-0.31467061

>  <Name>
ligand

>  <RI>
0

>  <Rbt.Current_Directory>
/home/itssahil/PROJECTS/Mol_Feturizer/New_Systems/rnas/4XW7

>  <Rbt.Executable>
rbdock ($Id: //depot/dev/client3/rdock/2013.1/src/exe/rbdock.cxx#4 $)

>  <Rbt.Library>
libRbt.so (2013.1, Build901 2013/11/27)

>  <Rbt.Parameter_File>
/export/apps/rDock/src/rDock_2013.1_src/data/scripts/dock_solv.prm

>  <Rbt.Receptor>
prm/pocket_docking_8.prm

>  <SCORE>
-5.63657

>  <SCORE.INTER>
-5.85579

>  <SCORE.INTER.CONST>
1

>  <SCORE.INTER.POLAR>
0

>  <SCORE.INTER.ROT>
5

>  <SCORE.INTER.SOLV>
18.428

>  <SCORE.INTER.VDW>
-16.9799

>  <SCORE.INTER.norm>
-0.266172

>  <SCORE.INTRA>
0.216549

>  <SCORE.INTRA.DIHEDRAL>
0.750638

>  <SCORE.INTRA.DIHEDRAL.0>
2.61549

>  <SCORE.INTRA.POLAR>
0

>  <SCORE.INTRA.POLAR.0>
0

>  <SCORE.INTRA.REPUL>
0

>  <SCORE.INTRA.REPUL.0>
0

>  <SCORE.INTRA.SOLV>
0.144281

>  <SCORE.INTRA.SOLV.lig_0>
-73.766

>  <SCORE.INTRA.VDW>
-0.230911

>  <SCORE.INTRA.VDW.0>
-1.95055

>  <SCORE.INTRA.norm>
0.00984311

>  <SCORE.RESTR>
0.00267681

>  <SCORE.RESTR.CAVITY>
0.00267681

>  <SCORE.RESTR.norm>
0.000121673

>  <SCORE.SYSTEM>
0

>  <SCORE.SYSTEM.CONST>
0

>  <SCORE.SYSTEM.DIHEDRAL>
0

>  <SCORE.SYSTEM.SOLV>
0

>  <SCORE.SYSTEM.norm>
0

>  <SCORE.heavy>
22

>  <SCORE.norm>
-0.256208

>  <RMSD>
6.640

$$$$
ligand
 OpenBabel11021811513D
libRbt.so/2013.1/901 2013/11/27
 22 23  0  0  0  0  0  0  0  0999 V2000
   28.0751   -3.2272  105.3456 N   0  0  0  0  0  0  0  0  0  0  0  0
   30.1697   -0.5691  105.8526 C   0  0  1  0  0  0  0  0  0  0  0  0
   29.8550   -1.7331  105.0115 O   0  0  0  0  0  0  0  0  0  0  0  0
   32.7064   -2.4971  107.9592 P   0  0  2  0  0  0  0  0  0  0  0  0
   28.4072   -1.9049  105.0327 C   0  0  2  0  0  0  0  0  0  0  0  0
   27.9953   -5.1598  106.3802 N   0  0  0  0  0  0  0  0  0  0  0  0
   26.6146   -0.4570  105.6708 O   0  0  0  0  0  0  0  0  0  0  0  0
   27.8884   -0.9875  106.0662 C   0  0  2  0  0  0  0  0  0  0  0  0
   24.9978   -6.3719  104.8647 N   0  0  0  0  0  0  0  0  0  0  0  0
   28.6015    1.0955  105.1742 O   0  0  0  0  0  0  0  0  0  0  0  0
   28.8888    0.0812  106.1620 C   0  0  2  0  0  0  0  0  0  0  0  0
   27.1904   -5.2381  105.3027 C   0  0  0  0  0  0  0  0  0  0  0  0
   26.5296   -3.6751  103.4490 N   0  0  0  0  0  0  0  0  0  0  0  0
   31.9308   -1.8028  106.7927 O   0  0  0  0  0  0  0  0  0  0  0  0
   30.8223   -1.0168  107.1074 C   0  0  0  0  0  0  0  0  0  0  0  0
   33.9818   -3.2487  107.3881 O   0  0  0  0  0  0  0  0  0  0  0  0
   28.5317   -3.9164  106.3920 C   0  0  0  0  0  0  0  0  0  0  0  0
   26.9696   -7.4798  104.5949 O   0  0  0  0  0  0  0  0  0  0  0  0
   26.3931   -6.4373  104.8945 C   0  0  0  0  0  0  0  0  0  0  0  0
   27.2317   -4.0220  104.6363 C   0  0  0  0  0  0  0  0  0  0  0  0
   31.8304   -3.4248  108.7097 O   0  5  0  0  0  0  0  0  0  0  0  0
   33.0912   -1.5183  109.0118 O   0  0  0  0  0  0  0  0  0  0  0  0
  1 17  1  0  0  0  0
  1 20  1  0  0  0  0
  2 15  1  1  0  0  0
  2  3  1  0  0  0  0
  2 11  1  0  0  0  0
  3  5  1  0  0  0  0
  4 16  1  6  0  0  0
  4 21  1  0  0  0  0
  4 22  2  0  0  0  0
  4 14  1  0  0  0  0
  5  1  1  1  0  0  0
  5  8  1  0  0  0  0
  6 17  2  0  0  0  0
  6 12  1  0  0  0  0
  8  7  1  6  0  0  0
  8 11  1  0  0  0  0
  9 19  1  0  0  0  0
 11 10  1  6  0  0  0
 12 20  2  0  0  0  0
 12 19  1  0  0  0  0
 13 20  1  0  0  0  0
 14 15  1  0  0  0  0
 18 19  2  0  0  0  0
M  CHG  1  21  -1
M  END
>  <CHROM.1>
51.67822509,54.44533234,-175.96528388,-174.58541975,116.99928951,29.32919063
-2.81485189,106.13834525,2.69964177,0.49354676,3.07381199

>  <Name>
ligand

>  <RI>
0

>  <Rbt.Current_Directory>
/home/itssahil/PROJECTS/Mol_Feturizer/New_Systems/rnas/4XW7

>  <Rbt.Executable>
rbdock ($Id: //depot/dev/client3/rdock/2013.1/src/exe/rbdock.cxx#4 $)

>  <Rbt.Library>
libRbt.so (2013.1, Build901 2013/11/27)

>  <Rbt.Parameter_File>
/export/apps/rDock/src/rDock_2013.1_src/data/scripts/dock_solv.prm

>  <Rbt.Receptor>
prm/pocket_docking_4.prm

>  <SCORE>
-7.27341

>  <SCORE.INTER>
-6.42872

>  <SCORE.INTER.CONST>
1

>  <SCORE.INTER.POLAR>
0

>  <SCORE.INTER.ROT>
5

>  <SCORE.INTER.SOLV>
9.89617

>  <SCORE.INTER.VDW>
-14.5179

>  <SCORE.INTER.norm>
-0.292215

>  <SCORE.INTRA>
-0.844682

>  <SCORE.INTRA.DIHEDRAL>
-0.855816

>  <SCORE.INTRA.DIHEDRAL.0>
2.61549

>  <SCORE.INTRA.POLAR>
0

>  <SCORE.INTRA.POLAR.0>
0

>  <SCORE.INTRA.REPUL>
0

>  <SCORE.INTRA.REPUL.0>
0

>  <SCORE.INTRA.SOLV>
0.173481

>  <SCORE.INTRA.SOLV.lig_0>
-73.766

>  <SCORE.INTRA.VDW>
-0.503515

>  <SCORE.INTRA.VDW.0>
-1.95055

>  <SCORE.INTRA.norm>
-0.0383946

>  <SCORE.RESTR>
0

>  <SCORE.RESTR.CAVITY>
0

>  <SCORE.RESTR.norm>
0

>  <SCORE.SYSTEM>
0

>  <SCORE.SYSTEM.CONST>
0

>  <SCORE.SYSTEM.DIHEDRAL>
0

>  <SCORE.SYSTEM.SOLV>
0

>  <SCORE.SYSTEM.norm>
0

>  <SCORE.heavy>
22

>  <SCORE.norm>
-0.330609

>  <RMSD>
6.642

$$$$
ligand
 OpenBabel11021811513D
libRbt.so/2013.1/901 2013/11/27
 22 23  0  0  0  0  0  0  0  0999 V2000
   28.0539   -3.2864  105.7776 N   0  0  0  0  0  0  0  0  0  0  0  0
   30.3966   -0.8196  106.1474 C   0  0  1  0  0  0  0  0  0  0  0  0
   29.9358   -1.9544  105.3342 O   0  0  0  0  0  0  0  0  0  0  0  0
   32.9056   -2.9171  108.1192 P   0  0  2  0  0  0  0  0  0  0  0  0
   28.4819   -1.9992  105.4362 C   0  0  2  0  0  0  0  0  0  0  0  0
   27.9615   -5.2607  106.7291 N   0  0  0  0  0  0  0  0  0  0  0  0
   26.8601   -0.3983  106.1600 O   0  0  0  0  0  0  0  0  0  0  0  0
   28.1028   -1.0367  106.4892 C   0  0  2  0  0  0  0  0  0  0  0  0
   24.5221   -5.9231  105.8708 N   0  0  0  0  0  0  0  0  0  0  0  0
   28.9439    0.9733  105.5426 O   0  0  0  0  0  0  0  0  0  0  0  0
   29.1962   -0.0590  106.5213 C   0  0  2  0  0  0  0  0  0  0  0  0
   26.9095   -5.1586  105.8937 C   0  0  0  0  0  0  0  0  0  0  0  0
   26.0348   -3.3969  104.3293 N   0  0  0  0  0  0  0  0  0  0  0  0
   32.1329   -2.1501  106.9972 O   0  0  0  0  0  0  0  0  0  0  0  0
   31.0762   -1.3184  107.3680 C   0  0  0  0  0  0  0  0  0  0  0  0
   34.1509   -3.6771  107.4951 O   0  0  0  0  0  0  0  0  0  0  0  0
   28.6552   -4.1006  106.6458 C   0  0  0  0  0  0  0  0  0  0  0  0
   26.2151   -7.3357  105.2995 O   0  0  0  0  0  0  0  0  0  0  0  0
   25.8729   -6.2134  105.6630 C   0  0  0  0  0  0  0  0  0  0  0  0
   26.9553   -3.9140  105.2823 C   0  0  0  0  0  0  0  0  0  0  0  0
   32.0150   -3.8531  108.8416 O   0  5  0  0  0  0  0  0  0  0  0  0
   33.3333   -1.9974  109.2080 O   0  0  0  0  0  0  0  0  0  0  0  0
  1 17  1  0  0  0  0
  1 20  1  0  0  0  0
  2 15  1  1  0  0  0
  2  3  1  0  0  0  0
  2 11  1  0  0  0  0
  3  5  1  0  0  0  0
  4 16  1  6  0  0  0
  4 21  1  0  0  0  0
  4 22  2  0  0  0  0
  4 14  1  0  0  0  0
  5  1  1  1  0  0  0
  5  8  1  0  0  0  0
  6 17  2  0  0  0  0
  6 12  1  0  0  0  0
  8  7  1  6  0  0  0
  8 11  1  0  0  0  0
  9 19  1  0  0  0  0
 11 10  1  6  0  0  0
 12 20  2  0  0  0  0
 12 19  1  0  0  0  0
 13 20  1  0  0  0  0
 14 15  1  0  0  0  0
 18 19  2  0  0  0  0
M  CHG  1  21  -1
M  END
>  <CHROM.1>
39.23170573,57.19605602,-174.12832789,-173.63464391,123.35637635,29.34749628
-2.94460484,106.54173939,2.82214396,0.40058771,2.99681656

>  <Name>
ligand

>  <RI>
0

>  <Rbt.Current_Directory>
/home/itssahil/PROJECTS/Mol_Feturizer/New_Systems/rnas/4XW7

>  <Rbt.Executable>
rbdock ($Id: //depot/dev/client3/rdock/2013.1/src/exe/rbdock.cxx#4 $)

>  <Rbt.Library>
libRbt.so (2013.1, Build901 2013/11/27)

>  <Rbt.Parameter_File>
/export/apps/rDock/src/rDock_2013.1_src/data/scripts/dock_solv.prm

>  <Rbt.Receptor>
prm/pocket_docking_3.prm

>  <SCORE>
-6.24685

>  <SCORE.INTER>
-5.5826

>  <SCORE.INTER.CONST>
1

>  <SCORE.INTER.POLAR>
0

>  <SCORE.INTER.ROT>
5

>  <SCORE.INTER.SOLV>
10.0013

>  <SCORE.INTER.VDW>
-13.9888

>  <SCORE.INTER.norm>
-0.253754

>  <SCORE.INTRA>
-0.667739

>  <SCORE.INTRA.DIHEDRAL>
-0.850107

>  <SCORE.INTRA.DIHEDRAL.0>
2.61549

>  <SCORE.INTRA.POLAR>
0

>  <SCORE.INTRA.POLAR.0>
0

>  <SCORE.INTRA.REPUL>
0

>  <SCORE.INTRA.REPUL.0>
0

>  <SCORE.INTRA.SOLV>
0.5909

>  <SCORE.INTRA.SOLV.lig_0>
-73.766

>  <SCORE.INTRA.VDW>
-0.538135

>  <SCORE.INTRA.VDW.0>
-1.95055

>  <SCORE.INTRA.norm>
-0.0303518

>  <SCORE.RESTR>
0.00347995

>  <SCORE.RESTR.CAVITY>
0.00347995

>  <SCORE.RESTR.norm>
0.00015818

>  <SCORE.SYSTEM>
0

>  <SCORE.SYSTEM.CONST>
0

>  <SCORE.SYSTEM.DIHEDRAL>
0

>  <SCORE.SYSTEM.SOLV>
0

>  <SCORE.SYSTEM.norm>
0

>  <SCORE.heavy>
22

>  <SCORE.norm>
-0.283948

>  <RMSD>
6.643

$$$$
ligand
 OpenBabel11021811513D
libRbt.so/2013.1/901 2013/11/27
 22 23  0  0  0  0  0  0  0  0999 V2000
   28.1851   -2.9944  104.6448 N   0  0  0  0  0  0  0  0  0  0  0  0
   30.1820   -0.5140  105.8976 C   0  0  1  0  0  0  0  0  0  0  0  0
   29.9797   -1.4907  104.8175 O   0  0  0  0  0  0  0  0  0  0  0  0
   32.6195   -2.6219  107.9523 P   0  0  2  0  0  0  0  0  0  0  0  0
   28.5413   -1.6418  104.6330 C   0  0  2  0  0  0  0  0  0  0  0  0
   27.8088   -5.0374  105.3494 N   0  0  0  0  0  0  0  0  0  0  0  0
   26.6733   -0.3164  105.3194 O   0  0  0  0  0  0  0  0  0  0  0  0
   27.8951   -0.9317  105.7542 C   0  0  2  0  0  0  0  0  0  0  0  0
   27.7549   -6.6257  102.1541 N   0  0  0  0  0  0  0  0  0  0  0  0
   28.6924    1.2728  105.3696 O   0  0  0  0  0  0  0  0  0  0  0  0
   28.8680    0.0840  106.1714 C   0  0  2  0  0  0  0  0  0  0  0  0
   27.5000   -4.9924  104.0388 C   0  0  0  0  0  0  0  0  0  0  0  0
   27.5405   -3.2241  102.2536 N   0  0  0  0  0  0  0  0  0  0  0  0
   31.8897   -1.8377  106.8136 O   0  0  0  0  0  0  0  0  0  0  0  0
   30.6837   -1.2033  107.1116 C   0  0  0  0  0  0  0  0  0  0  0  0
   33.9140   -3.3344  107.3739 O   0  0  0  0  0  0  0  0  0  0  0  0
   28.2284   -3.8004  105.7065 C   0  0  0  0  0  0  0  0  0  0  0  0
   25.9080   -6.6466  103.4871 O   0  0  0  0  0  0  0  0  0  0  0  0
   26.9952   -6.1401  103.2214 C   0  0  0  0  0  0  0  0  0  0  0  0
   27.7347   -3.7051  103.5779 C   0  0  0  0  0  0  0  0  0  0  0  0
   31.7141   -3.5994  108.5973 O   0  5  0  0  0  0  0  0  0  0  0  0
   32.9666   -1.7274  109.0896 O   0  0  0  0  0  0  0  0  0  0  0  0
  1 17  1  0  0  0  0
  1 20  1  0  0  0  0
  2 15  1  1  0  0  0
  2  3  1  0  0  0  0
  2 11  1  0  0  0  0
  3  5  1  0  0  0  0
  4 16  1  6  0  0  0
  4 21  1  0  0  0  0
  4 22  2  0  0  0  0
  4 14  1  0  0  0  0
  5  1  1  1  0  0  0
  5  8  1  0  0  0  0
  6 17  2  0  0  0  0
  6 12  1  0  0  0  0
  8  7  1  6  0  0  0
  8 11  1  0  0  0  0
  9 19  1  0  0  0  0
 11 10  1  6  0  0  0
 12 20  2  0  0  0  0
 12 19  1  0  0  0  0
 13 20  1  0  0  0  0
 14 15  1  0  0  0  0
 18 19  2  0  0  0  0
M  CHG  1  21  -1
M  END
>  <CHROM.1>
68.87065765,59.44690755,176.49158188,179.34549721,-116.62235942,29.46270485
-2.71730819,105.62894443,2.61527999,0.62661999,-2.95696530

>  <Name>
ligand

>  <RI>
0

>  <Rbt.Current_Directory>
/home/itssahil/PROJECTS/Mol_Feturizer/New_Systems/rnas/4XW7

>  <Rbt.Executable>
rbdock ($Id: //depot/dev/client3/rdock/2013.1/src/exe/rbdock.cxx#4 $)

>  <Rbt.Library>
libRbt.so (2013.1, Build901 2013/11/27)

>  <Rbt.Parameter_File>
/export/apps/rDock/src/rDock_2013.1_src/data/scripts/dock_solv.prm

>  <Rbt.Receptor>
prm/pocket_docking_5.prm

>  <SCORE>
-7.56791

>  <SCORE.INTER>
-6.72675

>  <SCORE.INTER.CONST>
1

>  <SCORE.INTER.POLAR>
0

>  <SCORE.INTER.ROT>
5

>  <SCORE.INTER.SOLV>
10.7192

>  <SCORE.INTER.VDW>
-14.9909

>  <SCORE.INTER.norm>
-0.305761

>  <SCORE.INTRA>
-0.841165

>  <SCORE.INTRA.DIHEDRAL>
-1.0981

>  <SCORE.INTRA.DIHEDRAL.0>
2.61549

>  <SCORE.INTRA.POLAR>
0

>  <SCORE.INTRA.POLAR.0>
0

>  <SCORE.INTRA.REPUL>
0

>  <SCORE.INTRA.REPUL.0>
0

>  <SCORE.INTRA.SOLV>
-0.27722

>  <SCORE.INTRA.SOLV.lig_0>
-73.766

>  <SCORE.INTRA.VDW>
-0.153503

>  <SCORE.INTRA.VDW.0>
-1.95055

>  <SCORE.INTRA.norm>
-0.0382348

>  <SCORE.RESTR>
0

>  <SCORE.RESTR.CAVITY>
0

>  <SCORE.RESTR.norm>
0

>  <SCORE.SYSTEM>
0

>  <SCORE.SYSTEM.CONST>
0

>  <SCORE.SYSTEM.DIHEDRAL>
0

>  <SCORE.SYSTEM.SOLV>
0

>  <SCORE.SYSTEM.norm>
0

>  <SCORE.heavy>
22

>  <SCORE.norm>
-0.343996

>  <RMSD>
6.650

$$$$
ligand
 OpenBabel11021811513D
libRbt.so/2013.1/901 2013/11/27
 22 23  0  0  0  0  0  0  0  0999 V2000
   28.2821   -2.9116  103.4109 N   0  0  0  0  0  0  0  0  0  0  0  0
   29.6606   -0.3648  105.2339 C   0  0  1  0  0  0  0  0  0  0  0  0
   29.7941   -1.2358  104.0570 O   0  0  0  0  0  0  0  0  0  0  0  0
   31.9365   -2.4067  107.5246 P   0  0  2  0  0  0  0  0  0  0  0  0
   28.4478   -1.5334  103.5826 C   0  0  2  0  0  0  0  0  0  0  0  0
   27.9780   -5.0384  103.8536 N   0  0  0  0  0  0  0  0  0  0  0  0
   26.3236   -0.5177  103.9989 O   0  0  0  0  0  0  0  0  0  0  0  0
   27.5168   -1.0292  104.6112 C   0  0  2  0  0  0  0  0  0  0  0  0
   29.1362   -6.4327  100.8330 N   0  0  0  0  0  0  0  0  0  0  0  0
   28.0649    1.2820  104.5765 O   0  0  0  0  0  0  0  0  0  0  0  0
   28.2500    0.0421  105.2945 C   0  0  2  0  0  0  0  0  0  0  0  0
   28.0747   -4.9079  102.5162 C   0  0  0  0  0  0  0  0  0  0  0  0
   28.4220   -2.9907  100.9288 N   0  0  0  0  0  0  0  0  0  0  0  0
   31.3569   -1.5081  106.3841 O   0  0  0  0  0  0  0  0  0  0  0  0
   30.0198   -1.1180  106.4604 C   0  0  0  0  0  0  0  0  0  0  0  0
   31.2599   -3.8413  107.4789 O   0  0  0  0  0  0  0  0  0  0  0  0
   28.1076   -3.8013  104.3889 C   0  0  0  0  0  0  0  0  0  0  0  0
   26.9131   -6.5718  101.3093 O   0  0  0  0  0  0  0  0  0  0  0  0
   27.9916   -6.0239  101.5223 C   0  0  0  0  0  0  0  0  0  0  0  0
   28.2692   -3.5664  102.2204 C   0  0  0  0  0  0  0  0  0  0  0  0
   31.7584   -1.7734  108.8507 O   0  5  0  0  0  0  0  0  0  0  0  0
   33.4177   -2.5126  107.4309 O   0  0  0  0  0  0  0  0  0  0  0  0
  1 17  1  0  0  0  0
  1 20  1  0  0  0  0
  2 15  1  1  0  0  0
  2  3  1  0  0  0  0
  2 11  1  0  0  0  0
  3  5  1  0  0  0  0
  4 16  1  6  0  0  0
  4 21  1  0  0  0  0
  4 22  2  0  0  0  0
  4 14  1  0  0  0  0
  5  1  1  1  0  0  0
  5  8  1  0  0  0  0
  6 17  2  0  0  0  0
  6 12  1  0  0  0  0
  8  7  1  6  0  0  0
  8 11  1  0  0  0  0
  9 19  1  0  0  0  0
 11 10  1  6  0  0  0
 12 20  2  0  0  0  0
 12 19  1  0  0  0  0
 13 20  1  0  0  0  0
 14 15  1  0  0  0  0
 18 19  2  0  0  0  0
M  CHG  1  21  -1
M  END
>  <CHROM.1>
75.86466371,62.66322206,67.49578551,-175.75450488,-108.95738911,29.34796094
-2.60610761,104.63965217,2.34930422,0.76697030,-2.68460514

>  <Name>
ligand

>  <RI>
0

>  <Rbt.Current_Directory>
/home/itssahil/PROJECTS/Mol_Feturizer/New_Systems/rnas/4XW7

>  <Rbt.Executable>
rbdock ($Id: //depot/dev/client3/rdock/2013.1/src/exe/rbdock.cxx#4 $)

>  <Rbt.Library>
libRbt.so (2013.1, Build901 2013/11/27)

>  <Rbt.Parameter_File>
/export/apps/rDock/src/rDock_2013.1_src/data/scripts/dock_solv.prm

>  <Rbt.Receptor>
prm/pocket_docking_6.prm

>  <SCORE>
-7.83561

>  <SCORE.INTER>
-6.88529

>  <SCORE.INTER.CONST>
1

>  <SCORE.INTER.POLAR>
0

>  <SCORE.INTER.ROT>
5

>  <SCORE.INTER.SOLV>
14.1375

>  <SCORE.INTER.VDW>
-16.236

>  <SCORE.INTER.norm>
-0.312968

>  <SCORE.INTRA>
-0.950318

>  <SCORE.INTRA.DIHEDRAL>
-0.792226

>  <SCORE.INTRA.DIHEDRAL.0>
2.61549

>  <SCORE.INTRA.POLAR>
0

>  <SCORE.INTRA.POLAR.0>
0

>  <SCORE.INTRA.REPUL>
0

>  <SCORE.INTRA.REPUL.0>
0

>  <SCORE.INTRA.SOLV>
-0.864715

>  <SCORE.INTRA.SOLV.lig_0>
-73.766

>  <SCORE.INTRA.VDW>
-0.121847

>  <SCORE.INTRA.VDW.0>
-1.95055

>  <SCORE.INTRA.norm>
-0.0431963

>  <SCORE.RESTR>
0

>  <SCORE.RESTR.CAVITY>
0

>  <SCORE.RESTR.norm>
0

>  <SCORE.SYSTEM>
0

>  <SCORE.SYSTEM.CONST>
0

>  <SCORE.SYSTEM.DIHEDRAL>
0

>  <SCORE.SYSTEM.SOLV>
0

>  <SCORE.SYSTEM.norm>
0

>  <SCORE.heavy>
22

>  <SCORE.norm>
-0.356164

>  <RMSD>
6.652

$$$$
ligand
 OpenBabel11021811513D
libRbt.so/2013.1/901 2013/11/27
 22 23  0  0  0  0  0  0  0  0999 V2000
   28.0249   -3.2772  105.3133 N   0  0  0  0  0  0  0  0  0  0  0  0
   30.1215   -0.6077  105.7463 C   0  0  1  0  0  0  0  0  0  0  0  0
   29.8049   -1.7933  104.9368 O   0  0  0  0  0  0  0  0  0  0  0  0
   32.6976   -2.4352  107.8934 P   0  0  2  0  0  0  0  0  0  0  0  0
   28.3571   -1.9639  104.9649 C   0  0  2  0  0  0  0  0  0  0  0  0
   27.9221   -5.1715  106.4146 N   0  0  0  0  0  0  0  0  0  0  0  0
   26.5661   -0.4988  105.5676 O   0  0  0  0  0  0  0  0  0  0  0  0
   27.8403   -1.0193  105.9747 C   0  0  2  0  0  0  0  0  0  0  0  0
   24.9955   -6.4810  104.8684 N   0  0  0  0  0  0  0  0  0  0  0  0
   28.5528    1.0392  105.0269 O   0  0  0  0  0  0  0  0  0  0  0  0
   28.8414    0.0512  106.0406 C   0  0  2  0  0  0  0  0  0  0  0  0
   27.1609   -5.2976  105.3102 C   0  0  0  0  0  0  0  0  0  0  0  0
   26.5594   -3.8105  103.3757 N   0  0  0  0  0  0  0  0  0  0  0  0
   31.9168   -1.7681  106.7146 O   0  0  0  0  0  0  0  0  0  0  0  0
   30.7760   -1.0223  107.0114 C   0  0  0  0  0  0  0  0  0  0  0  0
   33.9734   -3.1956  107.3347 O   0  0  0  0  0  0  0  0  0  0  0  0
   28.4462   -3.9229  106.4014 C   0  0  0  0  0  0  0  0  0  0  0  0
   26.9909   -7.5561  104.6428 O   0  0  0  0  0  0  0  0  0  0  0  0
   26.3913   -6.5192  104.9157 C   0  0  0  0  0  0  0  0  0  0  0  0
   27.2174   -4.1063  104.6014 C   0  0  0  0  0  0  0  0  0  0  0  0
   31.8264   -3.3488  108.6662 O   0  5  0  0  0  0  0  0  0  0  0  0
   33.0830   -1.4330  108.9236 O   0  0  0  0  0  0  0  0  0  0  0  0
  1 17  1  0  0  0  0
  1 20  1  0  0  0  0
  2 15  1  1  0  0  0
  2  3  1  0  0  0  0
  2 11  1  0  0  0  0
  3  5  1  0  0  0  0
  4 16  1  6  0  0  0
  4 21  1  0  0  0  0
  4 22  2  0  0  0  0
  4 14  1  0  0  0  0
  5  1  1  1  0  0  0
  5  8  1  0  0  0  0
  6 17  2  0  0  0  0
  6 12  1  0  0  0  0
  8  7  1  6  0  0  0
  8 11  1  0  0  0  0
  9 19  1  0  0  0  0
 11 10  1  6  0  0  0
 12 20  2  0  0  0  0
 12 19  1  0  0  0  0
 13 20  1  0  0  0  0
 14 15  1  0  0  0  0
 18 19  2  0  0  0  0
M  CHG  1  21  -1
M  END
>  <CHROM.1>
54.16529133,57.01349696,-178.49004881,-174.07430064,115.06215602,29.30206359
-2.83636919,106.08372496,2.68949191,0.49282555,3.05618158

>  <Name>
ligand

>  <RI>
0

>  <Rbt.Current_Directory>
/home/itssahil/PROJECTS/Mol_Feturizer/New_Systems/rnas/4XW7

>  <Rbt.Executable>
rbdock ($Id: //depot/dev/client3/rdock/2013.1/src/exe/rbdock.cxx#4 $)

>  <Rbt.Library>
libRbt.so (2013.1, Build901 2013/11/27)

>  <Rbt.Parameter_File>
/export/apps/rDock/src/rDock_2013.1_src/data/scripts/dock_solv.prm

>  <Rbt.Receptor>
prm/pocket_docking_4.prm

>  <SCORE>
-7.26655

>  <SCORE.INTER>
-6.41495

>  <SCORE.INTER.CONST>
1

>  <SCORE.INTER.POLAR>
0

>  <SCORE.INTER.ROT>
5

>  <SCORE.INTER.SOLV>
10.0152

>  <SCORE.INTER.VDW>
-14.5484

>  <SCORE.INTER.norm>
-0.291589

>  <SCORE.INTRA>
-0.8516

>  <SCORE.INTRA.DIHEDRAL>
-0.907509

>  <SCORE.INTRA.DIHEDRAL.0>
2.61549

>  <SCORE.INTRA.POLAR>
0

>  <SCORE.INTRA.POLAR.0>
0

>  <SCORE.INTRA.REPUL>
0

>  <SCORE.INTRA.REPUL.0>
0

>  <SCORE.INTRA.SOLV>
0.0754556

>  <SCORE.INTRA.SOLV.lig_0>
-73.766

>  <SCORE.INTRA.VDW>
-0.435573

>  <SCORE.INTRA.VDW.0>
-1.95055

>  <SCORE.INTRA.norm>
-0.0387091

>  <SCORE.RESTR>
0

>  <SCORE.RESTR.CAVITY>
0

>  <SCORE.RESTR.norm>
0

>  <SCORE.SYSTEM>
0

>  <SCORE.SYSTEM.CONST>
0

>  <SCORE.SYSTEM.DIHEDRAL>
0

>  <SCORE.SYSTEM.SOLV>
0

>  <SCORE.SYSTEM.norm>
0

>  <SCORE.heavy>
22

>  <SCORE.norm>
-0.330298

>  <RMSD>
6.653

$$$$
ligand
 OpenBabel11021811513D
libRbt.so/2013.1/901 2013/11/27
 22 23  0  0  0  0  0  0  0  0999 V2000
   26.8567   -4.5391  106.3125 N   0  0  0  0  0  0  0  0  0  0  0  0
   29.8388   -2.9692  106.9063 C   0  0  1  0  0  0  0  0  0  0  0  0
   29.0467   -3.7694  105.9610 O   0  0  0  0  0  0  0  0  0  0  0  0
   32.8303   -3.2894  107.8356 P   0  0  2  0  0  0  0  0  0  0  0  0
   27.6485   -3.3984  106.1438 C   0  0  2  0  0  0  0  0  0  0  0  0
   25.2217   -5.9844  106.0900 N   0  0  0  0  0  0  0  0  0  0  0  0
   26.5945   -1.5294  107.1988 O   0  0  0  0  0  0  0  0  0  0  0  0
   27.5910   -2.5511  107.3512 C   0  0  2  0  0  0  0  0  0  0  0  0
   26.8658   -8.8217  107.4614 N   0  0  0  0  0  0  0  0  0  0  0  0
   28.9867   -0.7538  106.6692 O   0  0  0  0  0  0  0  0  0  0  0  0
   28.9286   -1.9591  107.4635 C   0  0  2  0  0  0  0  0  0  0  0  0
   26.0915   -6.4846  106.9890 C   0  0  0  0  0  0  0  0  0  0  0  0
   28.2623   -5.7148  107.9943 N   0  0  0  0  0  0  0  0  0  0  0  0
   31.6330   -4.2797  107.6620 O   0  0  0  0  0  0  0  0  0  0  0  0
   30.3522   -3.8379  107.9938 C   0  0  0  0  0  0  0  0  0  0  0  0
   32.6242   -2.0234  106.9015 O   0  0  0  0  0  0  0  0  0  0  0  0
   25.7072   -4.7873  105.6837 C   0  0  0  0  0  0  0  0  0  0  0  0
   25.0282   -7.9597  108.4951 O   0  0  0  0  0  0  0  0  0  0  0  0
   25.9524   -7.7925  107.7034 C   0  0  0  0  0  0  0  0  0  0  0  0
   27.1319   -5.5796  107.1418 C   0  0  0  0  0  0  0  0  0  0  0  0
   34.1228   -3.9549  107.5570 O   0  5  0  0  0  0  0  0  0  0  0  0
   32.9943   -2.8819  109.2573 O   0  0  0  0  0  0  0  0  0  0  0  0
  1 17  1  0  0  0  0
  1 20  1  0  0  0  0
  2 15  1  1  0  0  0
  2  3  1  0  0  0  0
  2 11  1  0  0  0  0
  3  5  1  0  0  0  0
  4 16  1  6  0  0  0
  4 21  1  0  0  0  0
  4 22  2  0  0  0  0
  4 14  1  0  0  0  0
  5  1  1  1  0  0  0
  5  8  1  0  0  0  0
  6 17  2  0  0  0  0
  6 12  1  0  0  0  0
  8  7  1  6  0  0  0
  8 11  1  0  0  0  0
  9 19  1  0  0  0  0
 11 10  1  6  0  0  0
 12 20  2  0  0  0  0
 12 19  1  0  0  0  0
 13 20  1  0  0  0  0
 14 15  1  0  0  0  0
 18 19  2  0  0  0  0
M  CHG  1  21  -1
M  END
>  <CHROM.1>
-132.67398443,93.73456425,-61.53698972,77.40656984,114.20668569,28.99832788
-4.18895603,107.27196418,2.67095246,0.20251769,2.92677402

>  <Name>
ligand

>  <RI>
0

>  <Rbt.Current_Directory>
/home/itssahil/PROJECTS/Mol_Feturizer/New_Systems/rnas/4XW7

>  <Rbt.Executable>
rbdock ($Id: //depot/dev/client3/rdock/2013.1/src/exe/rbdock.cxx#4 $)

>  <Rbt.Library>
libRbt.so (2013.1, Build901 2013/11/27)

>  <Rbt.Parameter_File>
/export/apps/rDock/src/rDock_2013.1_src/data/scripts/dock_solv.prm

>  <Rbt.Receptor>
prm/pocket_docking_2.prm

>  <SCORE>
5.30761

>  <SCORE.INTER>
-0.23065

>  <SCORE.INTER.CONST>
1

>  <SCORE.INTER.POLAR>
0

>  <SCORE.INTER.ROT>
5

>  <SCORE.INTER.SOLV>
13.302

>  <SCORE.INTER.VDW>
-11.5211

>  <SCORE.INTER.norm>
-0.0104841

>  <SCORE.INTRA>
4.01486

>  <SCORE.INTRA.DIHEDRAL>
3.44412

>  <SCORE.INTRA.DIHEDRAL.0>
2.61549

>  <SCORE.INTRA.POLAR>
0

>  <SCORE.INTRA.POLAR.0>
0

>  <SCORE.INTRA.REPUL>
0

>  <SCORE.INTRA.REPUL.0>
0

>  <SCORE.INTRA.SOLV>
5.34143

>  <SCORE.INTRA.SOLV.lig_0>
-73.766

>  <SCORE.INTRA.VDW>
-0.377912

>  <SCORE.INTRA.VDW.0>
-1.95055

>  <SCORE.INTRA.norm>
0.182494

>  <SCORE.RESTR>
1.5234

>  <SCORE.RESTR.CAVITY>
1.5234

>  <SCORE.RESTR.norm>
0.0692455

>  <SCORE.SYSTEM>
0

>  <SCORE.SYSTEM.CONST>
0

>  <SCORE.SYSTEM.DIHEDRAL>
0

>  <SCORE.SYSTEM.SOLV>
0

>  <SCORE.SYSTEM.norm>
0

>  <SCORE.heavy>
22

>  <SCORE.norm>
0.241255

>  <RMSD>
6.657

$$$$
ligand
 OpenBabel11021811513D
libRbt.so/2013.1/901 2013/11/27
 22 23  0  0  0  0  0  0  0  0999 V2000
   28.2948   -2.7216  103.6169 N   0  0  0  0  0  0  0  0  0  0  0  0
   29.8635   -0.3128  105.4735 C   0  0  1  0  0  0  0  0  0  0  0  0
   29.9090   -1.1432  104.2612 O   0  0  0  0  0  0  0  0  0  0  0  0
   32.1239   -2.5488  107.5933 P   0  0  2  0  0  0  0  0  0  0  0  0
   28.5325   -1.3600  103.8319 C   0  0  2  0  0  0  0  0  0  0  0  0
   27.9381   -4.8529  103.9939 N   0  0  0  0  0  0  0  0  0  0  0  0
   26.4770   -0.2643  104.3719 O   0  0  0  0  0  0  0  0  0  0  0  0
   27.6676   -0.8534  104.9156 C   0  0  2  0  0  0  0  0  0  0  0  0
   27.5046   -7.0538  102.0271 N   0  0  0  0  0  0  0  0  0  0  0  0
   28.3233    1.4298  104.9428 O   0  0  0  0  0  0  0  0  0  0  0  0
   28.4772    0.1561  105.6068 C   0  0  2  0  0  0  0  0  0  0  0  0
   27.9298   -4.6655  102.6598 C   0  0  0  0  0  0  0  0  0  0  0  0
   28.2262   -2.6932  101.1308 N   0  0  0  0  0  0  0  0  0  0  0  0
   31.5352   -1.6052  106.4945 O   0  0  0  0  0  0  0  0  0  0  0  0
   30.2344   -1.1282  106.6560 C   0  0  0  0  0  0  0  0  0  0  0  0
   31.3412   -3.9292  107.5960 O   0  0  0  0  0  0  0  0  0  0  0  0
   28.1638   -3.6473  104.5679 C   0  0  0  0  0  0  0  0  0  0  0  0
   27.7406   -5.4398  100.4372 O   0  0  0  0  0  0  0  0  0  0  0  0
   27.7177   -5.7312  101.6304 C   0  0  0  0  0  0  0  0  0  0  0  0
   28.1560   -3.3206  102.4053 C   0  0  0  0  0  0  0  0  0  0  0  0
   32.0851   -1.9094  108.9278 O   0  5  0  0  0  0  0  0  0  0  0  0
   33.5832   -2.7638  107.3975 O   0  0  0  0  0  0  0  0  0  0  0  0
  1 17  1  0  0  0  0
  1 20  1  0  0  0  0
  2 15  1  1  0  0  0
  2  3  1  0  0  0  0
  2 11  1  0  0  0  0
  3  5  1  0  0  0  0
  4 16  1  1  0  0  0
  4 21  1  0  0  0  0
  4 22  2  0  0  0  0
  4 14  1  0  0  0  0
  5  1  1  1  0  0  0
  5  8  1  0  0  0  0
  6 17  2  0  0  0  0
  6 12  1  0  0  0  0
  8  7  1  6  0  0  0
  8 11  1  0  0  0  0
  9 19  1  0  0  0  0
 11 10  1  6  0  0  0
 12 20  2  0  0  0  0
 12 19  1  0  0  0  0
 13 20  1  0  0  0  0
 14 15  1  0  0  0  0
 18 19  2  0  0  0  0
M  CHG  1  21  -1
M  END
>  <CHROM.1>
73.33695102,61.12911219,66.86553148,-177.28524776,0.01473059,29.40715699
-2.51199307,104.81143304,2.46346940,0.77713766,-2.74133057

>  <Name>
ligand

>  <RI>
0

>  <Rbt.Current_Directory>
/home/itssahil/PROJECTS/Mol_Feturizer/New_Systems/rnas/4XW7

>  <Rbt.Executable>
rbdock ($Id: //depot/dev/client3/rdock/2013.1/src/exe/rbdock.cxx#4 $)

>  <Rbt.Library>
libRbt.so (2013.1, Build901 2013/11/27)

>  <Rbt.Parameter_File>
/export/apps/rDock/src/rDock_2013.1_src/data/scripts/dock_solv.prm

>  <Rbt.Receptor>
prm/pocket_docking_8.prm

>  <SCORE>
-7.80422

>  <SCORE.INTER>
-6.87116

>  <SCORE.INTER.CONST>
1

>  <SCORE.INTER.POLAR>
0

>  <SCORE.INTER.ROT>
5

>  <SCORE.INTER.SOLV>
15.4798

>  <SCORE.INTER.VDW>
-16.6741

>  <SCORE.INTER.norm>
-0.312325

>  <SCORE.INTRA>
-0.933066

>  <SCORE.INTRA.DIHEDRAL>
-1.01741

>  <SCORE.INTRA.DIHEDRAL.0>
2.61549

>  <SCORE.INTRA.POLAR>
0

>  <SCORE.INTRA.POLAR.0>
0

>  <SCORE.INTRA.REPUL>
0

>  <SCORE.INTRA.REPUL.0>
0

>  <SCORE.INTRA.SOLV>
-0.80718

>  <SCORE.INTRA.SOLV.lig_0>
-73.766

>  <SCORE.INTRA.VDW>
-0.0207718

>  <SCORE.INTRA.VDW.0>
-1.95055

>  <SCORE.INTRA.norm>
-0.0424121

>  <SCORE.RESTR>
0

>  <SCORE.RESTR.CAVITY>
0

>  <SCORE.RESTR.norm>
0

>  <SCORE.SYSTEM>
0

>  <SCORE.SYSTEM.CONST>
0

>  <SCORE.SYSTEM.DIHEDRAL>
0

>  <SCORE.SYSTEM.SOLV>
0

>  <SCORE.SYSTEM.norm>
0

>  <SCORE.heavy>
22

>  <SCORE.norm>
-0.354737

>  <RMSD>
6.664

$$$$
ligand
 OpenBabel11021811513D
libRbt.so/2013.1/901 2013/11/27
 22 23  0  0  0  0  0  0  0  0999 V2000
   29.2226   -1.5274  104.6302 N   0  0  0  0  0  0  0  0  0  0  0  0
   31.5668   -0.9803  107.0624 C   0  0  1  0  0  0  0  0  0  0  0  0
   31.1925   -0.7672  105.6567 O   0  0  0  0  0  0  0  0  0  0  0  0
   32.9773   -3.9455  109.0169 P   0  0  2  0  0  0  0  0  0  0  0  0
   29.7387   -0.6674  105.6052 C   0  0  2  0  0  0  0  0  0  0  0  0
   28.8020   -2.4467  102.6835 N   0  0  0  0  0  0  0  0  0  0  0  0
   28.0826   -0.2763  107.2849 O   0  0  0  0  0  0  0  0  0  0  0  0
   29.2418   -1.0501  106.9414 C   0  0  2  0  0  0  0  0  0  0  0  0
   27.1244   -4.8352  102.0659 N   0  0  0  0  0  0  0  0  0  0  0  0
   30.2790    0.6240  108.2700 O   0  0  0  0  0  0  0  0  0  0  0  0
   30.3506   -0.7585  107.8567 C   0  0  2  0  0  0  0  0  0  0  0  0
   28.1410   -3.1525  103.6215 C   0  0  0  0  0  0  0  0  0  0  0  0
   27.8953   -3.0137  106.1187 N   0  0  0  0  0  0  0  0  0  0  0  0
   32.3845   -2.5634  108.5895 O   0  0  0  0  0  0  0  0  0  0  0  0
   32.0432   -2.3725  107.2506 C   0  0  0  0  0  0  0  0  0  0  0  0
   34.4223   -4.1315  108.3881 O   0  0  0  0  0  0  0  0  0  0  0  0
   29.4624   -1.4507  103.3206 C   0  0  0  0  0  0  0  0  0  0  0  0
   26.6910   -4.8875  104.3015 O   0  0  0  0  0  0  0  0  0  0  0  0
   27.2749   -4.3461  103.3660 C   0  0  0  0  0  0  0  0  0  0  0  0
   28.3963   -2.5813  104.8597 C   0  0  0  0  0  0  0  0  0  0  0  0
   32.0795   -5.0576  108.6318 O   0  5  0  0  0  0  0  0  0  0  0  0
   33.0188   -4.0825  110.4980 O   0  0  0  0  0  0  0  0  0  0  0  0
  1 17  1  0  0  0  0
  1 20  1  0  0  0  0
  2 15  1  6  0  0  0
  2  3  1  0  0  0  0
  2 11  1  0  0  0  0
  3  5  1  0  0  0  0
  4 16  1  6  0  0  0
  4 21  1  0  0  0  0
  4 22  2  0  0  0  0
  4 14  1  0  0  0  0
  5  1  1  6  0  0  0
  5  8  1  0  0  0  0
  6 17  2  0  0  0  0
  6 12  1  0  0  0  0
  8  7  1  1  0  0  0
  8 11  1  0  0  0  0
  9 19  1  0  0  0  0
 11 10  1  6  0  0  0
 12 20  2  0  0  0  0
 12 19  1  0  0  0  0
 13 20  1  0  0  0  0
 14 15  1  0  0  0  0
 18 19  2  0  0  0  0
M  CHG  1  21  -1
M  END
>  <CHROM.1>
-63.05914333,-179.53436059,68.45269839,-177.29865266,1.54000385,30.25753255
-2.56071609,106.45227397,2.99304227,0.80202073,-2.89796452

>  <Name>
ligand

>  <RI>
0

>  <Rbt.Current_Directory>
/home/itssahil/PROJECTS/Mol_Feturizer/New_Systems/rnas/4XW7

>  <Rbt.Executable>
rbdock ($Id: //depot/dev/client3/rdock/2013.1/src/exe/rbdock.cxx#4 $)

>  <Rbt.Library>
libRbt.so (2013.1, Build901 2013/11/27)

>  <Rbt.Parameter_File>
/export/apps/rDock/src/rDock_2013.1_src/data/scripts/dock_solv.prm

>  <Rbt.Receptor>
prm/pocket_docking_5.prm

>  <SCORE>
-5.28934

>  <SCORE.INTER>
-9.3044

>  <SCORE.INTER.CONST>
1

>  <SCORE.INTER.POLAR>
0

>  <SCORE.INTER.ROT>
5

>  <SCORE.INTER.SOLV>
11.531

>  <SCORE.INTER.VDW>
-16.9799

>  <SCORE.INTER.norm>
-0.422927

>  <SCORE.INTRA>
3.98966

>  <SCORE.INTRA.DIHEDRAL>
-0.984932

>  <SCORE.INTRA.DIHEDRAL.0>
2.61549

>  <SCORE.INTRA.POLAR>
0

>  <SCORE.INTRA.POLAR.0>
0

>  <SCORE.INTRA.REPUL>
0

>  <SCORE.INTRA.REPUL.0>
0

>  <SCORE.INTRA.SOLV>
3.2767

>  <SCORE.INTRA.SOLV.lig_0>
-73.766

>  <SCORE.INTRA.VDW>
2.84378

>  <SCORE.INTRA.VDW.0>
-1.95055

>  <SCORE.INTRA.norm>
0.181348

>  <SCORE.RESTR>
0.0254033

>  <SCORE.RESTR.CAVITY>
0.0254033

>  <SCORE.RESTR.norm>
0.00115469

>  <SCORE.SYSTEM>
0

>  <SCORE.SYSTEM.CONST>
0

>  <SCORE.SYSTEM.DIHEDRAL>
0

>  <SCORE.SYSTEM.SOLV>
0

>  <SCORE.SYSTEM.norm>
0

>  <SCORE.heavy>
22

>  <SCORE.norm>
-0.240424

>  <RMSD>
6.668

$$$$
ligand
 OpenBabel11021811513D
libRbt.so/2013.1/901 2013/11/27
 22 23  0  0  0  0  0  0  0  0999 V2000
   31.4133   -4.8437  108.6996 N   0  0  0  0  0  0  0  0  0  0  0  0
   30.9520   -1.5043  108.1119 C   0  0  1  0  0  0  0  0  0  0  0  0
   30.8423   -2.5995  109.0865 O   0  0  0  0  0  0  0  0  0  0  0  0
   28.5958   -0.2073  105.3974 P   0  0  2  0  0  0  0  0  0  0  0  0
   31.9171   -3.5428  108.8019 C   0  0  2  0  0  0  0  0  0  0  0  0
   30.1242   -6.5361  108.1648 N   0  0  0  0  0  0  0  0  0  0  0  0
   33.9334   -3.3633  107.5294 O   0  0  0  0  0  0  0  0  0  0  0  0
   32.5183   -3.1237  107.5206 C   0  0  2  0  0  0  0  0  0  0  0  0
   30.4734   -9.4290  108.8053 N   0  0  0  0  0  0  0  0  0  0  0  0
   33.2715   -0.9472  108.1028 O   0  0  0  0  0  0  0  0  0  0  0  0
   32.2355   -1.6876  107.4204 C   0  0  2  0  0  0  0  0  0  0  0  0
   31.1553   -7.0179  108.8857 C   0  0  0  0  0  0  0  0  0  0  0  0
   33.1796   -6.0232  109.9941 N   0  0  0  0  0  0  0  0  0  0  0  0
   29.7453   -0.3792  106.4430 O   0  0  0  0  0  0  0  0  0  0  0  0
   29.8384   -1.5866  107.1353 C   0  0  0  0  0  0  0  0  0  0  0  0
   28.4444    1.3234  105.0075 O   0  0  0  0  0  0  0  0  0  0  0  0
   30.2981   -5.1972  108.0594 C   0  0  0  0  0  0  0  0  0  0  0  0
   32.3267   -8.7683  109.9531 O   0  0  0  0  0  0  0  0  0  0  0  0
   31.3683   -8.4534  109.2520 C   0  0  0  0  0  0  0  0  0  0  0  0
   31.9797   -5.9576  109.2333 C   0  0  0  0  0  0  0  0  0  0  0  0
   27.3196   -0.7583  105.9062 O   0  5  0  0  0  0  0  0  0  0  0  0
   28.8323   -1.0441  104.1899 O   0  0  0  0  0  0  0  0  0  0  0  0
  1 17  1  0  0  0  0
  1 20  1  0  0  0  0
  2 15  1  6  0  0  0
  2  3  1  0  0  0  0
  2 11  1  0  0  0  0
  3  5  1  0  0  0  0
  4 16  1  6  0  0  0
  4 21  1  0  0  0  0
  4 22  2  0  0  0  0
  4 14  1  0  0  0  0
  5  1  1  6  0  0  0
  5  8  1  0  0  0  0
  6 17  2  0  0  0  0
  6 12  1  0  0  0  0
  8  7  1  1  0  0  0
  8 11  1  0  0  0  0
  9 19  1  0  0  0  0
 11 10  1  1  0  0  0
 12 20  2  0  0  0  0
 12 19  1  0  0  0  0
 13 20  1  0  0  0  0
 14 15  1  0  0  0  0
 18 19  2  0  0  0  0
M  CHG  1  21  -1
M  END
>  <CHROM.1>
43.12837473,164.79744907,165.68770469,-177.35421531,1.89840885,30.78779953
-3.39435572,107.61531877,-1.20599049,-0.44385816,-0.29582773

>  <Name>
ligand

>  <RI>
0

>  <Rbt.Current_Directory>
/home/itssahil/PROJECTS/Mol_Feturizer/New_Systems/rnas/4XW7

>  <Rbt.Executable>
rbdock ($Id: //depot/dev/client3/rdock/2013.1/src/exe/rbdock.cxx#4 $)

>  <Rbt.Library>
libRbt.so (2013.1, Build901 2013/11/27)

>  <Rbt.Parameter_File>
/export/apps/rDock/src/rDock_2013.1_src/data/scripts/dock_solv.prm

>  <Rbt.Receptor>
prm/pocket_docking_8.prm

>  <SCORE>
-7.33832

>  <SCORE.INTER>
-7.43636

>  <SCORE.INTER.CONST>
1

>  <SCORE.INTER.POLAR>
0

>  <SCORE.INTER.ROT>
5

>  <SCORE.INTER.SOLV>
11.7669

>  <SCORE.INTER.VDW>
-15.8132

>  <SCORE.INTER.norm>
-0.338016

>  <SCORE.INTRA>
0.0980362

>  <SCORE.INTRA.DIHEDRAL>
-0.00975307

>  <SCORE.INTRA.DIHEDRAL.0>
2.61549

>  <SCORE.INTRA.POLAR>
0

>  <SCORE.INTRA.POLAR.0>
0

>  <SCORE.INTRA.REPUL>
0

>  <SCORE.INTRA.REPUL.0>
0

>  <SCORE.INTRA.SOLV>
0.431943

>  <SCORE.INTRA.SOLV.lig_0>
-73.766

>  <SCORE.INTRA.VDW>
-0.113059

>  <SCORE.INTRA.VDW.0>
-1.95055

>  <SCORE.INTRA.norm>
0.00445619

>  <SCORE.RESTR>
0

>  <SCORE.RESTR.CAVITY>
0

>  <SCORE.RESTR.norm>
0

>  <SCORE.SYSTEM>
0

>  <SCORE.SYSTEM.CONST>
0

>  <SCORE.SYSTEM.DIHEDRAL>
0

>  <SCORE.SYSTEM.SOLV>
0

>  <SCORE.SYSTEM.norm>
0

>  <SCORE.heavy>
22

>  <SCORE.norm>
-0.33356

>  <RMSD>
6.672

$$$$
ligand
 OpenBabel11021811513D
libRbt.so/2013.1/901 2013/11/27
 22 23  0  0  0  0  0  0  0  0999 V2000
   28.3053   -2.7583  103.7095 N   0  0  0  0  0  0  0  0  0  0  0  0
   29.9177   -0.3820  105.5705 C   0  0  1  0  0  0  0  0  0  0  0  0
   29.9516   -1.2162  104.3605 O   0  0  0  0  0  0  0  0  0  0  0  0
   32.1401   -2.6035  107.7458 P   0  0  2  0  0  0  0  0  0  0  0  0
   28.5732   -1.4021  103.9228 C   0  0  2  0  0  0  0  0  0  0  0  0
   27.9146   -4.8832  104.0887 N   0  0  0  0  0  0  0  0  0  0  0  0
   26.5404   -0.2576  104.4468 O   0  0  0  0  0  0  0  0  0  0  0  0
   27.7135   -0.8728  104.9996 C   0  0  2  0  0  0  0  0  0  0  0  0
   27.3462   -7.0591  102.1276 N   0  0  0  0  0  0  0  0  0  0  0  0
   28.4219    1.3946  105.0257 O   0  0  0  0  0  0  0  0  0  0  0  0
   28.5419    0.1193  105.6937 C   0  0  2  0  0  0  0  0  0  0  0  0
   27.8852   -4.6926  102.7553 C   0  0  0  0  0  0  0  0  0  0  0  0
   28.1913   -2.7227  101.2251 N   0  0  0  0  0  0  0  0  0  0  0  0
   31.5480   -1.7195  106.6003 O   0  0  0  0  0  0  0  0  0  0  0  0
   30.2619   -1.2028  106.7573 C   0  0  0  0  0  0  0  0  0  0  0  0
   33.5824   -3.1233  107.3366 O   0  0  0  0  0  0  0  0  0  0  0  0
   28.1741   -3.6836  104.6608 C   0  0  0  0  0  0  0  0  0  0  0  0
   27.6893   -5.4683  100.5338 O   0  0  0  0  0  0  0  0  0  0  0  0
   27.6335   -5.7515  101.7279 C   0  0  0  0  0  0  0  0  0  0  0  0
   28.1326   -3.3517  102.4994 C   0  0  0  0  0  0  0  0  0  0  0  0
   31.2390   -3.7306  108.0753 O   0  5  0  0  0  0  0  0  0  0  0  0
   32.1869   -1.8605  109.0342 O   0  0  0  0  0  0  0  0  0  0  0  0
  1 17  1  0  0  0  0
  1 20  1  0  0  0  0
  2 15  1  1  0  0  0
  2  3  1  0  0  0  0
  2 11  1  0  0  0  0
  3  5  1  0  0  0  0
  4 16  1  6  0  0  0
  4 21  1  0  0  0  0
  4 22  2  0  0  0  0
  4 14  1  0  0  0  0
  5  1  1  1  0  0  0
  5  8  1  0  0  0  0
  6 17  2  0  0  0  0
  6 12  1  0  0  0  0
  8  7  1  6  0  0  0
  8 11  1  0  0  0  0
  9 19  1  0  0  0  0
 11 10  1  6  0  0  0
 12 20  2  0  0  0  0
 12 19  1  0  0  0  0
 13 20  1  0  0  0  0
 14 15  1  0  0  0  0
 18 19  2  0  0  0  0
M  CHG  1  21  -1
M  END
>  <CHROM.1>
71.86230175,60.63577947,177.98898315,178.97540066,2.72958535,29.41203916
-2.55277702,104.92227582,2.49064179,0.78859870,-2.76045824

>  <Name>
ligand

>  <RI>
0

>  <Rbt.Current_Directory>
/home/itssahil/PROJECTS/Mol_Feturizer/New_Systems/rnas/4XW7

>  <Rbt.Executable>
rbdock ($Id: //depot/dev/client3/rdock/2013.1/src/exe/rbdock.cxx#4 $)

>  <Rbt.Library>
libRbt.so (2013.1, Build901 2013/11/27)

>  <Rbt.Parameter_File>
/export/apps/rDock/src/rDock_2013.1_src/data/scripts/dock_solv.prm

>  <Rbt.Receptor>
prm/pocket_docking_8.prm

>  <SCORE>
-8.06331

>  <SCORE.INTER>
-7.42992

>  <SCORE.INTER.CONST>
1

>  <SCORE.INTER.POLAR>
0

>  <SCORE.INTER.ROT>
5

>  <SCORE.INTER.SOLV>
12.1041

>  <SCORE.INTER.VDW>
-15.9213

>  <SCORE.INTER.norm>
-0.337724

>  <SCORE.INTRA>
-0.633387

>  <SCORE.INTRA.DIHEDRAL>
-1.11107

>  <SCORE.INTRA.DIHEDRAL.0>
2.61549

>  <SCORE.INTRA.POLAR>
0

>  <SCORE.INTRA.POLAR.0>
0

>  <SCORE.INTRA.REPUL>
0

>  <SCORE.INTRA.REPUL.0>
0

>  <SCORE.INTRA.SOLV>
-0.247844

>  <SCORE.INTRA.SOLV.lig_0>
-73.766

>  <SCORE.INTRA.VDW>
0.046072

>  <SCORE.INTRA.VDW.0>
-1.95055

>  <SCORE.INTRA.norm>
-0.0287903

>  <SCORE.RESTR>
0

>  <SCORE.RESTR.CAVITY>
0

>  <SCORE.RESTR.norm>
0

>  <SCORE.SYSTEM>
0

>  <SCORE.SYSTEM.CONST>
0

>  <SCORE.SYSTEM.DIHEDRAL>
0

>  <SCORE.SYSTEM.SOLV>
0

>  <SCORE.SYSTEM.norm>
0

>  <SCORE.heavy>
22

>  <SCORE.norm>
-0.366514

>  <RMSD>
6.674

$$$$
ligand
 OpenBabel11021811513D
libRbt.so/2013.1/901 2013/11/27
 22 23  0  0  0  0  0  0  0  0999 V2000
   28.3194   -2.7435  103.5983 N   0  0  0  0  0  0  0  0  0  0  0  0
   29.8782   -0.3877  105.5296 C   0  0  1  0  0  0  0  0  0  0  0  0
   29.9307   -1.1847  104.2954 O   0  0  0  0  0  0  0  0  0  0  0  0
   32.1409   -2.6487  107.6192 P   0  0  2  0  0  0  0  0  0  0  0  0
   28.5567   -1.3885  103.8518 C   0  0  2  0  0  0  0  0  0  0  0  0
   27.9308   -4.8791  103.9147 N   0  0  0  0  0  0  0  0  0  0  0  0
   26.4987   -0.3062  104.4087 O   0  0  0  0  0  0  0  0  0  0  0  0
   27.6855   -0.9109  104.9435 C   0  0  2  0  0  0  0  0  0  0  0  0
   26.7493   -5.6178  100.6234 N   0  0  0  0  0  0  0  0  0  0  0  0
   28.3426    1.3701  105.0370 O   0  0  0  0  0  0  0  0  0  0  0  0
   28.4915    0.0786  105.6671 C   0  0  2  0  0  0  0  0  0  0  0  0
   27.9846   -4.6647  102.5858 C   0  0  0  0  0  0  0  0  0  0  0  0
   28.3644   -2.6643  101.1127 N   0  0  0  0  0  0  0  0  0  0  0  0
   31.5618   -1.6624  106.5533 O   0  0  0  0  0  0  0  0  0  0  0  0
   30.2411   -1.2354  106.6917 C   0  0  0  0  0  0  0  0  0  0  0  0
   31.3592   -4.0284  107.5597 O   0  0  0  0  0  0  0  0  0  0  0  0
   28.1386   -3.6872  104.5231 C   0  0  0  0  0  0  0  0  0  0  0  0
   28.6022   -6.6457  101.4591 O   0  0  0  0  0  0  0  0  0  0  0  0
   27.8120   -5.7076  101.5261 C   0  0  0  0  0  0  0  0  0  0  0  0
   28.2317   -3.3168  102.3695 C   0  0  0  0  0  0  0  0  0  0  0  0
   32.0892   -2.0630  108.9776 O   0  5  0  0  0  0  0  0  0  0  0  0
   33.6021   -2.8553  107.4287 O   0  0  0  0  0  0  0  0  0  0  0  0
  1 17  1  0  0  0  0
  1 20  1  0  0  0  0
  2 15  1  1  0  0  0
  2  3  1  0  0  0  0
  2 11  1  0  0  0  0
  3  5  1  0  0  0  0
  4 16  1  6  0  0  0
  4 21  1  0  0  0  0
  4 22  2  0  0  0  0
  4 14  1  0  0  0  0
  5  1  1  1  0  0  0
  5  8  1  0  0  0  0
  6 17  2  0  0  0  0
  6 12  1  0  0  0  0
  8  7  1  6  0  0  0
  8 11  1  0  0  0  0
  9 19  1  0  0  0  0
 11 10  1  6  0  0  0
 12 20  2  0  0  0  0
 12 19  1  0  0  0  0
 13 20  1  0  0  0  0
 14 15  1  0  0  0  0
 18 19  2  0  0  0  0
M  CHG  1  21  -1
M  END
>  <CHROM.1>
75.65361655,63.63545896,64.29028845,-176.16048632,117.56233618,29.44184114
-2.56062535,104.81051008,2.43924204,0.76285579,-2.68130019

>  <Name>
ligand

>  <RI>
0

>  <Rbt.Current_Directory>
/home/itssahil/PROJECTS/Mol_Feturizer/New_Systems/rnas/4XW7

>  <Rbt.Executable>
rbdock ($Id: //depot/dev/client3/rdock/2013.1/src/exe/rbdock.cxx#4 $)

>  <Rbt.Library>
libRbt.so (2013.1, Build901 2013/11/27)

>  <Rbt.Parameter_File>
/export/apps/rDock/src/rDock_2013.1_src/data/scripts/dock_solv.prm

>  <Rbt.Receptor>
prm/pocket_docking_6.prm

>  <SCORE>
-7.96832

>  <SCORE.INTER>
-6.91808

>  <SCORE.INTER.CONST>
1

>  <SCORE.INTER.POLAR>
0

>  <SCORE.INTER.ROT>
5

>  <SCORE.INTER.SOLV>
15.5796

>  <SCORE.INTER.VDW>
-16.7386

>  <SCORE.INTER.norm>
-0.314458

>  <SCORE.INTRA>
-1.05024

>  <SCORE.INTRA.DIHEDRAL>
-0.974691

>  <SCORE.INTRA.DIHEDRAL.0>
2.61549

>  <SCORE.INTRA.POLAR>
0

>  <SCORE.INTRA.POLAR.0>
0

>  <SCORE.INTRA.REPUL>
0

>  <SCORE.INTRA.REPUL.0>
0

>  <SCORE.INTRA.SOLV>
-0.857922

>  <SCORE.INTRA.SOLV.lig_0>
-73.766

>  <SCORE.INTRA.VDW>
-0.133935

>  <SCORE.INTRA.VDW.0>
-1.95055

>  <SCORE.INTRA.norm>
-0.0477383

>  <SCORE.RESTR>
0

>  <SCORE.RESTR.CAVITY>
0

>  <SCORE.RESTR.norm>
0

>  <SCORE.SYSTEM>
0

>  <SCORE.SYSTEM.CONST>
0

>  <SCORE.SYSTEM.DIHEDRAL>
0

>  <SCORE.SYSTEM.SOLV>
0

>  <SCORE.SYSTEM.norm>
0

>  <SCORE.heavy>
22

>  <SCORE.norm>
-0.362196

>  <RMSD>
6.676

$$$$
ligand
 OpenBabel11021811513D
libRbt.so/2013.1/901 2013/11/27
 22 23  0  0  0  0  0  0  0  0999 V2000
   28.2790   -2.7330  103.6936 N   0  0  0  0  0  0  0  0  0  0  0  0
   29.8936   -0.3554  105.5509 C   0  0  1  0  0  0  0  0  0  0  0  0
   29.9263   -1.1908  104.3416 O   0  0  0  0  0  0  0  0  0  0  0  0
   32.1048   -2.6022  107.7116 P   0  0  2  0  0  0  0  0  0  0  0  0
   28.5474   -1.3767  103.9053 C   0  0  2  0  0  0  0  0  0  0  0  0
   27.8680   -4.8536  104.0757 N   0  0  0  0  0  0  0  0  0  0  0  0
   26.5154   -0.2311  104.4300 O   0  0  0  0  0  0  0  0  0  0  0  0
   27.6888   -0.8461  104.9824 C   0  0  2  0  0  0  0  0  0  0  0  0
   28.6819   -6.1112  100.8535 N   0  0  0  0  0  0  0  0  0  0  0  0
   28.3979    1.4211  105.0056 O   0  0  0  0  0  0  0  0  0  0  0  0
   28.5181    0.1465  105.6748 C   0  0  2  0  0  0  0  0  0  0  0  0
   27.8756   -4.6715  102.7409 C   0  0  0  0  0  0  0  0  0  0  0  0
   28.2325   -2.7132  101.2069 N   0  0  0  0  0  0  0  0  0  0  0  0
   31.5166   -1.7088  106.5714 O   0  0  0  0  0  0  0  0  0  0  0  0
   30.2386   -1.1752  106.7381 C   0  0  0  0  0  0  0  0  0  0  0  0
   33.5505   -3.1146  107.3053 O   0  0  0  0  0  0  0  0  0  0  0  0
   28.1176   -3.6514  104.6470 C   0  0  0  0  0  0  0  0  0  0  0  0
   26.5446   -6.2710  101.6249 O   0  0  0  0  0  0  0  0  0  0  0  0
   27.6468   -5.7360  101.7138 C   0  0  0  0  0  0  0  0  0  0  0  0
   28.1363   -3.3335  102.4831 C   0  0  0  0  0  0  0  0  0  0  0  0
   31.2047   -3.7347  108.0255 O   0  5  0  0  0  0  0  0  0  0  0  0
   32.1428   -1.8714  109.0072 O   0  0  0  0  0  0  0  0  0  0  0  0
  1 17  1  0  0  0  0
  1 20  1  0  0  0  0
  2 15  1  1  0  0  0
  2  3  1  0  0  0  0
  2 11  1  0  0  0  0
  3  5  1  0  0  0  0
  4 16  1  6  0  0  0
  4 21  1  0  0  0  0
  4 22  2  0  0  0  0
  4 14  1  0  0  0  0
  5  1  1  1  0  0  0
  5  8  1  0  0  0  0
  6 17  2  0  0  0  0
  6 12  1  0  0  0  0
  8  7  1  6  0  0  0
  8 11  1  0  0  0  0
  9 19  1  0  0  0  0
 11 10  1  6  0  0  0
 12 20  2  0  0  0  0
 12 19  1  0  0  0  0
 13 20  1  0  0  0  0
 14 15  1  0  0  0  0
 18 19  2  0  0  0  0
M  CHG  1  21  -1
M  END
>  <CHROM.1>
73.51634203,59.74785475,179.23691426,179.34244916,-114.01683723,29.39139602
-2.53603836,104.90065517,2.46461065,0.76611077,-2.72816867

>  <Name>
ligand

>  <RI>
0

>  <Rbt.Current_Directory>
/home/itssahil/PROJECTS/Mol_Feturizer/New_Systems/rnas/4XW7

>  <Rbt.Executable>
rbdock ($Id: //depot/dev/client3/rdock/2013.1/src/exe/rbdock.cxx#4 $)

>  <Rbt.Library>
libRbt.so (2013.1, Build901 2013/11/27)

>  <Rbt.Parameter_File>
/export/apps/rDock/src/rDock_2013.1_src/data/scripts/dock_solv.prm

>  <Rbt.Receptor>
prm/pocket_docking_7.prm

>  <SCORE>
-8.20693

>  <SCORE.INTER>
-7.46591

>  <SCORE.INTER.CONST>
1

>  <SCORE.INTER.POLAR>
0

>  <SCORE.INTER.ROT>
5

>  <SCORE.INTER.SOLV>
12.1735

>  <SCORE.INTER.VDW>
-15.9684

>  <SCORE.INTER.norm>
-0.33936

>  <SCORE.INTRA>
-0.741016

>  <SCORE.INTRA.DIHEDRAL>
-1.08959

>  <SCORE.INTRA.DIHEDRAL.0>
2.61549

>  <SCORE.INTRA.POLAR>
0

>  <SCORE.INTRA.POLAR.0>
0

>  <SCORE.INTRA.REPUL>
0

>  <SCORE.INTRA.REPUL.0>
0

>  <SCORE.INTRA.SOLV>
-0.277926

>  <SCORE.INTRA.SOLV.lig_0>
-73.766

>  <SCORE.INTRA.VDW>
-0.0572585

>  <SCORE.INTRA.VDW.0>
-1.95055

>  <SCORE.INTRA.norm>
-0.0336825

>  <SCORE.RESTR>
0

>  <SCORE.RESTR.CAVITY>
0

>  <SCORE.RESTR.norm>
0

>  <SCORE.SYSTEM>
0

>  <SCORE.SYSTEM.CONST>
0

>  <SCORE.SYSTEM.DIHEDRAL>
0

>  <SCORE.SYSTEM.SOLV>
0

>  <SCORE.SYSTEM.norm>
0

>  <SCORE.heavy>
22

>  <SCORE.norm>
-0.373042

>  <RMSD>
6.676

$$$$
ligand
 OpenBabel11021811513D
libRbt.so/2013.1/901 2013/11/27
 22 23  0  0  0  0  0  0  0  0999 V2000
   28.2985   -2.7740  103.7322 N   0  0  0  0  0  0  0  0  0  0  0  0
   29.9333   -0.3962  105.5716 C   0  0  1  0  0  0  0  0  0  0  0  0
   29.9526   -1.2315  104.3619 O   0  0  0  0  0  0  0  0  0  0  0  0
   32.1854   -2.6080  107.7262 P   0  0  2  0  0  0  0  0  0  0  0  0
   28.5689   -1.4177  103.9411 C   0  0  2  0  0  0  0  0  0  0  0  0
   27.8747   -4.8913  104.1187 N   0  0  0  0  0  0  0  0  0  0  0  0
   26.5426   -0.2727  104.4888 O   0  0  0  0  0  0  0  0  0  0  0  0
   27.7223   -0.8875  105.0279 C   0  0  2  0  0  0  0  0  0  0  0  0
   28.7372   -6.1912  100.9370 N   0  0  0  0  0  0  0  0  0  0  0  0
   28.4310    1.3799  105.0435 O   0  0  0  0  0  0  0  0  0  0  0  0
   28.5590    0.1052  105.7111 C   0  0  2  0  0  0  0  0  0  0  0  0
   27.9012   -4.7157  102.7833 C   0  0  0  0  0  0  0  0  0  0  0  0
   28.2860   -2.7660  101.2450 N   0  0  0  0  0  0  0  0  0  0  0  0
   31.5910   -1.6999  106.6009 O   0  0  0  0  0  0  0  0  0  0  0  0
   30.2918   -1.2161  106.7548 C   0  0  0  0  0  0  0  0  0  0  0  0
   33.6492   -3.0736  107.3281 O   0  0  0  0  0  0  0  0  0  0  0  0
   28.1208   -3.6873  104.6876 C   0  0  0  0  0  0  0  0  0  0  0  0
   26.5719   -6.2946  101.6365 O   0  0  0  0  0  0  0  0  0  0  0  0
   27.6826   -5.7843  101.7582 C   0  0  0  0  0  0  0  0  0  0  0  0
   28.1702   -3.3798  102.5227 C   0  0  0  0  0  0  0  0  0  0  0  0
   31.3098   -3.7703  107.9974 O   0  5  0  0  0  0  0  0  0  0  0  0
   32.1869   -1.9107  109.0406 O   0  0  0  0  0  0  0  0  0  0  0  0
  1 17  1  0  0  0  0
  1 20  1  0  0  0  0
  2 15  1  1  0  0  0
  2  3  1  0  0  0  0
  2 11  1  0  0  0  0
  3  5  1  0  0  0  0
  4 16  1  6  0  0  0
  4 21  1  0  0  0  0
  4 22  2  0  0  0  0
  4 14  1  0  0  0  0
  5  1  1  1  0  0  0
  5  8  1  0  0  0  0
  6 17  2  0  0  0  0
  6 12  1  0  0  0  0
  8  7  1  6  0  0  0
  8 11  1  0  0  0  0
  9 19  1  0  0  0  0
 11 10  1  6  0  0  0
 12 20  2  0  0  0  0
 12 19  1  0  0  0  0
 13 20  1  0  0  0  0
 14 15  1  0  0  0  0
 18 19  2  0  0  0  0
M  CHG  1  21  -1
M  END
>  <CHROM.1>
74.98808321,62.40275369,178.45644861,-179.41808101,-112.38400058,29.43715804
-2.56857515,104.93199001,2.46154515,0.75326867,-2.72542031

>  <Name>
ligand

>  <RI>
0

>  <Rbt.Current_Directory>
/home/itssahil/PROJECTS/Mol_Feturizer/New_Systems/rnas/4XW7

>  <Rbt.Executable>
rbdock ($Id: //depot/dev/client3/rdock/2013.1/src/exe/rbdock.cxx#4 $)

>  <Rbt.Library>
libRbt.so (2013.1, Build901 2013/11/27)

>  <Rbt.Parameter_File>
/export/apps/rDock/src/rDock_2013.1_src/data/scripts/dock_solv.prm

>  <Rbt.Receptor>
prm/pocket_docking_6.prm

>  <SCORE>
-8.206

>  <SCORE.INTER>
-7.51837

>  <SCORE.INTER.CONST>
1

>  <SCORE.INTER.POLAR>
0

>  <SCORE.INTER.ROT>
5

>  <SCORE.INTER.SOLV>
12.5323

>  <SCORE.INTER.VDW>
-16.123

>  <SCORE.INTER.norm>
-0.341744

>  <SCORE.INTRA>
-0.687628

>  <SCORE.INTRA.DIHEDRAL>
-1.03866

>  <SCORE.INTRA.DIHEDRAL.0>
2.61549

>  <SCORE.INTRA.POLAR>
0

>  <SCORE.INTRA.POLAR.0>
0

>  <SCORE.INTRA.REPUL>
0

>  <SCORE.INTRA.REPUL.0>
0

>  <SCORE.INTRA.SOLV>
-0.284883

>  <SCORE.INTRA.SOLV.lig_0>
-73.766

>  <SCORE.INTRA.VDW>
-0.0258591

>  <SCORE.INTRA.VDW.0>
-1.95055

>  <SCORE.INTRA.norm>
-0.0312558

>  <SCORE.RESTR>
0

>  <SCORE.RESTR.CAVITY>
0

>  <SCORE.RESTR.norm>
0

>  <SCORE.SYSTEM>
0

>  <SCORE.SYSTEM.CONST>
0

>  <SCORE.SYSTEM.DIHEDRAL>
0

>  <SCORE.SYSTEM.SOLV>
0

>  <SCORE.SYSTEM.norm>
0

>  <SCORE.heavy>
22

>  <SCORE.norm>
-0.373

>  <RMSD>
6.677

$$$$
ligand
 OpenBabel11021811513D
libRbt.so/2013.1/901 2013/11/27
 22 23  0  0  0  0  0  0  0  0999 V2000
   31.8546   -2.8824  107.3605 N   0  0  0  0  0  0  0  0  0  0  0  0
   29.9916   -0.0125  107.4116 C   0  0  1  0  0  0  0  0  0  0  0  0
   31.2754   -0.6289  107.0468 O   0  0  0  0  0  0  0  0  0  0  0  0
   31.0591    1.5710  110.7108 P   0  0  2  0  0  0  0  0  0  0  0  0
   31.0022   -2.0117  106.6735 C   0  0  2  0  0  0  0  0  0  0  0  0
   33.6745   -3.7852  108.1879 N   0  0  0  0  0  0  0  0  0  0  0  0
   28.9908   -3.1615  106.0825 O   0  0  0  0  0  0  0  0  0  0  0  0
   29.5965   -2.2772  107.0372 C   0  0  2  0  0  0  0  0  0  0  0  0
   32.0628   -6.9429  109.0134 N   0  0  0  0  0  0  0  0  0  0  0  0
   28.4996   -0.6726  105.6713 O   0  0  0  0  0  0  0  0  0  0  0  0
   28.9440   -0.9634  107.0148 C   0  0  2  0  0  0  0  0  0  0  0  0
   32.6288   -4.5399  108.5777 C   0  0  0  0  0  0  0  0  0  0  0  0
   30.1412   -4.4621  108.2294 N   0  0  0  0  0  0  0  0  0  0  0  0
   31.0368    0.9798  109.2637 O   0  0  0  0  0  0  0  0  0  0  0  0
   29.9392    0.2107  108.8772 C   0  0  0  0  0  0  0  0  0  0  0  0
   29.9511    2.6983  110.8511 O   0  0  0  0  0  0  0  0  0  0  0  0
   33.1810   -2.7698  107.4400 C   0  0  0  0  0  0  0  0  0  0  0  0
   33.3385   -5.7510  110.4763 O   0  0  0  0  0  0  0  0  0  0  0  0
   32.7096   -5.7736  109.4214 C   0  0  0  0  0  0  0  0  0  0  0  0
   31.4690   -3.9816  108.0600 C   0  0  0  0  0  0  0  0  0  0  0  0
   32.4001    2.0932  111.0575 O   0  5  0  0  0  0  0  0  0  0  0  0
   30.8695    0.5070  111.7336 O   0  0  0  0  0  0  0  0  0  0  0  0
  1 17  1  0  0  0  0
  1 20  1  0  0  0  0
  2 15  1  1  0  0  0
  2  3  1  0  0  0  0
  2 11  1  0  0  0  0
  3  5  1  0  0  0  0
  4 16  1  1  0  0  0
  4 21  1  0  0  0  0
  4 22  2  0  0  0  0
  4 14  1  0  0  0  0
  5  1  1  1  0  0  0
  5  8  1  0  0  0  0
  6 17  2  0  0  0  0
  6 12  1  0  0  0  0
  8  7  1  6  0  0  0
  8 11  1  0  0  0  0
  9 19  1  0  0  0  0
 11 10  1  6  0  0  0
 12 20  2  0  0  0  0
 12 19  1  0  0  0  0
 13 20  1  0  0  0  0
 14 15  1  0  0  0  0
 18 19  2  0  0  0  0
M  CHG  1  21  -1
M  END
>  <CHROM.1>
-50.32087486,55.84846549,-69.06651815,168.68356810,-129.98207421,31.08147505
-1.63453704,108.62581305,1.24885641,0.89491750,-2.62677310

>  <Name>
ligand

>  <RI>
0

>  <Rbt.Current_Directory>
/home/itssahil/PROJECTS/Mol_Feturizer/New_Systems/rnas/4XW7

>  <Rbt.Executable>
rbdock ($Id: //depot/dev/client3/rdock/2013.1/src/exe/rbdock.cxx#4 $)

>  <Rbt.Library>
libRbt.so (2013.1, Build901 2013/11/27)

>  <Rbt.Parameter_File>
/export/apps/rDock/src/rDock_2013.1_src/data/scripts/dock_solv.prm

>  <Rbt.Receptor>
prm/pocket_docking_7.prm

>  <SCORE>
-4.75875

>  <SCORE.INTER>
-8.30434

>  <SCORE.INTER.CONST>
1

>  <SCORE.INTER.POLAR>
0

>  <SCORE.INTER.ROT>
5

>  <SCORE.INTER.SOLV>
13.4619

>  <SCORE.INTER.VDW>
-16.9569

>  <SCORE.INTER.norm>
-0.37747

>  <SCORE.INTRA>
3.54559

>  <SCORE.INTRA.DIHEDRAL>
-0.221815

>  <SCORE.INTRA.DIHEDRAL.0>
2.61549

>  <SCORE.INTRA.POLAR>
0

>  <SCORE.INTRA.POLAR.0>
0

>  <SCORE.INTRA.REPUL>
0

>  <SCORE.INTRA.REPUL.0>
0

>  <SCORE.INTRA.SOLV>
2.70797

>  <SCORE.INTRA.SOLV.lig_0>
-73.766

>  <SCORE.INTRA.VDW>
2.30251

>  <SCORE.INTRA.VDW.0>
-1.95055

>  <SCORE.INTRA.norm>
0.161163

>  <SCORE.RESTR>
0

>  <SCORE.RESTR.CAVITY>
0

>  <SCORE.RESTR.norm>
0

>  <SCORE.SYSTEM>
0

>  <SCORE.SYSTEM.CONST>
0

>  <SCORE.SYSTEM.DIHEDRAL>
0

>  <SCORE.SYSTEM.SOLV>
0

>  <SCORE.SYSTEM.norm>
0

>  <SCORE.heavy>
22

>  <SCORE.norm>
-0.216307

>  <RMSD>
6.679

$$$$
ligand
 OpenBabel11021811513D
libRbt.so/2013.1/901 2013/11/27
 22 23  0  0  0  0  0  0  0  0999 V2000
   28.3026   -2.7600  103.6966 N   0  0  0  0  0  0  0  0  0  0  0  0
   29.8726   -0.3228  105.5146 C   0  0  1  0  0  0  0  0  0  0  0  0
   29.9200   -1.1757  104.3181 O   0  0  0  0  0  0  0  0  0  0  0  0
   32.1423   -2.4671  107.7185 P   0  0  2  0  0  0  0  0  0  0  0  0
   28.5444   -1.3956  103.8872 C   0  0  2  0  0  0  0  0  0  0  0  0
   27.9147   -4.8788  104.1116 N   0  0  0  0  0  0  0  0  0  0  0  0
   26.4908   -0.2827  104.3982 O   0  0  0  0  0  0  0  0  0  0  0  0
   27.6771   -0.8658  104.9577 C   0  0  2  0  0  0  0  0  0  0  0  0
   28.8199   -6.1605  100.9108 N   0  0  0  0  0  0  0  0  0  0  0  0
   28.3410    1.4151  104.9452 O   0  0  0  0  0  0  0  0  0  0  0  0
   28.4875    0.1534  105.6335 C   0  0  2  0  0  0  0  0  0  0  0  0
   27.9545   -4.7236  102.7739 C   0  0  0  0  0  0  0  0  0  0  0  0
   28.3211   -2.7912  101.2096 N   0  0  0  0  0  0  0  0  0  0  0  0
   31.5362   -1.6001  106.5673 O   0  0  0  0  0  0  0  0  0  0  0  0
   30.2357   -1.1174  106.7135 C   0  0  0  0  0  0  0  0  0  0  0  0
   33.5968   -2.9580  107.3169 O   0  0  0  0  0  0  0  0  0  0  0  0
   28.1306   -3.6615  104.6642 C   0  0  0  0  0  0  0  0  0  0  0  0
   26.6888   -6.3907  101.6813 O   0  0  0  0  0  0  0  0  0  0  0  0
   27.7693   -5.8122  101.7634 C   0  0  0  0  0  0  0  0  0  0  0  0
   28.2011   -3.3871  102.4955 C   0  0  0  0  0  0  0  0  0  0  0  0
   31.2638   -3.6117  108.0488 O   0  5  0  0  0  0  0  0  0  0  0  0
   32.1684   -1.7184  109.0042 O   0  0  0  0  0  0  0  0  0  0  0  0
  1 17  1  0  0  0  0
  1 20  1  0  0  0  0
  2 15  1  1  0  0  0
  2  3  1  0  0  0  0
  2 11  1  0  0  0  0
  3  5  1  0  0  0  0
  4 16  1  6  0  0  0
  4 21  1  0  0  0  0
  4 22  2  0  0  0  0
  4 14  1  0  0  0  0
  5  1  1  1  0  0  0
  5  8  1  0  0  0  0
  6 17  2  0  0  0  0
  6 12  1  0  0  0  0
  8  7  1  6  0  0  0
  8 11  1  0  0  0  0
  9 19  1  0  0  0  0
 11 10  1  6  0  0  0
 12 20  2  0  0  0  0
 12 19  1  0  0  0  0
 13 20  1  0  0  0  0
 14 15  1  0  0  0  0
 18 19  2  0  0  0  0
M  CHG  1  21  -1
M  END
>  <CHROM.1>
75.15366094,61.22867206,177.57167429,179.76069319,-115.94668612,29.42506479
-2.51703474,104.90226199,2.43122907,0.75535095,-2.72055807

>  <Name>
ligand

>  <RI>
0

>  <Rbt.Current_Directory>
/home/itssahil/PROJECTS/Mol_Feturizer/New_Systems/rnas/4XW7

>  <Rbt.Executable>
rbdock ($Id: //depot/dev/client3/rdock/2013.1/src/exe/rbdock.cxx#4 $)

>  <Rbt.Library>
libRbt.so (2013.1, Build901 2013/11/27)

>  <Rbt.Parameter_File>
/export/apps/rDock/src/rDock_2013.1_src/data/scripts/dock_solv.prm

>  <Rbt.Receptor>
prm/pocket_docking_8.prm

>  <SCORE>
-8.21491

>  <SCORE.INTER>
-7.51738

>  <SCORE.INTER.CONST>
1

>  <SCORE.INTER.POLAR>
0

>  <SCORE.INTER.ROT>
5

>  <SCORE.INTER.SOLV>
12.3584

>  <SCORE.INTER.VDW>
-16.0644

>  <SCORE.INTER.norm>
-0.341699

>  <SCORE.INTRA>
-0.697535

>  <SCORE.INTRA.DIHEDRAL>
-1.09738

>  <SCORE.INTRA.DIHEDRAL.0>
2.61549

>  <SCORE.INTRA.POLAR>
0

>  <SCORE.INTRA.POLAR.0>
0

>  <SCORE.INTRA.REPUL>
0

>  <SCORE.INTRA.REPUL.0>
0

>  <SCORE.INTRA.SOLV>
-0.261806

>  <SCORE.INTRA.SOLV.lig_0>
-73.766

>  <SCORE.INTRA.VDW>
-0.0179422

>  <SCORE.INTRA.VDW.0>
-1.95055

>  <SCORE.INTRA.norm>
-0.0317062

>  <SCORE.RESTR>
0

>  <SCORE.RESTR.CAVITY>
0

>  <SCORE.RESTR.norm>
0

>  <SCORE.SYSTEM>
0

>  <SCORE.SYSTEM.CONST>
0

>  <SCORE.SYSTEM.DIHEDRAL>
0

>  <SCORE.SYSTEM.SOLV>
0

>  <SCORE.SYSTEM.norm>
0

>  <SCORE.heavy>
22

>  <SCORE.norm>
-0.373405

>  <RMSD>
6.688

$$$$
ligand
 OpenBabel11021811513D
libRbt.so/2013.1/901 2013/11/27
 22 23  0  0  0  0  0  0  0  0999 V2000
   28.3046   -2.7536  103.6273 N   0  0  0  0  0  0  0  0  0  0  0  0
   29.8988   -0.3897  105.5194 C   0  0  1  0  0  0  0  0  0  0  0  0
   29.9343   -1.2005  104.2936 O   0  0  0  0  0  0  0  0  0  0  0  0
   32.1727   -2.6210  107.6283 P   0  0  2  0  0  0  0  0  0  0  0  0
   28.5550   -1.3979  103.8639 C   0  0  2  0  0  0  0  0  0  0  0  0
   27.9058   -4.8832  103.9705 N   0  0  0  0  0  0  0  0  0  0  0  0
   26.5106   -0.2928  104.4262 O   0  0  0  0  0  0  0  0  0  0  0  0
   27.6970   -0.9013  104.9576 C   0  0  2  0  0  0  0  0  0  0  0  0
   26.6793   -5.6386  100.6955 N   0  0  0  0  0  0  0  0  0  0  0  0
   28.3733    1.3751  105.0205 O   0  0  0  0  0  0  0  0  0  0  0  0
   28.5171    0.0894  105.6634 C   0  0  2  0  0  0  0  0  0  0  0  0
   27.9417   -4.6823  102.6388 C   0  0  0  0  0  0  0  0  0  0  0  0
   28.3139   -2.6992  101.1407 N   0  0  0  0  0  0  0  0  0  0  0  0
   31.5906   -1.6412  106.5581 O   0  0  0  0  0  0  0  0  0  0  0  0
   30.2648   -1.2276  106.6876 C   0  0  0  0  0  0  0  0  0  0  0  0
   31.3998   -4.0056  107.5705 O   0  0  0  0  0  0  0  0  0  0  0  0
   28.1308   -3.6869  104.5639 C   0  0  0  0  0  0  0  0  0  0  0  0
   28.5222   -6.6848  101.5307 O   0  0  0  0  0  0  0  0  0  0  0  0
   27.7466   -5.7342  101.5922 C   0  0  0  0  0  0  0  0  0  0  0  0
   28.1951   -3.3383  102.4057 C   0  0  0  0  0  0  0  0  0  0  0  0
   32.1136   -2.0317  108.9849 O   0  5  0  0  0  0  0  0  0  0  0  0
   33.6357   -2.8190  107.4425 O   0  0  0  0  0  0  0  0  0  0  0  0
  1 17  1  0  0  0  0
  1 20  1  0  0  0  0
  2 15  1  1  0  0  0
  2  3  1  0  0  0  0
  2 11  1  0  0  0  0
  3  5  1  0  0  0  0
  4 16  1  6  0  0  0
  4 21  1  0  0  0  0
  4 22  2  0  0  0  0
  4 14  1  0  0  0  0
  5  1  1  1  0  0  0
  5  8  1  0  0  0  0
  6 17  2  0  0  0  0
  6 12  1  0  0  0  0
  8  7  1  6  0  0  0
  8 11  1  0  0  0  0
  9 19  1  0  0  0  0
 11 10  1  6  0  0  0
 12 20  2  0  0  0  0
 12 19  1  0  0  0  0
 13 20  1  0  0  0  0
 14 15  1  0  0  0  0
 18 19  2  0  0  0  0
M  CHG  1  21  -1
M  END
>  <CHROM.1>
75.29678659,65.00316182,63.95329532,-175.88909275,118.21155791,29.44021660
-2.55902269,104.83193608,2.45504651,0.75771492,-2.70392614

>  <Name>
ligand

>  <RI>
0

>  <Rbt.Current_Directory>
/home/itssahil/PROJECTS/Mol_Feturizer/New_Systems/rnas/4XW7

>  <Rbt.Executable>
rbdock ($Id: //depot/dev/client3/rdock/2013.1/src/exe/rbdock.cxx#4 $)

>  <Rbt.Library>
libRbt.so (2013.1, Build901 2013/11/27)

>  <Rbt.Parameter_File>
/export/apps/rDock/src/rDock_2013.1_src/data/scripts/dock_solv.prm

>  <Rbt.Receptor>
prm/pocket_docking_6.prm

>  <SCORE>
-7.98648

>  <SCORE.INTER>
-6.94768

>  <SCORE.INTER.CONST>
1

>  <SCORE.INTER.POLAR>
0

>  <SCORE.INTER.ROT>
5

>  <SCORE.INTER.SOLV>
15.4342

>  <SCORE.INTER.VDW>
-16.7099

>  <SCORE.INTER.norm>
-0.315804

>  <SCORE.INTRA>
-1.0388

>  <SCORE.INTRA.DIHEDRAL>
-0.928225

>  <SCORE.INTRA.DIHEDRAL.0>
2.61549

>  <SCORE.INTRA.POLAR>
0

>  <SCORE.INTRA.POLAR.0>
0

>  <SCORE.INTRA.REPUL>
0

>  <SCORE.INTRA.REPUL.0>
0

>  <SCORE.INTRA.SOLV>
-0.863554

>  <SCORE.INTRA.SOLV.lig_0>
-73.766

>  <SCORE.INTRA.VDW>
-0.142913

>  <SCORE.INTRA.VDW.0>
-1.95055

>  <SCORE.INTRA.norm>
-0.0472183

>  <SCORE.RESTR>
0

>  <SCORE.RESTR.CAVITY>
0

>  <SCORE.RESTR.norm>
0

>  <SCORE.SYSTEM>
0

>  <SCORE.SYSTEM.CONST>
0

>  <SCORE.SYSTEM.DIHEDRAL>
0

>  <SCORE.SYSTEM.SOLV>
0

>  <SCORE.SYSTEM.norm>
0

>  <SCORE.heavy>
22

>  <SCORE.norm>
-0.363022

>  <RMSD>
6.690

$$$$
ligand
 OpenBabel11021811513D
libRbt.so/2013.1/901 2013/11/27
 22 23  0  0  0  0  0  0  0  0999 V2000
   28.2870   -2.7466  103.7037 N   0  0  0  0  0  0  0  0  0  0  0  0
   29.9319   -0.4029  105.5774 C   0  0  1  0  0  0  0  0  0  0  0  0
   29.9478   -1.2206  104.3557 O   0  0  0  0  0  0  0  0  0  0  0  0
   32.1974   -2.6014  107.7314 P   0  0  2  0  0  0  0  0  0  0  0  0
   28.5634   -1.3946  103.9321 C   0  0  2  0  0  0  0  0  0  0  0  0
   27.8712   -4.8709  104.0594 N   0  0  0  0  0  0  0  0  0  0  0  0
   26.5420   -0.2488  104.4960 O   0  0  0  0  0  0  0  0  0  0  0  0
   27.7189   -0.8764  105.0263 C   0  0  2  0  0  0  0  0  0  0  0  0
   27.2952   -7.0211  102.0718 N   0  0  0  0  0  0  0  0  0  0  0  0
   28.4376    1.3873  105.0747 O   0  0  0  0  0  0  0  0  0  0  0  0
   28.5599    0.1026  105.7239 C   0  0  2  0  0  0  0  0  0  0  0  0
   27.8653   -4.6695  102.7273 C   0  0  0  0  0  0  0  0  0  0  0  0
   28.2140   -2.6905  101.2181 N   0  0  0  0  0  0  0  0  0  0  0  0
   31.5912   -1.7115  106.5979 O   0  0  0  0  0  0  0  0  0  0  0  0
   30.2866   -1.2413  106.7486 C   0  0  0  0  0  0  0  0  0  0  0  0
   33.6462   -3.0958  107.3138 O   0  0  0  0  0  0  0  0  0  0  0  0
   28.1320   -3.6782  104.6453 C   0  0  0  0  0  0  0  0  0  0  0  0
   27.7170   -5.4304  100.4970 O   0  0  0  0  0  0  0  0  0  0  0  0
   27.6212   -5.7179  101.6874 C   0  0  0  0  0  0  0  0  0  0  0  0
   28.1289   -3.3289  102.4862 C   0  0  0  0  0  0  0  0  0  0  0  0
   31.3126   -3.7452  108.0478 O   0  5  0  0  0  0  0  0  0  0  0  0
   32.2357   -1.8741  109.0290 O   0  0  0  0  0  0  0  0  0  0  0  0
  1 17  1  0  0  0  0
  1 20  1  0  0  0  0
  2 15  1  1  0  0  0
  2  3  1  0  0  0  0
  2 11  1  0  0  0  0
  3  5  1  0  0  0  0
  4 16  1  6  0  0  0
  4 21  1  0  0  0  0
  4 22  2  0  0  0  0
  4 14  1  0  0  0  0
  5  1  1  1  0  0  0
  5  8  1  0  0  0  0
  6 17  2  0  0  0  0
  6 12  1  0  0  0  0
  8  7  1  6  0  0  0
  8 11  1  0  0  0  0
  9 19  1  0  0  0  0
 11 10  1  6  0  0  0
 12 20  2  0  0  0  0
 12 19  1  0  0  0  0
 13 20  1  0  0  0  0
 14 15  1  0  0  0  0
 18 19  2  0  0  0  0
M  CHG  1  21  -1
M  END
>  <CHROM.1>
73.53843495,63.32227998,176.48332552,178.85164035,3.72609349,29.42607735
-2.54639152,104.91566759,2.49062501,0.77693666,-2.74817462

>  <Name>
ligand

>  <RI>
0

>  <Rbt.Current_Directory>
/home/itssahil/PROJECTS/Mol_Feturizer/New_Systems/rnas/4XW7

>  <Rbt.Executable>
rbdock ($Id: //depot/dev/client3/rdock/2013.1/src/exe/rbdock.cxx#4 $)

>  <Rbt.Library>
libRbt.so (2013.1, Build901 2013/11/27)

>  <Rbt.Parameter_File>
/export/apps/rDock/src/rDock_2013.1_src/data/scripts/dock_solv.prm

>  <Rbt.Receptor>
prm/pocket_docking_8.prm

>  <SCORE>
-8.05762

>  <SCORE.INTER>
-7.4948

>  <SCORE.INTER.CONST>
1

>  <SCORE.INTER.POLAR>
0

>  <SCORE.INTER.ROT>
5

>  <SCORE.INTER.SOLV>
12.3421

>  <SCORE.INTER.VDW>
-16.0439

>  <SCORE.INTER.norm>
-0.340673

>  <SCORE.INTRA>
-0.562819

>  <SCORE.INTRA.DIHEDRAL>
-1.04743

>  <SCORE.INTRA.DIHEDRAL.0>
2.61549

>  <SCORE.INTRA.POLAR>
0

>  <SCORE.INTRA.POLAR.0>
0

>  <SCORE.INTRA.REPUL>
0

>  <SCORE.INTRA.REPUL.0>
0

>  <SCORE.INTRA.SOLV>
-0.25147

>  <SCORE.INTRA.SOLV.lig_0>
-73.766

>  <SCORE.INTRA.VDW>
0.0866283

>  <SCORE.INTRA.VDW.0>
-1.95055

>  <SCORE.INTRA.norm>
-0.0255827

>  <SCORE.RESTR>
0

>  <SCORE.RESTR.CAVITY>
0

>  <SCORE.RESTR.norm>
0

>  <SCORE.SYSTEM>
0

>  <SCORE.SYSTEM.CONST>
0

>  <SCORE.SYSTEM.DIHEDRAL>
0

>  <SCORE.SYSTEM.SOLV>
0

>  <SCORE.SYSTEM.norm>
0

>  <SCORE.heavy>
22

>  <SCORE.norm>
-0.366255

>  <RMSD>
6.697

$$$$
ligand
 OpenBabel11021811513D
libRbt.so/2013.1/901 2013/11/27
 22 23  0  0  0  0  0  0  0  0999 V2000
   28.2985   -2.6751  103.3106 N   0  0  0  0  0  0  0  0  0  0  0  0
   29.7836   -0.3884  105.3783 C   0  0  1  0  0  0  0  0  0  0  0  0
   29.8896   -1.1544  104.1279 O   0  0  0  0  0  0  0  0  0  0  0  0
   31.9494   -2.6325  107.5872 P   0  0  2  0  0  0  0  0  0  0  0  0
   28.5376   -1.3300  103.6108 C   0  0  2  0  0  0  0  0  0  0  0  0
   27.9154   -4.8214  103.5530 N   0  0  0  0  0  0  0  0  0  0  0  0
   26.4661   -0.2370  104.0917 O   0  0  0  0  0  0  0  0  0  0  0  0
   27.6177   -0.8696  104.6695 C   0  0  2  0  0  0  0  0  0  0  0  0
   27.5040   -6.8975  101.4503 N   0  0  0  0  0  0  0  0  0  0  0  0
   28.2942    1.4000  104.8551 O   0  0  0  0  0  0  0  0  0  0  0  0
   28.3969    0.0912  105.4580 C   0  0  2  0  0  0  0  0  0  0  0  0
   27.9537   -4.5584  102.2323 C   0  0  0  0  0  0  0  0  0  0  0  0
   28.3147   -2.5049  100.8292 N   0  0  0  0  0  0  0  0  0  0  0  0
   31.4130   -1.6704  106.4778 O   0  0  0  0  0  0  0  0  0  0  0  0
   30.0781   -1.2698  106.5346 C   0  0  0  0  0  0  0  0  0  0  0  0
   31.2092   -4.0328  107.4922 O   0  0  0  0  0  0  0  0  0  0  0  0
   28.1293   -3.6523  104.2022 C   0  0  0  0  0  0  0  0  0  0  0  0
   27.8622   -5.2087   99.9643 O   0  0  0  0  0  0  0  0  0  0  0  0
   27.7698   -5.5620  101.1372 C   0  0  0  0  0  0  0  0  0  0  0  0
   28.1972   -3.2031  102.0627 C   0  0  0  0  0  0  0  0  0  0  0  0
   31.7973   -2.0375  108.9341 O   0  5  0  0  0  0  0  0  0  0  0  0
   33.4246   -2.8016  107.4906 O   0  0  0  0  0  0  0  0  0  0  0  0
  1 17  1  0  0  0  0
  1 20  1  0  0  0  0
  2 15  1  1  0  0  0
  2  3  1  0  0  0  0
  2 11  1  0  0  0  0
  3  5  1  0  0  0  0
  4 16  1  6  0  0  0
  4 21  1  0  0  0  0
  4 22  2  0  0  0  0
  4 14  1  0  0  0  0
  5  1  1  1  0  0  0
  5  8  1  0  0  0  0
  6 17  2  0  0  0  0
  6 12  1  0  0  0  0
  8  7  1  6  0  0  0
  8 11  1  0  0  0  0
  9 19  1  0  0  0  0
 11 10  1  6  0  0  0
 12 20  2  0  0  0  0
 12 19  1  0  0  0  0
 13 20  1  0  0  0  0
 14 15  1  0  0  0  0
 18 19  2  0  0  0  0
M  CHG  1  21  -1
M  END
>  <CHROM.1>
71.98116624,65.75963354,64.75051951,-178.90164235,1.49427848,29.35089432
-2.50443726,104.60057483,2.44609159,0.82898045,-2.68030548

>  <Name>
ligand

>  <RI>
0

>  <Rbt.Current_Directory>
/home/itssahil/PROJECTS/Mol_Feturizer/New_Systems/rnas/4XW7

>  <Rbt.Executable>
rbdock ($Id: //depot/dev/client3/rdock/2013.1/src/exe/rbdock.cxx#4 $)

>  <Rbt.Library>
libRbt.so (2013.1, Build901 2013/11/27)

>  <Rbt.Parameter_File>
/export/apps/rDock/src/rDock_2013.1_src/data/scripts/dock_solv.prm

>  <Rbt.Receptor>
prm/pocket_docking_8.prm

>  <SCORE>
-7.66684

>  <SCORE.INTER>
-6.70794

>  <SCORE.INTER.CONST>
1

>  <SCORE.INTER.POLAR>
0

>  <SCORE.INTER.ROT>
5

>  <SCORE.INTER.SOLV>
15.1579

>  <SCORE.INTER.VDW>
-16.4579

>  <SCORE.INTER.norm>
-0.304906

>  <SCORE.INTRA>
-0.958909

>  <SCORE.INTRA.DIHEDRAL>
-0.965992

>  <SCORE.INTRA.DIHEDRAL.0>
2.61549

>  <SCORE.INTRA.POLAR>
0

>  <SCORE.INTRA.POLAR.0>
0

>  <SCORE.INTRA.REPUL>
0

>  <SCORE.INTRA.REPUL.0>
0

>  <SCORE.INTRA.SOLV>
-0.850328

>  <SCORE.INTRA.SOLV.lig_0>
-73.766

>  <SCORE.INTRA.VDW>
-0.050749

>  <SCORE.INTRA.VDW.0>
-1.95055

>  <SCORE.INTRA.norm>
-0.0435868

>  <SCORE.RESTR>
0

>  <SCORE.RESTR.CAVITY>
0

>  <SCORE.RESTR.norm>
0

>  <SCORE.SYSTEM>
0

>  <SCORE.SYSTEM.CONST>
0

>  <SCORE.SYSTEM.DIHEDRAL>
0

>  <SCORE.SYSTEM.SOLV>
0

>  <SCORE.SYSTEM.norm>
0

>  <SCORE.heavy>
22

>  <SCORE.norm>
-0.348493

>  <RMSD>
6.700

$$$$
ligand
 OpenBabel11021811513D
libRbt.so/2013.1/901 2013/11/27
 22 23  0  0  0  0  0  0  0  0999 V2000
   28.3305   -2.7754  103.7952 N   0  0  0  0  0  0  0  0  0  0  0  0
   29.9375   -0.3401  105.5832 C   0  0  1  0  0  0  0  0  0  0  0  0
   29.9636   -1.1964  104.3885 O   0  0  0  0  0  0  0  0  0  0  0  0
   32.2546   -2.4357  107.7823 P   0  0  2  0  0  0  0  0  0  0  0  0
   28.5809   -1.4114  103.9785 C   0  0  2  0  0  0  0  0  0  0  0  0
   27.9453   -4.8923  104.2216 N   0  0  0  0  0  0  0  0  0  0  0  0
   26.5398   -0.2884  104.5167 O   0  0  0  0  0  0  0  0  0  0  0  0
   27.7317   -0.8751  105.0602 C   0  0  2  0  0  0  0  0  0  0  0  0
   28.7566   -6.1472  100.9701 N   0  0  0  0  0  0  0  0  0  0  0  0
   28.4051    1.4029  105.0317 O   0  0  0  0  0  0  0  0  0  0  0  0
   28.5564    0.1424  105.7212 C   0  0  2  0  0  0  0  0  0  0  0  0
   27.9555   -4.7390  102.8831 C   0  0  0  0  0  0  0  0  0  0  0  0
   28.2930   -2.8097  101.3085 N   0  0  0  0  0  0  0  0  0  0  0  0
   31.6015   -1.6426  106.6039 O   0  0  0  0  0  0  0  0  0  0  0  0
   30.3148   -1.1331  106.7788 C   0  0  0  0  0  0  0  0  0  0  0  0
   33.6643   -3.0086  107.3324 O   0  0  0  0  0  0  0  0  0  0  0  0
   28.1774   -3.6750  104.7676 C   0  0  0  0  0  0  0  0  0  0  0  0
   26.6754   -6.4332  101.8505 O   0  0  0  0  0  0  0  0  0  0  0  0
   27.7441   -5.8282  101.8785 C   0  0  0  0  0  0  0  0  0  0  0  0
   28.2000   -3.4036  102.5975 C   0  0  0  0  0  0  0  0  0  0  0  0
   31.3651   -3.5183  108.2598 O   0  5  0  0  0  0  0  0  0  0  0  0
   32.3871   -1.5879  108.9980 O   0  0  0  0  0  0  0  0  0  0  0  0
  1 17  1  0  0  0  0
  1 20  1  0  0  0  0
  2 15  1  1  0  0  0
  2  3  1  0  0  0  0
  2 11  1  0  0  0  0
  3  5  1  0  0  0  0
  4 16  1  6  0  0  0
  4 21  1  0  0  0  0
  4 22  2  0  0  0  0
  4 14  1  0  0  0  0
  5  1  1  1  0  0  0
  5  8  1  0  0  0  0
  6 17  2  0  0  0  0
  6 12  1  0  0  0  0
  8  7  1  6  0  0  0
  8 11  1  0  0  0  0
  9 19  1  0  0  0  0
 11 10  1  6  0  0  0
 12 20  2  0  0  0  0
 12 19  1  0  0  0  0
 13 20  1  0  0  0  0
 14 15  1  0  0  0  0
 18 19  2  0  0  0  0
M  CHG  1  21  -1
M  END
>  <CHROM.1>
74.69808980,60.12222783,175.96470810,175.90262353,-118.32819284,29.47626588
-2.51814333,104.99027298,2.44397290,0.74123431,-2.73357915

>  <Name>
ligand

>  <RI>
0

>  <Rbt.Current_Directory>
/home/itssahil/PROJECTS/Mol_Feturizer/New_Systems/rnas/4XW7

>  <Rbt.Executable>
rbdock ($Id: //depot/dev/client3/rdock/2013.1/src/exe/rbdock.cxx#4 $)

>  <Rbt.Library>
libRbt.so (2013.1, Build901 2013/11/27)

>  <Rbt.Parameter_File>
/export/apps/rDock/src/rDock_2013.1_src/data/scripts/dock_solv.prm

>  <Rbt.Receptor>
prm/pocket_docking_8.prm

>  <SCORE>
-8.19305

>  <SCORE.INTER>
-7.53986

>  <SCORE.INTER.CONST>
1

>  <SCORE.INTER.POLAR>
0

>  <SCORE.INTER.ROT>
5

>  <SCORE.INTER.SOLV>
11.8225

>  <SCORE.INTER.VDW>
-15.9007

>  <SCORE.INTER.norm>
-0.342721

>  <SCORE.INTRA>
-0.653186

>  <SCORE.INTRA.DIHEDRAL>
-1.0203

>  <SCORE.INTRA.DIHEDRAL.0>
2.61549

>  <SCORE.INTRA.POLAR>
0

>  <SCORE.INTRA.POLAR.0>
0

>  <SCORE.INTRA.REPUL>
0

>  <SCORE.INTRA.REPUL.0>
0

>  <SCORE.INTRA.SOLV>
-0.256374

>  <SCORE.INTRA.SOLV.lig_0>
-73.766

>  <SCORE.INTRA.VDW>
-0.0148497

>  <SCORE.INTRA.VDW.0>
-1.95055

>  <SCORE.INTRA.norm>
-0.0296903

>  <SCORE.RESTR>
0

>  <SCORE.RESTR.CAVITY>
0

>  <SCORE.RESTR.norm>
0

>  <SCORE.SYSTEM>
0

>  <SCORE.SYSTEM.CONST>
0

>  <SCORE.SYSTEM.DIHEDRAL>
0

>  <SCORE.SYSTEM.SOLV>
0

>  <SCORE.SYSTEM.norm>
0

>  <SCORE.heavy>
22

>  <SCORE.norm>
-0.372411

>  <RMSD>
6.701

$$$$
ligand
 OpenBabel11021811513D
libRbt.so/2013.1/901 2013/11/27
 22 23  0  0  0  0  0  0  0  0999 V2000
   28.3392   -2.7648  103.6809 N   0  0  0  0  0  0  0  0  0  0  0  0
   29.8727   -0.3319  105.5354 C   0  0  1  0  0  0  0  0  0  0  0  0
   29.9385   -1.1742  104.3323 O   0  0  0  0  0  0  0  0  0  0  0  0
   32.1350   -2.4808  107.7419 P   0  0  2  0  0  0  0  0  0  0  0  0
   28.5690   -1.4003  103.8855 C   0  0  2  0  0  0  0  0  0  0  0  0
   27.9568   -4.8888  104.0738 N   0  0  0  0  0  0  0  0  0  0  0  0
   26.5022   -0.3068  104.3849 O   0  0  0  0  0  0  0  0  0  0  0  0
   27.6870   -0.8860  104.9516 C   0  0  2  0  0  0  0  0  0  0  0  0
   26.8251   -5.7367  100.7809 N   0  0  0  0  0  0  0  0  0  0  0  0
   28.3342    1.3997  104.9651 O   0  0  0  0  0  0  0  0  0  0  0  0
   28.4830    0.1333  105.6441 C   0  0  2  0  0  0  0  0  0  0  0  0
   28.0202   -4.7239  102.7382 C   0  0  0  0  0  0  0  0  0  0  0  0
   28.4034   -2.7781  101.1946 N   0  0  0  0  0  0  0  0  0  0  0  0
   31.5233   -1.6326  106.5798 O   0  0  0  0  0  0  0  0  0  0  0  0
   30.2294   -1.1340  106.7312 C   0  0  0  0  0  0  0  0  0  0  0  0
   33.5708   -3.0125  107.3252 O   0  0  0  0  0  0  0  0  0  0  0  0
   28.1551   -3.6742  104.6389 C   0  0  0  0  0  0  0  0  0  0  0  0
   28.6361   -6.7586  101.7107 O   0  0  0  0  0  0  0  0  0  0  0  0
   27.8602   -5.8062  101.7169 C   0  0  0  0  0  0  0  0  0  0  0  0
   28.2635   -3.3839  102.4738 C   0  0  0  0  0  0  0  0  0  0  0  0
   31.2404   -3.5976  108.1207 O   0  5  0  0  0  0  0  0  0  0  0  0
   32.2025   -1.6986  109.0060 O   0  0  0  0  0  0  0  0  0  0  0  0
  1 17  1  0  0  0  0
  1 20  1  0  0  0  0
  2 15  1  1  0  0  0
  2  3  1  0  0  0  0
  2 11  1  0  0  0  0
  3  5  1  0  0  0  0
  4 16  1  6  0  0  0
  4 21  1  0  0  0  0
  4 22  2  0  0  0  0
  4 14  1  0  0  0  0
  5  1  1  1  0  0  0
  5  8  1  0  0  0  0
  6 17  2  0  0  0  0
  6 12  1  0  0  0  0
  8  7  1  6  0  0  0
  8 11  1  0  0  0  0
  9 19  1  0  0  0  0
 11 10  1  6  0  0  0
 12 20  2  0  0  0  0
 12 19  1  0  0  0  0
 13 20  1  0  0  0  0
 14 15  1  0  0  0  0
 18 19  2  0  0  0  0
M  CHG  1  21  -1
M  END
>  <CHROM.1>
75.63148171,59.82010541,176.73692608,178.28688432,119.24680529,29.45055236
-2.52566615,104.90002715,2.42395083,0.76761518,-2.70415075

>  <Name>
ligand

>  <RI>
0

>  <Rbt.Current_Directory>
/home/itssahil/PROJECTS/Mol_Feturizer/New_Systems/rnas/4XW7

>  <Rbt.Executable>
rbdock ($Id: //depot/dev/client3/rdock/2013.1/src/exe/rbdock.cxx#4 $)

>  <Rbt.Library>
libRbt.so (2013.1, Build901 2013/11/27)

>  <Rbt.Parameter_File>
/export/apps/rDock/src/rDock_2013.1_src/data/scripts/dock_solv.prm

>  <Rbt.Receptor>
prm/pocket_docking_7.prm

>  <SCORE>
-8.17636

>  <SCORE.INTER>
-7.50201

>  <SCORE.INTER.CONST>
1

>  <SCORE.INTER.POLAR>
0

>  <SCORE.INTER.ROT>
5

>  <SCORE.INTER.SOLV>
12.5818

>  <SCORE.INTER.VDW>
-16.1286

>  <SCORE.INTER.norm>
-0.341001

>  <SCORE.INTRA>
-0.674348

>  <SCORE.INTRA.DIHEDRAL>
-1.1006

>  <SCORE.INTRA.DIHEDRAL.0>
2.61549

>  <SCORE.INTRA.POLAR>
0

>  <SCORE.INTRA.POLAR.0>
0

>  <SCORE.INTRA.REPUL>
0

>  <SCORE.INTRA.REPUL.0>
0

>  <SCORE.INTRA.SOLV>
-0.25033

>  <SCORE.INTRA.SOLV.lig_0>
-73.766

>  <SCORE.INTRA.VDW>
0.00111456

>  <SCORE.INTRA.VDW.0>
-1.95055

>  <SCORE.INTRA.norm>
-0.0306522

>  <SCORE.RESTR>
0

>  <SCORE.RESTR.CAVITY>
0

>  <SCORE.RESTR.norm>
0

>  <SCORE.SYSTEM>
0

>  <SCORE.SYSTEM.CONST>
0

>  <SCORE.SYSTEM.DIHEDRAL>
0

>  <SCORE.SYSTEM.SOLV>
0

>  <SCORE.SYSTEM.norm>
0

>  <SCORE.heavy>
22

>  <SCORE.norm>
-0.371653

>  <RMSD>
6.702

$$$$
ligand
 OpenBabel11021811513D
libRbt.so/2013.1/901 2013/11/27
 22 23  0  0  0  0  0  0  0  0999 V2000
   28.3271   -2.7904  103.7257 N   0  0  0  0  0  0  0  0  0  0  0  0
   29.9286   -0.4081  105.5885 C   0  0  1  0  0  0  0  0  0  0  0  0
   29.9644   -1.2384  104.3757 O   0  0  0  0  0  0  0  0  0  0  0  0
   32.2034   -2.5531  107.7852 P   0  0  2  0  0  0  0  0  0  0  0  0
   28.5859   -1.4329  103.9422 C   0  0  2  0  0  0  0  0  0  0  0  0
   27.9218   -4.9134  104.1004 N   0  0  0  0  0  0  0  0  0  0  0  0
   26.5465   -0.3049  104.4768 O   0  0  0  0  0  0  0  0  0  0  0  0
   27.7260   -0.9132  105.0237 C   0  0  2  0  0  0  0  0  0  0  0  0
   26.7231   -5.6562  100.7833 N   0  0  0  0  0  0  0  0  0  0  0  0
   28.4180    1.3592  105.0543 O   0  0  0  0  0  0  0  0  0  0  0  0
   28.5496    0.0828  105.7180 C   0  0  2  0  0  0  0  0  0  0  0  0
   27.9464   -4.7300  102.7659 C   0  0  0  0  0  0  0  0  0  0  0  0
   28.3139   -2.7684  101.2386 N   0  0  0  0  0  0  0  0  0  0  0  0
   31.5835   -1.7116  106.6225 O   0  0  0  0  0  0  0  0  0  0  0  0
   30.2828   -1.2300  106.7715 C   0  0  0  0  0  0  0  0  0  0  0  0
   33.6325   -3.0945  107.3581 O   0  0  0  0  0  0  0  0  0  0  0  0
   28.1576   -3.7105  104.6760 C   0  0  0  0  0  0  0  0  0  0  0  0
   28.4528   -6.7928  101.7345 O   0  0  0  0  0  0  0  0  0  0  0  0
   27.7368   -5.7946  101.7349 C   0  0  0  0  0  0  0  0  0  0  0  0
   28.2037   -3.3904  102.5129 C   0  0  0  0  0  0  0  0  0  0  0  0
   31.3079   -3.6629  108.1822 O   0  5  0  0  0  0  0  0  0  0  0  0
   32.2872   -1.7610  109.0421 O   0  0  0  0  0  0  0  0  0  0  0  0
  1 17  1  0  0  0  0
  1 20  1  0  0  0  0
  2 15  1  1  0  0  0
  2  3  1  0  0  0  0
  2 11  1  0  0  0  0
  3  5  1  0  0  0  0
  4 16  1  6  0  0  0
  4 21  1  0  0  0  0
  4 22  2  0  0  0  0
  4 14  1  0  0  0  0
  5  1  1  1  0  0  0
  5  8  1  0  0  0  0
  6 17  2  0  0  0  0
  6 12  1  0  0  0  0
  8  7  1  6  0  0  0
  8 11  1  0  0  0  0
  9 19  1  0  0  0  0
 11 10  1  6  0  0  0
 12 20  2  0  0  0  0
 12 19  1  0  0  0  0
 13 20  1  0  0  0  0
 14 15  1  0  0  0  0
 18 19  2  0  0  0  0
M  CHG  1  21  -1
M  END
>  <CHROM.1>
74.46146497,61.98409404,175.40344239,177.13031468,123.00557585,29.45878176
-2.56430151,104.94588994,2.45824152,0.76376593,-2.72001762

>  <Name>
ligand

>  <RI>
0

>  <Rbt.Current_Directory>
/home/itssahil/PROJECTS/Mol_Feturizer/New_Systems/rnas/4XW7

>  <Rbt.Executable>
rbdock ($Id: //depot/dev/client3/rdock/2013.1/src/exe/rbdock.cxx#4 $)

>  <Rbt.Library>
libRbt.so (2013.1, Build901 2013/11/27)

>  <Rbt.Parameter_File>
/export/apps/rDock/src/rDock_2013.1_src/data/scripts/dock_solv.prm

>  <Rbt.Receptor>
prm/pocket_docking_7.prm

>  <SCORE>
-8.16714

>  <SCORE.INTER>
-7.50886

>  <SCORE.INTER.CONST>
1

>  <SCORE.INTER.POLAR>
0

>  <SCORE.INTER.ROT>
5

>  <SCORE.INTER.SOLV>
12.0974

>  <SCORE.INTER.VDW>
-15.9717

>  <SCORE.INTER.norm>
-0.341312

>  <SCORE.INTRA>
-0.658286

>  <SCORE.INTRA.DIHEDRAL>
-1.03116

>  <SCORE.INTRA.DIHEDRAL.0>
2.61549

>  <SCORE.INTRA.POLAR>
0

>  <SCORE.INTRA.POLAR.0>
0

>  <SCORE.INTRA.REPUL>
0

>  <SCORE.INTRA.REPUL.0>
0

>  <SCORE.INTRA.SOLV>
-0.245192

>  <SCORE.INTRA.SOLV.lig_0>
-73.766

>  <SCORE.INTRA.VDW>
-0.0201124

>  <SCORE.INTRA.VDW.0>
-1.95055

>  <SCORE.INTRA.norm>
-0.0299221

>  <SCORE.RESTR>
0

>  <SCORE.RESTR.CAVITY>
0

>  <SCORE.RESTR.norm>
0

>  <SCORE.SYSTEM>
0

>  <SCORE.SYSTEM.CONST>
0

>  <SCORE.SYSTEM.DIHEDRAL>
0

>  <SCORE.SYSTEM.SOLV>
0

>  <SCORE.SYSTEM.norm>
0

>  <SCORE.heavy>
22

>  <SCORE.norm>
-0.371234

>  <RMSD>
6.712

$$$$
ligand
 OpenBabel11021811513D
libRbt.so/2013.1/901 2013/11/27
 22 23  0  0  0  0  0  0  0  0999 V2000
   28.2941   -2.7543  103.8344 N   0  0  0  0  0  0  0  0  0  0  0  0
   29.8155   -0.2212  105.5603 C   0  0  1  0  0  0  0  0  0  0  0  0
   29.8724   -1.1067  104.3881 O   0  0  0  0  0  0  0  0  0  0  0  0
   32.2072   -2.1552  107.8258 P   0  0  2  0  0  0  0  0  0  0  0  0
   28.4985   -1.3784  103.9826 C   0  0  2  0  0  0  0  0  0  0  0  0
   28.0077   -4.8754  104.3144 N   0  0  0  0  0  0  0  0  0  0  0  0
   26.4200   -0.3108  104.4896 O   0  0  0  0  0  0  0  0  0  0  0  0
   27.6298   -0.8431  105.0492 C   0  0  2  0  0  0  0  0  0  0  0  0
   28.7304   -6.1471  101.0412 N   0  0  0  0  0  0  0  0  0  0  0  0
   28.2267    1.4547  104.9624 O   0  0  0  0  0  0  0  0  0  0  0  0
   28.4188    0.2182  105.6844 C   0  0  2  0  0  0  0  0  0  0  0  0
   27.9604   -4.7485  102.9740 C   0  0  0  0  0  0  0  0  0  0  0  0
   28.1622   -2.8395  101.3521 N   0  0  0  0  0  0  0  0  0  0  0  0
   31.5232   -1.4336  106.6193 O   0  0  0  0  0  0  0  0  0  0  0  0
   30.2170   -0.9700  106.7764 C   0  0  0  0  0  0  0  0  0  0  0  0
   32.4111   -1.1327  109.0220 O   0  0  0  0  0  0  0  0  0  0  0  0
   28.2134   -3.6396  104.8284 C   0  0  0  0  0  0  0  0  0  0  0  0
   26.7173   -6.5243  102.0380 O   0  0  0  0  0  0  0  0  0  0  0  0
   27.7528   -5.8646  101.9987 C   0  0  0  0  0  0  0  0  0  0  0  0
   28.1420   -3.4107  102.6544 C   0  0  0  0  0  0  0  0  0  0  0  0
   33.4915   -2.7724  107.4249 O   0  5  0  0  0  0  0  0  0  0  0  0
   31.4207   -3.3396  108.2650 O   0  0  0  0  0  0  0  0  0  0  0  0
  1 17  1  0  0  0  0
  1 20  1  0  0  0  0
  2 15  1  1  0  0  0
  2  3  1  0  0  0  0
  2 11  1  0  0  0  0
  3  5  1  0  0  0  0
  4 16  1  1  0  0  0
  4 21  1  0  0  0  0
  4 22  2  0  0  0  0
  4 14  1  0  0  0  0
  5  1  1  1  0  0  0
  5  8  1  0  0  0  0
  6 17  2  0  0  0  0
  6 12  1  0  0  0  0
  8  7  1  6  0  0  0
  8 11  1  0  0  0  0
  9 19  1  0  0  0  0
 11 10  1  6  0  0  0
 12 20  2  0  0  0  0
 12 19  1  0  0  0  0
 13 20  1  0  0  0  0
 14 15  1  0  0  0  0
 18 19  2  0  0  0  0
M  CHG  1  21  -1
M  END
>  <CHROM.1>
72.34308670,60.48480603,-65.65637594,175.09530416,-119.51608262,29.41896258
-2.42099355,105.02521022,2.41313688,0.73180900,-2.74492640

>  <Name>
ligand

>  <RI>
0

>  <Rbt.Current_Directory>
/home/itssahil/PROJECTS/Mol_Feturizer/New_Systems/rnas/4XW7

>  <Rbt.Executable>
rbdock ($Id: //depot/dev/client3/rdock/2013.1/src/exe/rbdock.cxx#4 $)

>  <Rbt.Library>
libRbt.so (2013.1, Build901 2013/11/27)

>  <Rbt.Parameter_File>
/export/apps/rDock/src/rDock_2013.1_src/data/scripts/dock_solv.prm

>  <Rbt.Receptor>
prm/pocket_docking_6.prm

>  <SCORE>
-6.59764

>  <SCORE.INTER>
-5.51759

>  <SCORE.INTER.CONST>
1

>  <SCORE.INTER.POLAR>
0

>  <SCORE.INTER.ROT>
5

>  <SCORE.INTER.SOLV>
15.2695

>  <SCORE.INTER.VDW>
-15.7016

>  <SCORE.INTER.norm>
-0.2508

>  <SCORE.INTRA>
-1.08005

>  <SCORE.INTRA.DIHEDRAL>
-0.961512

>  <SCORE.INTRA.DIHEDRAL.0>
2.61549

>  <SCORE.INTRA.POLAR>
0

>  <SCORE.INTRA.POLAR.0>
0

>  <SCORE.INTRA.REPUL>
0

>  <SCORE.INTRA.REPUL.0>
0

>  <SCORE.INTRA.SOLV>
-0.86332

>  <SCORE.INTRA.SOLV.lig_0>
-73.766

>  <SCORE.INTRA.VDW>
-0.167635

>  <SCORE.INTRA.VDW.0>
-1.95055

>  <SCORE.INTRA.norm>
-0.0490932

>  <SCORE.RESTR>
0

>  <SCORE.RESTR.CAVITY>
0

>  <SCORE.RESTR.norm>
0

>  <SCORE.SYSTEM>
0

>  <SCORE.SYSTEM.CONST>
0

>  <SCORE.SYSTEM.DIHEDRAL>
0

>  <SCORE.SYSTEM.SOLV>
0

>  <SCORE.SYSTEM.norm>
0

>  <SCORE.heavy>
22

>  <SCORE.norm>
-0.299893

>  <RMSD>
6.716

$$$$
ligand
 OpenBabel11021811513D
libRbt.so/2013.1/901 2013/11/27
 22 23  0  0  0  0  0  0  0  0999 V2000
   28.2790   -2.7614  103.7420 N   0  0  0  0  0  0  0  0  0  0  0  0
   29.8795   -0.3064  105.5088 C   0  0  1  0  0  0  0  0  0  0  0  0
   29.9080   -1.1732  104.3217 O   0  0  0  0  0  0  0  0  0  0  0  0
   32.1978   -2.3831  107.7252 P   0  0  2  0  0  0  0  0  0  0  0  0
   28.5260   -1.3953  103.9132 C   0  0  2  0  0  0  0  0  0  0  0  0
   27.9054   -4.8766  104.1870 N   0  0  0  0  0  0  0  0  0  0  0  0
   26.4820   -0.2725  104.4408 O   0  0  0  0  0  0  0  0  0  0  0  0
   27.6751   -0.8514  104.9899 C   0  0  2  0  0  0  0  0  0  0  0  0
   28.7011   -6.1689  100.9540 N   0  0  0  0  0  0  0  0  0  0  0  0
   28.3430    1.4278  104.9413 O   0  0  0  0  0  0  0  0  0  0  0  0
   28.4971    0.1739  105.6420 C   0  0  2  0  0  0  0  0  0  0  0  0
   27.9029   -4.7329  102.8475 C   0  0  0  0  0  0  0  0  0  0  0  0
   28.2190   -2.8137  101.2560 N   0  0  0  0  0  0  0  0  0  0  0  0
   31.5488   -1.5903  106.5443 O   0  0  0  0  0  0  0  0  0  0  0  0
   30.2583   -1.0878  106.7115 C   0  0  0  0  0  0  0  0  0  0  0  0
   33.6493   -2.8742  107.3132 O   0  0  0  0  0  0  0  0  0  0  0  0
   28.1380   -3.6546  104.7222 C   0  0  0  0  0  0  0  0  0  0  0  0
   26.6115   -6.4240  101.8239 O   0  0  0  0  0  0  0  0  0  0  0  0
   27.6864   -5.8300  101.8526 C   0  0  0  0  0  0  0  0  0  0  0  0
   28.1399   -3.3987  102.5500 C   0  0  0  0  0  0  0  0  0  0  0  0
   31.3464   -3.5203  108.1412 O   0  5  0  0  0  0  0  0  0  0  0  0
   32.2445   -1.5638  108.9665 O   0  0  0  0  0  0  0  0  0  0  0  0
  1 17  1  0  0  0  0
  1 20  1  0  0  0  0
  2 15  1  1  0  0  0
  2  3  1  0  0  0  0
  2 11  1  0  0  0  0
  3  5  1  0  0  0  0
  4 16  1  6  0  0  0
  4 21  1  0  0  0  0
  4 22  2  0  0  0  0
  4 14  1  0  0  0  0
  5  1  1  1  0  0  0
  5  8  1  0  0  0  0
  6 17  2  0  0  0  0
  6 12  1  0  0  0  0
  8  7  1  6  0  0  0
  8 11  1  0  0  0  0
  9 19  1  0  0  0  0
 11 10  1  6  0  0  0
 12 20  2  0  0  0  0
 12 19  1  0  0  0  0
 13 20  1  0  0  0  0
 14 15  1  0  0  0  0
 18 19  2  0  0  0  0
M  CHG  1  21  -1
M  END
>  <CHROM.1>
74.14454269,60.41363844,179.29316275,176.53531171,-117.11466467,29.41963155
-2.49215002,104.93457693,2.44423943,0.74099335,-2.74265955

>  <Name>
ligand

>  <RI>
0

>  <Rbt.Current_Directory>
/home/itssahil/PROJECTS/Mol_Feturizer/New_Systems/rnas/4XW7

>  <Rbt.Executable>
rbdock ($Id: //depot/dev/client3/rdock/2013.1/src/exe/rbdock.cxx#4 $)

>  <Rbt.Library>
libRbt.so (2013.1, Build901 2013/11/27)

>  <Rbt.Parameter_File>
/export/apps/rDock/src/rDock_2013.1_src/data/scripts/dock_solv.prm

>  <Rbt.Receptor>
prm/pocket_docking_6.prm

>  <SCORE>
-8.19352

>  <SCORE.INTER>
-7.49294

>  <SCORE.INTER.CONST>
1

>  <SCORE.INTER.POLAR>
0

>  <SCORE.INTER.ROT>
5

>  <SCORE.INTER.SOLV>
11.9004

>  <SCORE.INTER.VDW>
-15.8954

>  <SCORE.INTER.norm>
-0.340588

>  <SCORE.INTRA>
-0.700576

>  <SCORE.INTRA.DIHEDRAL>
-1.06283

>  <SCORE.INTRA.DIHEDRAL.0>
2.61549

>  <SCORE.INTRA.POLAR>
0

>  <SCORE.INTRA.POLAR.0>
0

>  <SCORE.INTRA.REPUL>
0

>  <SCORE.INTRA.REPUL.0>
0

>  <SCORE.INTRA.SOLV>
-0.266349

>  <SCORE.INTRA.SOLV.lig_0>
-73.766

>  <SCORE.INTRA.VDW>
-0.0359854

>  <SCORE.INTRA.VDW.0>
-1.95055

>  <SCORE.INTRA.norm>
-0.0318444

>  <SCORE.RESTR>
0

>  <SCORE.RESTR.CAVITY>
0

>  <SCORE.RESTR.norm>
0

>  <SCORE.SYSTEM>
0

>  <SCORE.SYSTEM.CONST>
0

>  <SCORE.SYSTEM.DIHEDRAL>
0

>  <SCORE.SYSTEM.SOLV>
0

>  <SCORE.SYSTEM.norm>
0

>  <SCORE.heavy>
22

>  <SCORE.norm>
-0.372433

>  <RMSD>
6.717

$$$$
ligand
 OpenBabel11021811513D
libRbt.so/2013.1/901 2013/11/27
 22 23  0  0  0  0  0  0  0  0999 V2000
   28.3082   -2.7107  103.7376 N   0  0  0  0  0  0  0  0  0  0  0  0
   29.7845   -0.1785  105.5035 C   0  0  1  0  0  0  0  0  0  0  0  0
   29.8674   -1.0578  104.3282 O   0  0  0  0  0  0  0  0  0  0  0  0
   32.1325   -2.1456  107.7869 P   0  0  2  0  0  0  0  0  0  0  0  0
   28.5025   -1.3346  103.8963 C   0  0  2  0  0  0  0  0  0  0  0  0
   28.0265   -4.8361  104.2018 N   0  0  0  0  0  0  0  0  0  0  0  0
   26.4094   -0.2805  104.3707 O   0  0  0  0  0  0  0  0  0  0  0  0
   27.6117   -0.8092  104.9496 C   0  0  2  0  0  0  0  0  0  0  0  0
   28.8101   -6.0912  100.9387 N   0  0  0  0  0  0  0  0  0  0  0  0
   28.1978    1.4920  104.8852 O   0  0  0  0  0  0  0  0  0  0  0  0
   28.3834    0.2529  105.6044 C   0  0  2  0  0  0  0  0  0  0  0  0
   27.9991   -4.7020  102.8615 C   0  0  0  0  0  0  0  0  0  0  0  0
   28.2148   -2.7831  101.2531 N   0  0  0  0  0  0  0  0  0  0  0  0
   31.4730   -1.4020  106.5801 O   0  0  0  0  0  0  0  0  0  0  0  0
   30.1677   -0.9313  106.7229 C   0  0  0  0  0  0  0  0  0  0  0  0
   32.2946   -1.1500  109.0118 O   0  0  0  0  0  0  0  0  0  0  0  0
   28.2174   -3.6019  104.7255 C   0  0  0  0  0  0  0  0  0  0  0  0
   26.7773   -6.4748  101.8921 O   0  0  0  0  0  0  0  0  0  0  0  0
   27.8127   -5.8140  101.8771 C   0  0  0  0  0  0  0  0  0  0  0  0
   28.1779   -3.3615  102.5520 C   0  0  0  0  0  0  0  0  0  0  0  0
   33.4331   -2.7408  107.4057 O   0  5  0  0  0  0  0  0  0  0  0  0
   31.3469   -3.3476  108.1772 O   0  0  0  0  0  0  0  0  0  0  0  0
  1 17  1  0  0  0  0
  1 20  1  0  0  0  0
  2 15  1  1  0  0  0
  2  3  1  0  0  0  0
  2 11  1  0  0  0  0
  3  5  1  0  0  0  0
  4 16  1  1  0  0  0
  4 21  1  0  0  0  0
  4 22  2  0  0  0  0
  4 14  1  0  0  0  0
  5  1  1  1  0  0  0
  5  8  1  0  0  0  0
  6 17  2  0  0  0  0
  6 12  1  0  0  0  0
  8  7  1  6  0  0  0
  8 11  1  0  0  0  0
  9 19  1  0  0  0  0
 11 10  1  6  0  0  0
 12 20  2  0  0  0  0
 12 19  1  0  0  0  0
 13 20  1  0  0  0  0
 14 15  1  0  0  0  0
 18 19  2  0  0  0  0
M  CHG  1  21  -1
M  END
>  <CHROM.1>
72.17573254,59.72122896,-64.39747118,175.87637610,-119.11108060,29.40495856
-2.38738813,104.94585153,2.39915090,0.74783315,-2.72954961

>  <Name>
ligand

>  <RI>
0

>  <Rbt.Current_Directory>
/home/itssahil/PROJECTS/Mol_Feturizer/New_Systems/rnas/4XW7

>  <Rbt.Executable>
rbdock ($Id: //depot/dev/client3/rdock/2013.1/src/exe/rbdock.cxx#4 $)

>  <Rbt.Library>
libRbt.so (2013.1, Build901 2013/11/27)

>  <Rbt.Parameter_File>
/export/apps/rDock/src/rDock_2013.1_src/data/scripts/dock_solv.prm

>  <Rbt.Receptor>
prm/pocket_docking_6.prm

>  <SCORE>
-6.56225

>  <SCORE.INTER>
-5.4431

>  <SCORE.INTER.CONST>
1

>  <SCORE.INTER.POLAR>
0

>  <SCORE.INTER.ROT>
5

>  <SCORE.INTER.SOLV>
15.6767

>  <SCORE.INTER.VDW>
-15.7876

>  <SCORE.INTER.norm>
-0.247414

>  <SCORE.INTRA>
-1.11914

>  <SCORE.INTRA.DIHEDRAL>
-1.01729

>  <SCORE.INTRA.DIHEDRAL.0>
2.61549

>  <SCORE.INTRA.POLAR>
0

>  <SCORE.INTRA.POLAR.0>
0

>  <SCORE.INTRA.REPUL>
0

>  <SCORE.INTRA.REPUL.0>
0

>  <SCORE.INTRA.SOLV>
-0.869227

>  <SCORE.INTRA.SOLV.lig_0>
-73.766

>  <SCORE.INTRA.VDW>
-0.175885

>  <SCORE.INTRA.VDW.0>
-1.95055

>  <SCORE.INTRA.norm>
-0.0508702

>  <SCORE.RESTR>
0

>  <SCORE.RESTR.CAVITY>
0

>  <SCORE.RESTR.norm>
0

>  <SCORE.SYSTEM>
0

>  <SCORE.SYSTEM.CONST>
0

>  <SCORE.SYSTEM.DIHEDRAL>
0

>  <SCORE.SYSTEM.SOLV>
0

>  <SCORE.SYSTEM.norm>
0

>  <SCORE.heavy>
22

>  <SCORE.norm>
-0.298284

>  <RMSD>
6.720

$$$$
ligand
 OpenBabel11021811513D
libRbt.so/2013.1/901 2013/11/27
 22 23  0  0  0  0  0  0  0  0999 V2000
   28.2883   -2.7384  103.7036 N   0  0  0  0  0  0  0  0  0  0  0  0
   29.8941   -0.3297  105.5282 C   0  0  1  0  0  0  0  0  0  0  0  0
   29.9299   -1.1814  104.3304 O   0  0  0  0  0  0  0  0  0  0  0  0
   32.1425   -2.4738  107.7537 P   0  0  2  0  0  0  0  0  0  0  0  0
   28.5517   -1.3783  103.8968 C   0  0  2  0  0  0  0  0  0  0  0  0
   27.8907   -4.8562  104.1144 N   0  0  0  0  0  0  0  0  0  0  0  0
   26.5154   -0.2333  104.4059 O   0  0  0  0  0  0  0  0  0  0  0  0
   27.6911   -0.8363  104.9666 C   0  0  2  0  0  0  0  0  0  0  0  0
   26.6781   -5.6042  100.7805 N   0  0  0  0  0  0  0  0  0  0  0  0
   28.3918    1.4336  104.9589 O   0  0  0  0  0  0  0  0  0  0  0  0
   28.5167    0.1686  105.6454 C   0  0  2  0  0  0  0  0  0  0  0  0
   27.8871   -4.6903  102.7775 C   0  0  0  0  0  0  0  0  0  0  0  0
   28.2226   -2.7490  101.2172 N   0  0  0  0  0  0  0  0  0  0  0  0
   31.5396   -1.6250  106.5873 O   0  0  0  0  0  0  0  0  0  0  0  0
   30.2422   -1.1320  106.7264 C   0  0  0  0  0  0  0  0  0  0  0  0
   33.5915   -2.9847  107.3573 O   0  0  0  0  0  0  0  0  0  0  0  0
   28.1388   -3.6460  104.6692 C   0  0  0  0  0  0  0  0  0  0  0  0
   28.3217   -6.7995  101.8092 O   0  0  0  0  0  0  0  0  0  0  0  0
   27.6557   -5.7683  101.7652 C   0  0  0  0  0  0  0  0  0  0  0  0
   28.1392   -3.3543  102.5016 C   0  0  0  0  0  0  0  0  0  0  0  0
   31.2557   -3.6043  108.1097 O   0  5  0  0  0  0  0  0  0  0  0  0
   32.1791   -1.6998  109.0240 O   0  0  0  0  0  0  0  0  0  0  0  0
  1 17  1  0  0  0  0
  1 20  1  0  0  0  0
  2 15  1  1  0  0  0
  2  3  1  0  0  0  0
  2 11  1  0  0  0  0
  3  5  1  0  0  0  0
  4 16  1  6  0  0  0
  4 21  1  0  0  0  0
  4 22  2  0  0  0  0
  4 14  1  0  0  0  0
  5  1  1  1  0  0  0
  5  8  1  0  0  0  0
  6 17  2  0  0  0  0
  6 12  1  0  0  0  0
  8  7  1  6  0  0  0
  8 11  1  0  0  0  0
  9 19  1  0  0  0  0
 11 10  1  6  0  0  0
 12 20  2  0  0  0  0
 12 19  1  0  0  0  0
 13 20  1  0  0  0  0
 14 15  1  0  0  0  0
 18 19  2  0  0  0  0
M  CHG  1  21  -1
M  END
>  <CHROM.1>
73.06397921,61.77681565,177.39072386,178.36547620,127.06630311,29.40624002
-2.50228044,104.91836643,2.47163200,0.77035085,-2.74754283

>  <Name>
ligand

>  <RI>
0

>  <Rbt.Current_Directory>
/home/itssahil/PROJECTS/Mol_Feturizer/New_Systems/rnas/4XW7

>  <Rbt.Executable>
rbdock ($Id: //depot/dev/client3/rdock/2013.1/src/exe/rbdock.cxx#4 $)

>  <Rbt.Library>
libRbt.so (2013.1, Build901 2013/11/27)

>  <Rbt.Parameter_File>
/export/apps/rDock/src/rDock_2013.1_src/data/scripts/dock_solv.prm

>  <Rbt.Receptor>
prm/pocket_docking_7.prm

>  <SCORE>
-8.12198

>  <SCORE.INTER>
-7.43304

>  <SCORE.INTER.CONST>
1

>  <SCORE.INTER.POLAR>
0

>  <SCORE.INTER.ROT>
5

>  <SCORE.INTER.SOLV>
12.0906

>  <SCORE.INTER.VDW>
-15.9189

>  <SCORE.INTER.norm>
-0.337865

>  <SCORE.INTRA>
-0.688935

>  <SCORE.INTRA.DIHEDRAL>
-1.03909

>  <SCORE.INTRA.DIHEDRAL.0>
2.61549

>  <SCORE.INTRA.POLAR>
0

>  <SCORE.INTRA.POLAR.0>
0

>  <SCORE.INTRA.REPUL>
0

>  <SCORE.INTRA.REPUL.0>
0

>  <SCORE.INTRA.SOLV>
-0.222174

>  <SCORE.INTRA.SOLV.lig_0>
-73.766

>  <SCORE.INTRA.VDW>
-0.0583006

>  <SCORE.INTRA.VDW.0>
-1.95055

>  <SCORE.INTRA.norm>
-0.0313152

>  <SCORE.RESTR>
0

>  <SCORE.RESTR.CAVITY>
0

>  <SCORE.RESTR.norm>
0

>  <SCORE.SYSTEM>
0

>  <SCORE.SYSTEM.CONST>
0

>  <SCORE.SYSTEM.DIHEDRAL>
0

>  <SCORE.SYSTEM.SOLV>
0

>  <SCORE.SYSTEM.norm>
0

>  <SCORE.heavy>
22

>  <SCORE.norm>
-0.369181

>  <RMSD>
6.730

$$$$
ligand
 OpenBabel11021811513D
libRbt.so/2013.1/901 2013/11/27
 22 23  0  0  0  0  0  0  0  0999 V2000
   28.1047   -1.9434  108.9090 N   0  0  0  0  0  0  0  0  0  0  0  0
   30.4730   -2.1799  106.4504 C   0  0  1  0  0  0  0  0  0  0  0  0
   29.3680   -2.8508  107.1503 O   0  0  0  0  0  0  0  0  0  0  0  0
   33.3487   -3.8117  108.3602 P   0  0  2  0  0  0  0  0  0  0  0  0
   28.4187   -1.8193  107.5516 C   0  0  2  0  0  0  0  0  0  0  0  0
   28.3251   -2.1335  111.0832 N   0  0  0  0  0  0  0  0  0  0  0  0
   28.1051    0.4485  106.8618 O   0  0  0  0  0  0  0  0  0  0  0  0
   29.0717   -0.5210  107.2930 C   0  0  2  0  0  0  0  0  0  0  0  0
   25.0225   -1.1367  111.9851 N   0  0  0  0  0  0  0  0  0  0  0  0
   29.3963   -0.6751  104.9448 O   0  0  0  0  0  0  0  0  0  0  0  0
   30.0459   -0.7912  106.2299 C   0  0  2  0  0  0  0  0  0  0  0  0
   27.0070   -2.1133  110.8050 C   0  0  0  0  0  0  0  0  0  0  0  0
   25.6251   -1.9366  108.7134 N   0  0  0  0  0  0  0  0  0  0  0  0
   32.0078   -3.5248  107.6092 O   0  0  0  0  0  0  0  0  0  0  0  0
   31.6918   -2.2028  107.2959 C   0  0  0  0  0  0  0  0  0  0  0  0
   34.5792   -3.4859  107.4127 O   0  0  0  0  0  0  0  0  0  0  0  0
   28.9862   -2.0280  109.9061 C   0  0  0  0  0  0  0  0  0  0  0  0
   25.7765   -3.2274  112.4842 O   0  0  0  0  0  0  0  0  0  0  0  0
   25.9017   -2.2084  111.8097 C   0  0  0  0  0  0  0  0  0  0  0  0
   26.8515   -1.9950  109.4314 C   0  0  0  0  0  0  0  0  0  0  0  0
   33.4038   -5.2085  108.8471 O   0  5  0  0  0  0  0  0  0  0  0  0
   33.4344   -3.0400  109.6296 O   0  0  0  0  0  0  0  0  0  0  0  0
  1 17  1  0  0  0  0
  1 20  1  0  0  0  0
  2 15  1  1  0  0  0
  2  3  1  0  0  0  0
  2 11  1  0  0  0  0
  3  5  1  0  0  0  0
  4 16  1  6  0  0  0
  4 21  1  0  0  0  0
  4 22  2  0  0  0  0
  4 14  1  0  0  0  0
  5  1  1  1  0  0  0
  5  8  1  0  0  0  0
  6 17  2  0  0  0  0
  6 12  1  0  0  0  0
  8  7  1  6  0  0  0
  8 11  1  0  0  0  0
  9 19  1  0  0  0  0
 11 10  1  6  0  0  0
 12 20  2  0  0  0  0
 12 19  1  0  0  0  0
 13 20  1  0  0  0  0
 14 15  1  0  0  0  0
 18 19  2  0  0  0  0
M  CHG  1  21  -1
M  END
>  <CHROM.1>
51.50533084,57.24797767,-67.59618282,173.21362761,116.10374363,29.64302344
-2.31967118,108.60555151,2.90227820,-0.37347443,2.04180593

>  <Name>
ligand

>  <RI>
0

>  <Rbt.Current_Directory>
/home/itssahil/PROJECTS/Mol_Feturizer/New_Systems/rnas/4XW7

>  <Rbt.Executable>
rbdock ($Id: //depot/dev/client3/rdock/2013.1/src/exe/rbdock.cxx#4 $)

>  <Rbt.Library>
libRbt.so (2013.1, Build901 2013/11/27)

>  <Rbt.Parameter_File>
/export/apps/rDock/src/rDock_2013.1_src/data/scripts/dock_solv.prm

>  <Rbt.Receptor>
prm/pocket_docking_7.prm

>  <SCORE>
-4.40459

>  <SCORE.INTER>
-3.27363

>  <SCORE.INTER.CONST>
1

>  <SCORE.INTER.POLAR>
0

>  <SCORE.INTER.ROT>
5

>  <SCORE.INTER.SOLV>
11.1426

>  <SCORE.INTER.VDW>
-12.8299

>  <SCORE.INTER.norm>
-0.148801

>  <SCORE.INTRA>
-1.13096

>  <SCORE.INTRA.DIHEDRAL>
-0.779074

>  <SCORE.INTRA.DIHEDRAL.0>
2.61549

>  <SCORE.INTRA.POLAR>
0

>  <SCORE.INTRA.POLAR.0>
0

>  <SCORE.INTRA.REPUL>
0

>  <SCORE.INTRA.REPUL.0>
0

>  <SCORE.INTRA.SOLV>
-0.480672

>  <SCORE.INTRA.SOLV.lig_0>
-73.766

>  <SCORE.INTRA.VDW>
-0.501085

>  <SCORE.INTRA.VDW.0>
-1.95055

>  <SCORE.INTRA.norm>
-0.0514072

>  <SCORE.RESTR>
0

>  <SCORE.RESTR.CAVITY>
0

>  <SCORE.RESTR.norm>
0

>  <SCORE.SYSTEM>
0

>  <SCORE.SYSTEM.CONST>
0

>  <SCORE.SYSTEM.DIHEDRAL>
0

>  <SCORE.SYSTEM.SOLV>
0

>  <SCORE.SYSTEM.norm>
0

>  <SCORE.heavy>
22

>  <SCORE.norm>
-0.200209

>  <RMSD>
6.740

$$$$
ligand
 OpenBabel11021811513D
libRbt.so/2013.1/901 2013/11/27
 22 23  0  0  0  0  0  0  0  0999 V2000
   32.4521   -3.7320  107.7736 N   0  0  0  0  0  0  0  0  0  0  0  0
   30.4439   -0.9834  107.4241 C   0  0  1  0  0  0  0  0  0  0  0  0
   31.5613   -1.7586  106.8657 O   0  0  0  0  0  0  0  0  0  0  0  0
   30.1387    1.5809  110.2377 P   0  0  2  0  0  0  0  0  0  0  0  0
   31.3191   -3.1606  107.1851 C   0  0  2  0  0  0  0  0  0  0  0  0
   34.5305   -4.0543  108.3966 N   0  0  0  0  0  0  0  0  0  0  0  0
   29.3664   -4.3456  107.8920 O   0  0  0  0  0  0  0  0  0  0  0  0
   30.1828   -3.1887  108.1269 C   0  0  2  0  0  0  0  0  0  0  0  0
   33.8970   -6.3424  111.0499 N   0  0  0  0  0  0  0  0  0  0  0  0
   28.4958   -2.1993  106.7784 O   0  0  0  0  0  0  0  0  0  0  0  0
   29.4317   -1.9588  107.8523 C   0  0  2  0  0  0  0  0  0  0  0  0
   33.7916   -5.0642  108.8958 C   0  0  0  0  0  0  0  0  0  0  0  0
   31.3638   -5.7088  108.8197 N   0  0  0  0  0  0  0  0  0  0  0  0
   29.9317    0.7324  108.9411 O   0  0  0  0  0  0  0  0  0  0  0  0
   30.9110   -0.1978  108.5926 C   0  0  0  0  0  0  0  0  0  0  0  0
   29.1155    2.7935  110.2591 O   0  0  0  0  0  0  0  0  0  0  0  0
   33.6914   -3.2437  107.7091 C   0  0  0  0  0  0  0  0  0  0  0  0
   35.1059   -6.9965  109.2335 O   0  0  0  0  0  0  0  0  0  0  0  0
   34.3102   -6.1988  109.7229 C   0  0  0  0  0  0  0  0  0  0  0  0
   32.4730   -4.8748  108.5083 C   0  0  0  0  0  0  0  0  0  0  0  0
   31.5355    2.0578  110.3506 O   0  5  0  0  0  0  0  0  0  0  0  0
   29.9996    0.7444  111.4604 O   0  0  0  0  0  0  0  0  0  0  0  0
  1 17  1  0  0  0  0
  1 20  1  0  0  0  0
  2 15  1  1  0  0  0
  2  3  1  0  0  0  0
  2 11  1  0  0  0  0
  3  5  1  0  0  0  0
  4 16  1  1  0  0  0
  4 21  1  0  0  0  0
  4 22  2  0  0  0  0
  4 14  1  0  0  0  0
  5  1  1  1  0  0  0
  5  8  1  0  0  0  0
  6 17  2  0  0  0  0
  6 12  1  0  0  0  0
  8  7  1  6  0  0  0
  8 11  1  0  0  0  0
  9 19  1  0  0  0  0
 11 10  1  6  0  0  0
 12 20  2  0  0  0  0
 12 19  1  0  0  0  0
 13 20  1  0  0  0  0
 14 15  1  0  0  0  0
 18 19  2  0  0  0  0
M  CHG  1  21  -1
M  END
>  <CHROM.1>
-18.63295794,167.88231644,166.37324891,173.94067667,115.19789336,31.39644279
-2.21473485,108.83364021,0.96021135,0.64084951,-2.62961241

>  <Name>
ligand

>  <RI>
0

>  <Rbt.Current_Directory>
/home/itssahil/PROJECTS/Mol_Feturizer/New_Systems/rnas/4XW7

>  <Rbt.Executable>
rbdock ($Id: //depot/dev/client3/rdock/2013.1/src/exe/rbdock.cxx#4 $)

>  <Rbt.Library>
libRbt.so (2013.1, Build901 2013/11/27)

>  <Rbt.Parameter_File>
/export/apps/rDock/src/rDock_2013.1_src/data/scripts/dock_solv.prm

>  <Rbt.Receptor>
prm/pocket_docking_7.prm

>  <SCORE>
-7.56652

>  <SCORE.INTER>
-9.67458

>  <SCORE.INTER.CONST>
1

>  <SCORE.INTER.POLAR>
0

>  <SCORE.INTER.ROT>
5

>  <SCORE.INTER.SOLV>
16.5202

>  <SCORE.INTER.VDW>
-18.8898

>  <SCORE.INTER.norm>
-0.439754

>  <SCORE.INTRA>
2.10806

>  <SCORE.INTRA.DIHEDRAL>
-0.138942

>  <SCORE.INTRA.DIHEDRAL.0>
2.61549

>  <SCORE.INTRA.POLAR>
0

>  <SCORE.INTRA.POLAR.0>
0

>  <SCORE.INTRA.REPUL>
0

>  <SCORE.INTRA.REPUL.0>
0

>  <SCORE.INTRA.SOLV>
2.70028

>  <SCORE.INTRA.SOLV.lig_0>
-73.766

>  <SCORE.INTRA.VDW>
0.827394

>  <SCORE.INTRA.VDW.0>
-1.95055

>  <SCORE.INTRA.norm>
0.095821

>  <SCORE.RESTR>
0

>  <SCORE.RESTR.CAVITY>
0

>  <SCORE.RESTR.norm>
0

>  <SCORE.SYSTEM>
0

>  <SCORE.SYSTEM.CONST>
0

>  <SCORE.SYSTEM.DIHEDRAL>
0

>  <SCORE.SYSTEM.SOLV>
0

>  <SCORE.SYSTEM.norm>
0

>  <SCORE.heavy>
22

>  <SCORE.norm>
-0.343933

>  <RMSD>
6.741

$$$$
ligand
 OpenBabel11021811513D
libRbt.so/2013.1/901 2013/11/27
 22 23  0  0  0  0  0  0  0  0999 V2000
   29.1511   -0.5837  105.2080 N   0  0  0  0  0  0  0  0  0  0  0  0
   31.1327   -0.8843  107.9815 C   0  0  1  0  0  0  0  0  0  0  0  0
   30.8575   -0.1241  106.7537 O   0  0  0  0  0  0  0  0  0  0  0  0
   32.9512   -4.1650  108.7144 P   0  0  2  0  0  0  0  0  0  0  0  0
   29.4192   -0.1820  106.5208 C   0  0  2  0  0  0  0  0  0  0  0  0
   29.4347   -1.3316  103.1655 N   0  0  0  0  0  0  0  0  0  0  0  0
   27.5738   -0.7596  107.9271 O   0  0  0  0  0  0  0  0  0  0  0  0
   28.8757   -1.1648  107.4788 C   0  0  2  0  0  0  0  0  0  0  0  0
   26.3008   -0.1430  101.8691 N   0  0  0  0  0  0  0  0  0  0  0  0
   29.4818   -0.1306  109.5297 O   0  0  0  0  0  0  0  0  0  0  0  0
   29.8289   -1.1750  108.5939 C   0  0  2  0  0  0  0  0  0  0  0  0
   28.1248   -1.0598  103.3242 C   0  0  0  0  0  0  0  0  0  0  0  0
   26.6971   -0.1784  105.1952 N   0  0  0  0  0  0  0  0  0  0  0  0
   32.2087   -2.7933  108.8214 O   0  0  0  0  0  0  0  0  0  0  0  0
   31.8235   -2.1529  107.6436 C   0  0  0  0  0  0  0  0  0  0  0  0
   31.9654   -5.2700  108.1441 O   0  0  0  0  0  0  0  0  0  0  0  0
   30.0518   -1.0333  104.3334 C   0  0  0  0  0  0  0  0  0  0  0  0
   26.8627   -2.3494  101.8014 O   0  0  0  0  0  0  0  0  0  0  0  0
   27.0644   -1.2375  102.2830 C   0  0  0  0  0  0  0  0  0  0  0  0
   27.9297   -0.5835  104.6126 C   0  0  0  0  0  0  0  0  0  0  0  0
   33.5150   -4.5742  110.0205 O   0  5  0  0  0  0  0  0  0  0  0  0
   34.1733   -4.0552  107.8727 O   0  0  0  0  0  0  0  0  0  0  0  0
  1 17  1  0  0  0  0
  1 20  1  0  0  0  0
  2 15  1  6  0  0  0
  2  3  1  0  0  0  0
  2 11  1  0  0  0  0
  3  5  1  0  0  0  0
  4 16  1  6  0  0  0
  4 21  1  0  0  0  0
  4 22  2  0  0  0  0
  4 14  1  0  0  0  0
  5  1  1  6  0  0  0
  5  8  1  0  0  0  0
  6 17  2  0  0  0  0
  6 12  1  0  0  0  0
  8  7  1  1  0  0  0
  8 11  1  0  0  0  0
  9 19  1  0  0  0  0
 11 10  1  1  0  0  0
 12 20  2  0  0  0  0
 12 19  1  0  0  0  0
 13 20  1  0  0  0  0
 14 15  1  0  0  0  0
 18 19  2  0  0  0  0
M  CHG  1  21  -1
M  END
>  <CHROM.1>
8.70602182,173.55260301,-67.41608010,179.58253937,-121.04810454,30.04133898
-1.83136488,106.50209595,2.64223936,0.73695707,-1.98297020

>  <Name>
ligand

>  <RI>
0

>  <Rbt.Current_Directory>
/home/itssahil/PROJECTS/Mol_Feturizer/New_Systems/rnas/4XW7

>  <Rbt.Executable>
rbdock ($Id: //depot/dev/client3/rdock/2013.1/src/exe/rbdock.cxx#4 $)

>  <Rbt.Library>
libRbt.so (2013.1, Build901 2013/11/27)

>  <Rbt.Parameter_File>
/export/apps/rDock/src/rDock_2013.1_src/data/scripts/dock_solv.prm

>  <Rbt.Receptor>
prm/pocket_docking_7.prm

>  <SCORE>
-6.42535

>  <SCORE.INTER>
-6.38433

>  <SCORE.INTER.CONST>
1

>  <SCORE.INTER.POLAR>
0

>  <SCORE.INTER.ROT>
5

>  <SCORE.INTER.SOLV>
13.5227

>  <SCORE.INTER.VDW>
-15.6971

>  <SCORE.INTER.norm>
-0.290197

>  <SCORE.INTRA>
-0.0410224

>  <SCORE.INTRA.DIHEDRAL>
-0.906161

>  <SCORE.INTRA.DIHEDRAL.0>
2.61549

>  <SCORE.INTRA.POLAR>
0

>  <SCORE.INTRA.POLAR.0>
0

>  <SCORE.INTRA.REPUL>
0

>  <SCORE.INTRA.REPUL.0>
0

>  <SCORE.INTRA.SOLV>
1.15733

>  <SCORE.INTRA.SOLV.lig_0>
-73.766

>  <SCORE.INTRA.VDW>
-0.166609

>  <SCORE.INTRA.VDW.0>
-1.95055

>  <SCORE.INTRA.norm>
-0.00186465

>  <SCORE.RESTR>
0

>  <SCORE.RESTR.CAVITY>
0

>  <SCORE.RESTR.norm>
0

>  <SCORE.SYSTEM>
0

>  <SCORE.SYSTEM.CONST>
0

>  <SCORE.SYSTEM.DIHEDRAL>
0

>  <SCORE.SYSTEM.SOLV>
0

>  <SCORE.SYSTEM.norm>
0

>  <SCORE.heavy>
22

>  <SCORE.norm>
-0.292061

>  <RMSD>
6.747

$$$$
ligand
 OpenBabel11021811513D
libRbt.so/2013.1/901 2013/11/27
 22 23  0  0  0  0  0  0  0  0999 V2000
   28.1169   -2.9557  104.2611 N   0  0  0  0  0  0  0  0  0  0  0  0
   29.8917   -0.3225  105.5362 C   0  0  1  0  0  0  0  0  0  0  0  0
   29.8049   -1.3383  104.4770 O   0  0  0  0  0  0  0  0  0  0  0  0
   32.3858   -2.1358  107.7920 P   0  0  2  0  0  0  0  0  0  0  0  0
   28.3897   -1.5843  104.2266 C   0  0  2  0  0  0  0  0  0  0  0  0
   27.8625   -5.0052  105.0006 N   0  0  0  0  0  0  0  0  0  0  0  0
   26.4115   -0.3608  104.7806 O   0  0  0  0  0  0  0  0  0  0  0  0
   27.6449   -0.8864  105.2931 C   0  0  2  0  0  0  0  0  0  0  0  0
   25.8752   -6.2075  102.2748 N   0  0  0  0  0  0  0  0  0  0  0  0
   28.3242    1.3527  104.8828 O   0  0  0  0  0  0  0  0  0  0  0  0
   28.5313    0.1990  105.7272 C   0  0  2  0  0  0  0  0  0  0  0  0
   27.5590   -5.0024  103.6880 C   0  0  0  0  0  0  0  0  0  0  0  0
   27.5011   -3.2667  101.8715 N   0  0  0  0  0  0  0  0  0  0  0  0
   31.6337   -1.5010  106.5773 O   0  0  0  0  0  0  0  0  0  0  0  0
   30.3722   -0.9463  106.7934 C   0  0  0  0  0  0  0  0  0  0  0  0
   32.7601   -1.0090  108.8447 O   0  0  0  0  0  0  0  0  0  0  0  0
   28.2035   -3.7386  105.3373 C   0  0  0  0  0  0  0  0  0  0  0  0
   27.8810   -7.1595  102.7835 O   0  0  0  0  0  0  0  0  0  0  0  0
   27.1300   -6.1932  102.8891 C   0  0  0  0  0  0  0  0  0  0  0  0
   27.7170   -3.7114  103.2051 C   0  0  0  0  0  0  0  0  0  0  0  0
   33.5890   -2.8769  107.3514 O   0  5  0  0  0  0  0  0  0  0  0  0
   31.5776   -3.2116  108.4274 O   0  0  0  0  0  0  0  0  0  0  0  0
  1 17  1  0  0  0  0
  1 20  1  0  0  0  0
  2 15  1  1  0  0  0
  2  3  1  0  0  0  0
  2 11  1  0  0  0  0
  3  5  1  0  0  0  0
  4 16  1  1  0  0  0
  4 21  1  0  0  0  0
  4 22  2  0  0  0  0
  4 14  1  0  0  0  0
  5  1  1  1  0  0  0
  5  8  1  0  0  0  0
  6 17  2  0  0  0  0
  6 12  1  0  0  0  0
  8  7  1  6  0  0  0
  8 11  1  0  0  0  0
  9 19  1  0  0  0  0
 11 10  1  6  0  0  0
 12 20  2  0  0  0  0
 12 19  1  0  0  0  0
 13 20  1  0  0  0  0
 14 15  1  0  0  0  0
 18 19  2  0  0  0  0
M  CHG  1  21  -1
M  END
>  <CHROM.1>
66.22599798,59.97747331,-66.17205368,176.04045527,118.81261635,29.32184937
-2.54911484,105.30647311,2.54079963,0.66064012,-2.94298765

>  <Name>
ligand

>  <RI>
0

>  <Rbt.Current_Directory>
/home/itssahil/PROJECTS/Mol_Feturizer/New_Systems/rnas/4XW7

>  <Rbt.Executable>
rbdock ($Id: //depot/dev/client3/rdock/2013.1/src/exe/rbdock.cxx#4 $)

>  <Rbt.Library>
libRbt.so (2013.1, Build901 2013/11/27)

>  <Rbt.Parameter_File>
/export/apps/rDock/src/rDock_2013.1_src/data/scripts/dock_solv.prm

>  <Rbt.Receptor>
prm/pocket_docking_8.prm

>  <SCORE>
-6.58831

>  <SCORE.INTER>
-5.3838

>  <SCORE.INTER.CONST>
1

>  <SCORE.INTER.POLAR>
0

>  <SCORE.INTER.ROT>
5

>  <SCORE.INTER.SOLV>
14.5003

>  <SCORE.INTER.VDW>
-15.356

>  <SCORE.INTER.norm>
-0.244718

>  <SCORE.INTRA>
-1.20452

>  <SCORE.INTRA.DIHEDRAL>
-0.994227

>  <SCORE.INTRA.DIHEDRAL.0>
2.61549

>  <SCORE.INTRA.POLAR>
0

>  <SCORE.INTRA.POLAR.0>
0

>  <SCORE.INTRA.REPUL>
0

>  <SCORE.INTRA.REPUL.0>
0

>  <SCORE.INTRA.SOLV>
-0.827974

>  <SCORE.INTRA.SOLV.lig_0>
-73.766

>  <SCORE.INTRA.VDW>
-0.293418

>  <SCORE.INTRA.VDW.0>
-1.95055

>  <SCORE.INTRA.norm>
-0.0547508

>  <SCORE.RESTR>
0

>  <SCORE.RESTR.CAVITY>
0

>  <SCORE.RESTR.norm>
0

>  <SCORE.SYSTEM>
0

>  <SCORE.SYSTEM.CONST>
0

>  <SCORE.SYSTEM.DIHEDRAL>
0

>  <SCORE.SYSTEM.SOLV>
0

>  <SCORE.SYSTEM.norm>
0

>  <SCORE.heavy>
22

>  <SCORE.norm>
-0.299469

>  <RMSD>
6.750

$$$$
ligand
 OpenBabel11021811513D
libRbt.so/2013.1/901 2013/11/27
 22 23  0  0  0  0  0  0  0  0999 V2000
   28.8626    0.2835  108.4792 N   0  0  0  0  0  0  0  0  0  0  0  0
   30.1840   -2.1466  106.4645 C   0  0  1  0  0  0  0  0  0  0  0  0
   29.2500   -1.8410  107.5580 O   0  0  0  0  0  0  0  0  0  0  0  0
   33.1102   -3.3752  108.5937 P   0  0  2  0  0  0  0  0  0  0  0  0
   28.7345   -0.4970  107.3255 C   0  0  2  0  0  0  0  0  0  0  0  0
   29.7538    1.4329  110.1212 N   0  0  0  0  0  0  0  0  0  0  0  0
   28.7176    0.9192  105.3991 O   0  0  0  0  0  0  0  0  0  0  0  0
   29.5348    0.0776  106.2262 C   0  0  2  0  0  0  0  0  0  0  0  0
   28.1365    2.0840  112.6866 N   0  0  0  0  0  0  0  0  0  0  0  0
   29.0315   -1.4642  104.4905 O   0  0  0  0  0  0  0  0  0  0  0  0
   30.0235   -1.0790  105.4676 C   0  0  2  0  0  0  0  0  0  0  0  0
   28.4156    1.4741  110.2710 C   0  0  0  0  0  0  0  0  0  0  0  0
   26.4480    0.5372  109.0194 N   0  0  0  0  0  0  0  0  0  0  0  0
   31.7226   -3.1878  107.8983 O   0  0  0  0  0  0  0  0  0  0  0  0
   31.5757   -2.1499  106.9779 C   0  0  0  0  0  0  0  0  0  0  0  0
   34.2085   -3.7576  107.5142 O   0  0  0  0  0  0  0  0  0  0  0  0
   30.0120    0.6967  109.0143 C   0  0  0  0  0  0  0  0  0  0  0  0
   26.6750    2.8326  111.1079 O   0  0  0  0  0  0  0  0  0  0  0  0
   27.6818    2.1789  111.3688 C   0  0  0  0  0  0  0  0  0  0  0  0
   27.8371    0.7490  109.2393 C   0  0  0  0  0  0  0  0  0  0  0  0
   33.0401   -4.3909  109.6682 O   0  5  0  0  0  0  0  0  0  0  0  0
   33.5068   -2.1558  109.3487 O   0  0  0  0  0  0  0  0  0  0  0  0
  1 17  1  0  0  0  0
  1 20  1  0  0  0  0
  2 15  1  1  0  0  0
  2  3  1  0  0  0  0
  2 11  1  0  0  0  0
  3  5  1  0  0  0  0
  4 16  1  6  0  0  0
  4 21  1  0  0  0  0
  4 22  2  0  0  0  0
  4 14  1  0  0  0  0
  5  1  1  1  0  0  0
  5  8  1  0  0  0  0
  6 17  2  0  0  0  0
  6 12  1  0  0  0  0
  8  7  1  6  0  0  0
  8 11  1  0  0  0  0
  9 19  1  0  0  0  0
 11 10  1  6  0  0  0
 12 20  2  0  0  0  0
 12 19  1  0  0  0  0
 13 20  1  0  0  0  0
 14 15  1  0  0  0  0
 18 19  2  0  0  0  0
M  CHG  1  21  -1
M  END
>  <CHROM.1>
67.82318994,64.62479556,-64.27734586,-179.07776751,-43.30125263,30.08839519
-0.81690055,108.34674754,2.64371759,-0.68497813,1.28308307

>  <Name>
ligand

>  <RI>
0

>  <Rbt.Current_Directory>
/home/itssahil/PROJECTS/Mol_Feturizer/New_Systems/rnas/4XW7

>  <Rbt.Executable>
rbdock ($Id: //depot/dev/client3/rdock/2013.1/src/exe/rbdock.cxx#4 $)

>  <Rbt.Library>
libRbt.so (2013.1, Build901 2013/11/27)

>  <Rbt.Parameter_File>
/export/apps/rDock/src/rDock_2013.1_src/data/scripts/dock_solv.prm

>  <Rbt.Receptor>
prm/pocket_docking_8.prm

>  <SCORE>
-8.55019

>  <SCORE.INTER>
-7.94247

>  <SCORE.INTER.CONST>
1

>  <SCORE.INTER.POLAR>
0

>  <SCORE.INTER.ROT>
5

>  <SCORE.INTER.SOLV>
10.1698

>  <SCORE.INTER.VDW>
-15.6183

>  <SCORE.INTER.norm>
-0.361021

>  <SCORE.INTRA>
-0.607718

>  <SCORE.INTRA.DIHEDRAL>
0.334448

>  <SCORE.INTRA.DIHEDRAL.0>
2.61549

>  <SCORE.INTRA.POLAR>
0

>  <SCORE.INTRA.POLAR.0>
0

>  <SCORE.INTRA.REPUL>
0

>  <SCORE.INTRA.REPUL.0>
0

>  <SCORE.INTRA.SOLV>
-1.04144

>  <SCORE.INTRA.SOLV.lig_0>
-73.766

>  <SCORE.INTRA.VDW>
-0.254221

>  <SCORE.INTRA.VDW.0>
-1.95055

>  <SCORE.INTRA.norm>
-0.0276235

>  <SCORE.RESTR>
0

>  <SCORE.RESTR.CAVITY>
0

>  <SCORE.RESTR.norm>
0

>  <SCORE.SYSTEM>
0

>  <SCORE.SYSTEM.CONST>
0

>  <SCORE.SYSTEM.DIHEDRAL>
0

>  <SCORE.SYSTEM.SOLV>
0

>  <SCORE.SYSTEM.norm>
0

>  <SCORE.heavy>
22

>  <SCORE.norm>
-0.388645

>  <RMSD>
6.757

$$$$
ligand
 OpenBabel11021811513D
libRbt.so/2013.1/901 2013/11/27
 22 23  0  0  0  0  0  0  0  0999 V2000
   29.0208   -1.5814  104.3018 N   0  0  0  0  0  0  0  0  0  0  0  0
   31.1575   -0.7694  106.8484 C   0  0  1  0  0  0  0  0  0  0  0  0
   30.7444   -0.4914  105.4652 O   0  0  0  0  0  0  0  0  0  0  0  0
   33.1676   -3.5608  108.5124 P   0  0  2  0  0  0  0  0  0  0  0  0
   29.3102   -0.7413  105.3821 C   0  0  2  0  0  0  0  0  0  0  0  0
   29.0711   -2.4920  102.3068 N   0  0  0  0  0  0  0  0  0  0  0  0
   27.6065   -0.9609  107.0453 O   0  0  0  0  0  0  0  0  0  0  0  0
   28.9198   -1.3856  106.6515 C   0  0  2  0  0  0  0  0  0  0  0  0
   27.4708   -5.5665  103.1529 N   0  0  0  0  0  0  0  0  0  0  0  0
   29.5156    0.3237  108.1900 O   0  0  0  0  0  0  0  0  0  0  0  0
   29.9228   -0.9425  107.6262 C   0  0  2  0  0  0  0  0  0  0  0  0
   28.1565   -3.1579  103.0384 C   0  0  0  0  0  0  0  0  0  0  0  0
   27.2828   -2.9900  105.3888 N   0  0  0  0  0  0  0  0  0  0  0  0
   32.3652   -2.2544  108.2062 O   0  0  0  0  0  0  0  0  0  0  0  0
   31.9589   -2.0169  106.8930 C   0  0  0  0  0  0  0  0  0  0  0  0
   34.4591   -3.6297  107.5931 O   0  0  0  0  0  0  0  0  0  0  0  0
   29.5934   -1.5256  103.0987 C   0  0  0  0  0  0  0  0  0  0  0  0
   26.5282   -4.1455  101.6426 O   0  0  0  0  0  0  0  0  0  0  0  0
   27.3274   -4.3089  102.5611 C   0  0  0  0  0  0  0  0  0  0  0  0
   28.1121   -2.5915  104.3041 C   0  0  0  0  0  0  0  0  0  0  0  0
   32.3226   -4.7637  108.3386 O   0  5  0  0  0  0  0  0  0  0  0  0
   33.5329   -3.6471  109.9523 O   0  0  0  0  0  0  0  0  0  0  0  0
  1 17  1  0  0  0  0
  1 20  1  0  0  0  0
  2 15  1  6  0  0  0
  2  3  1  0  0  0  0
  2 11  1  0  0  0  0
  3  5  1  0  0  0  0
  4 16  1  6  0  0  0
  4 21  1  0  0  0  0
  4 22  2  0  0  0  0
  4 14  1  0  0  0  0
  5  1  1  6  0  0  0
  5  8  1  0  0  0  0
  6 17  2  0  0  0  0
  6 12  1  0  0  0  0
  8  7  1  1  0  0  0
  8 11  1  0  0  0  0
  9 19  1  0  0  0  0
 11 10  1  6  0  0  0
 12 20  2  0  0  0  0
 12 19  1  0  0  0  0
 13 20  1  0  0  0  0
 14 15  1  0  0  0  0
 18 19  2  0  0  0  0
M  CHG  1  21  -1
M  END
>  <CHROM.1>
-40.08378622,178.87540592,55.94006218,176.96819871,116.46911046,30.14518593
-2.48430664,106.00571646,2.71083375,0.69853223,-2.55772306

>  <Name>
ligand

>  <RI>
0

>  <Rbt.Current_Directory>
/home/itssahil/PROJECTS/Mol_Feturizer/New_Systems/rnas/4XW7

>  <Rbt.Executable>
rbdock ($Id: //depot/dev/client3/rdock/2013.1/src/exe/rbdock.cxx#4 $)

>  <Rbt.Library>
libRbt.so (2013.1, Build901 2013/11/27)

>  <Rbt.Parameter_File>
/export/apps/rDock/src/rDock_2013.1_src/data/scripts/dock_solv.prm

>  <Rbt.Receptor>
prm/pocket_docking_4.prm

>  <SCORE>
-6.54515

>  <SCORE.INTER>
-9.23472

>  <SCORE.INTER.CONST>
1

>  <SCORE.INTER.POLAR>
0

>  <SCORE.INTER.ROT>
5

>  <SCORE.INTER.SOLV>
13.5508

>  <SCORE.INTER.VDW>
-17.6067

>  <SCORE.INTER.norm>
-0.41976

>  <SCORE.INTRA>
2.68957

>  <SCORE.INTRA.DIHEDRAL>
-1.04312

>  <SCORE.INTRA.DIHEDRAL.0>
2.61549

>  <SCORE.INTRA.POLAR>
0

>  <SCORE.INTRA.POLAR.0>
0

>  <SCORE.INTRA.REPUL>
0

>  <SCORE.INTRA.REPUL.0>
0

>  <SCORE.INTRA.SOLV>
2.56056

>  <SCORE.INTRA.SOLV.lig_0>
-73.766

>  <SCORE.INTRA.VDW>
1.93085

>  <SCORE.INTRA.VDW.0>
-1.95055

>  <SCORE.INTRA.norm>
0.122253

>  <SCORE.RESTR>
0

>  <SCORE.RESTR.CAVITY>
0

>  <SCORE.RESTR.norm>
0

>  <SCORE.SYSTEM>
0

>  <SCORE.SYSTEM.CONST>
0

>  <SCORE.SYSTEM.DIHEDRAL>
0

>  <SCORE.SYSTEM.SOLV>
0

>  <SCORE.SYSTEM.norm>
0

>  <SCORE.heavy>
22

>  <SCORE.norm>
-0.297507

>  <RMSD>
6.768

$$$$
ligand
 OpenBabel11021811513D
libRbt.so/2013.1/901 2013/11/27
 22 23  0  0  0  0  0  0  0  0999 V2000
   28.3443   -2.7482  103.6998 N   0  0  0  0  0  0  0  0  0  0  0  0
   29.8752   -0.2518  105.4703 C   0  0  1  0  0  0  0  0  0  0  0  0
   29.9320   -1.1210  104.2859 O   0  0  0  0  0  0  0  0  0  0  0  0
   32.2543   -2.1952  107.7389 P   0  0  2  0  0  0  0  0  0  0  0  0
   28.5583   -1.3762  103.8688 C   0  0  2  0  0  0  0  0  0  0  0  0
   28.0094   -4.8691  104.1484 N   0  0  0  0  0  0  0  0  0  0  0  0
   26.4852   -0.2999  104.3793 O   0  0  0  0  0  0  0  0  0  0  0  0
   27.6877   -0.8494  104.9381 C   0  0  2  0  0  0  0  0  0  0  0  0
   26.8403   -5.7608  100.8548 N   0  0  0  0  0  0  0  0  0  0  0  0
   28.3027    1.4447  104.8875 O   0  0  0  0  0  0  0  0  0  0  0  0
   28.4812    0.1966  105.5928 C   0  0  2  0  0  0  0  0  0  0  0  0
   28.0272   -4.7314  102.8084 C   0  0  0  0  0  0  0  0  0  0  0  0
   28.3290   -2.8128  101.2135 N   0  0  0  0  0  0  0  0  0  0  0  0
   31.5718   -1.4817  106.5268 O   0  0  0  0  0  0  0  0  0  0  0  0
   30.2639   -1.0209  106.6778 C   0  0  0  0  0  0  0  0  0  0  0  0
   32.4452   -1.1680  108.9331 O   0  0  0  0  0  0  0  0  0  0  0  0
   28.2058   -3.6399  104.6817 C   0  0  0  0  0  0  0  0  0  0  0  0
   28.5952   -6.8149  101.8536 O   0  0  0  0  0  0  0  0  0  0  0  0
   27.8522   -5.8374  101.8152 C   0  0  0  0  0  0  0  0  0  0  0  0
   28.2401   -3.3936  102.5087 C   0  0  0  0  0  0  0  0  0  0  0  0
   33.5448   -2.8050  107.3465 O   0  5  0  0  0  0  0  0  0  0  0  0
   31.4735   -3.3836  108.1776 O   0  0  0  0  0  0  0  0  0  0  0  0
  1 17  1  0  0  0  0
  1 20  1  0  0  0  0
  2 15  1  1  0  0  0
  2  3  1  0  0  0  0
  2 11  1  0  0  0  0
  3  5  1  0  0  0  0
  4 16  1  1  0  0  0
  4 21  1  0  0  0  0
  4 22  2  0  0  0  0
  4 14  1  0  0  0  0
  5  1  1  1  0  0  0
  5  8  1  0  0  0  0
  6 17  2  0  0  0  0
  6 12  1  0  0  0  0
  8  7  1  6  0  0  0
  8 11  1  0  0  0  0
  9 19  1  0  0  0  0
 11 10  1  6  0  0  0
 12 20  2  0  0  0  0
 12 19  1  0  0  0  0
 13 20  1  0  0  0  0
 14 15  1  0  0  0  0
 18 19  2  0  0  0  0
M  CHG  1  21  -1
M  END
>  <CHROM.1>
74.76922656,61.03294545,-65.36060487,173.75165738,123.47888830,29.48334125
-2.43138181,104.90690003,2.41596495,0.74338219,-2.72959433

>  <Name>
ligand

>  <RI>
0

>  <Rbt.Current_Directory>
/home/itssahil/PROJECTS/Mol_Feturizer/New_Systems/rnas/4XW7

>  <Rbt.Executable>
rbdock ($Id: //depot/dev/client3/rdock/2013.1/src/exe/rbdock.cxx#4 $)

>  <Rbt.Library>
libRbt.so (2013.1, Build901 2013/11/27)

>  <Rbt.Parameter_File>
/export/apps/rDock/src/rDock_2013.1_src/data/scripts/dock_solv.prm

>  <Rbt.Receptor>
prm/pocket_docking_6.prm

>  <SCORE>
-6.47674

>  <SCORE.INTER>
-5.56612

>  <SCORE.INTER.CONST>
1

>  <SCORE.INTER.POLAR>
0

>  <SCORE.INTER.ROT>
5

>  <SCORE.INTER.SOLV>
17.0759

>  <SCORE.INTER.VDW>
-16.3361

>  <SCORE.INTER.norm>
-0.253005

>  <SCORE.INTRA>
-0.910617

>  <SCORE.INTRA.DIHEDRAL>
-0.876062

>  <SCORE.INTRA.DIHEDRAL.0>
2.61549

>  <SCORE.INTRA.POLAR>
0

>  <SCORE.INTRA.POLAR.0>
0

>  <SCORE.INTRA.REPUL>
0

>  <SCORE.INTRA.REPUL.0>
0

>  <SCORE.INTRA.SOLV>
-0.848982

>  <SCORE.INTRA.SOLV.lig_0>
-73.766

>  <SCORE.INTRA.VDW>
-0.0480952

>  <SCORE.INTRA.VDW.0>
-1.95055

>  <SCORE.INTRA.norm>
-0.0413917

>  <SCORE.RESTR>
0

>  <SCORE.RESTR.CAVITY>
0

>  <SCORE.RESTR.norm>
0

>  <SCORE.SYSTEM>
0

>  <SCORE.SYSTEM.CONST>
0

>  <SCORE.SYSTEM.DIHEDRAL>
0

>  <SCORE.SYSTEM.SOLV>
0

>  <SCORE.SYSTEM.norm>
0

>  <SCORE.heavy>
22

>  <SCORE.norm>
-0.294397

>  <RMSD>
6.778

$$$$
ligand
 OpenBabel11021811513D
libRbt.so/2013.1/901 2013/11/27
 22 23  0  0  0  0  0  0  0  0999 V2000
   28.6699   -0.8417  104.4199 N   0  0  0  0  0  0  0  0  0  0  0  0
   30.6230   -0.6903  107.2257 C   0  0  1  0  0  0  0  0  0  0  0  0
   30.3065   -0.0853  105.9237 O   0  0  0  0  0  0  0  0  0  0  0  0
   32.6751   -3.7252  108.3117 P   0  0  2  0  0  0  0  0  0  0  0  0
   28.8821   -0.2870  105.6863 C   0  0  2  0  0  0  0  0  0  0  0  0
   29.0300   -1.8661  102.5139 N   0  0  0  0  0  0  0  0  0  0  0  0
   27.0674   -0.8705  107.1297 O   0  0  0  0  0  0  0  0  0  0  0  0
   28.4056   -1.2088  106.7362 C   0  0  2  0  0  0  0  0  0  0  0  0
   27.0847   -2.5109  100.3436 N   0  0  0  0  0  0  0  0  0  0  0  0
   28.8900    0.0767  108.6743 O   0  0  0  0  0  0  0  0  0  0  0  0
   29.3376   -1.0251  107.8542 C   0  0  2  0  0  0  0  0  0  0  0  0
   27.7332   -1.5022  102.5452 C   0  0  0  0  0  0  0  0  0  0  0  0
   26.2530   -0.3037  104.1848 N   0  0  0  0  0  0  0  0  0  0  0  0
   31.8688   -2.3866  108.2639 O   0  0  0  0  0  0  0  0  0  0  0  0
   31.4217   -1.9244  107.0261 C   0  0  0  0  0  0  0  0  0  0  0  0
   31.7854   -4.9124  107.7486 O   0  0  0  0  0  0  0  0  0  0  0  0
   29.5918   -1.4524  103.6745 C   0  0  0  0  0  0  0  0  0  0  0  0
   25.5976   -1.2883  101.5610 O   0  0  0  0  0  0  0  0  0  0  0  0
   26.7297   -1.7550  101.4637 C   0  0  0  0  0  0  0  0  0  0  0  0
   27.4903   -0.8508  103.7457 C   0  0  0  0  0  0  0  0  0  0  0  0
   33.1509   -4.0173  109.6826 O   0  5  0  0  0  0  0  0  0  0  0  0
   33.9541   -3.6143  107.5594 O   0  0  0  0  0  0  0  0  0  0  0  0
  1 17  1  0  0  0  0
  1 20  1  0  0  0  0
  2 15  1  6  0  0  0
  2  3  1  0  0  0  0
  2 11  1  0  0  0  0
  3  5  1  0  0  0  0
  4 16  1  6  0  0  0
  4 21  1  0  0  0  0
  4 22  2  0  0  0  0
  4 14  1  0  0  0  0
  5  1  1  6  0  0  0
  5  8  1  0  0  0  0
  6 17  2  0  0  0  0
  6 12  1  0  0  0  0
  8  7  1  1  0  0  0
  8 11  1  0  0  0  0
  9 19  1  0  0  0  0
 11 10  1  1  0  0  0
 12 20  2  0  0  0  0
 12 19  1  0  0  0  0
 13 20  1  0  0  0  0
 14 15  1  0  0  0  0
 18 19  2  0  0  0  0
M  CHG  1  21  -1
M  END
>  <CHROM.1>
17.65456023,171.97795609,-60.36218534,176.89916998,4.94835475,29.64094687
-1.82862930,105.82279588,2.54517850,0.65701631,-1.98218086

>  <Name>
ligand

>  <RI>
0

>  <Rbt.Current_Directory>
/home/itssahil/PROJECTS/Mol_Feturizer/New_Systems/rnas/4XW7

>  <Rbt.Executable>
rbdock ($Id: //depot/dev/client3/rdock/2013.1/src/exe/rbdock.cxx#4 $)

>  <Rbt.Library>
libRbt.so (2013.1, Build901 2013/11/27)

>  <Rbt.Parameter_File>
/export/apps/rDock/src/rDock_2013.1_src/data/scripts/dock_solv.prm

>  <Rbt.Receptor>
prm/pocket_docking_5.prm

>  <SCORE>
-6.54768

>  <SCORE.INTER>
-6.33466

>  <SCORE.INTER.CONST>
1

>  <SCORE.INTER.POLAR>
0

>  <SCORE.INTER.ROT>
5

>  <SCORE.INTER.SOLV>
13.4309

>  <SCORE.INTER.VDW>
-15.6334

>  <SCORE.INTER.norm>
-0.287939

>  <SCORE.INTRA>
-0.213017

>  <SCORE.INTRA.DIHEDRAL>
-0.845543

>  <SCORE.INTRA.DIHEDRAL.0>
2.61549

>  <SCORE.INTRA.POLAR>
0

>  <SCORE.INTRA.POLAR.0>
0

>  <SCORE.INTRA.REPUL>
0

>  <SCORE.INTRA.REPUL.0>
0

>  <SCORE.INTRA.SOLV>
0.769287

>  <SCORE.INTRA.SOLV.lig_0>
-73.766

>  <SCORE.INTRA.VDW>
-0.174889

>  <SCORE.INTRA.VDW.0>
-1.95055

>  <SCORE.INTRA.norm>
-0.00968259

>  <SCORE.RESTR>
0

>  <SCORE.RESTR.CAVITY>
0

>  <SCORE.RESTR.norm>
0

>  <SCORE.SYSTEM>
0

>  <SCORE.SYSTEM.CONST>
0

>  <SCORE.SYSTEM.DIHEDRAL>
0

>  <SCORE.SYSTEM.SOLV>
0

>  <SCORE.SYSTEM.norm>
0

>  <SCORE.heavy>
22

>  <SCORE.norm>
-0.297622

>  <RMSD>
6.782

$$$$
ligand
 OpenBabel11021811513D
libRbt.so/2013.1/901 2013/11/27
 22 23  0  0  0  0  0  0  0  0999 V2000
   29.5661    0.3802  108.8365 N   0  0  0  0  0  0  0  0  0  0  0  0
   30.3109   -2.3677  106.9379 C   0  0  1  0  0  0  0  0  0  0  0  0
   29.6018   -1.8551  108.1194 O   0  0  0  0  0  0  0  0  0  0  0  0
   33.4094   -3.5897  108.8087 P   0  0  2  0  0  0  0  0  0  0  0  0
   29.1791   -0.4933  107.8148 C   0  0  2  0  0  0  0  0  0  0  0  0
   30.8163    1.5128  110.2386 N   0  0  0  0  0  0  0  0  0  0  0  0
   28.9731    0.7168  105.7629 O   0  0  0  0  0  0  0  0  0  0  0  0
   29.8358   -0.1213  106.5462 C   0  0  2  0  0  0  0  0  0  0  0  0
   29.9845    3.5265  112.2779 N   0  0  0  0  0  0  0  0  0  0  0  0
   28.9151   -1.7654  105.0996 O   0  0  0  0  0  0  0  0  0  0  0  0
   30.0855   -1.3941  105.8606 C   0  0  2  0  0  0  0  0  0  0  0  0
   29.5326    1.8507  110.4690 C   0  0  0  0  0  0  0  0  0  0  0  0
   27.3106    1.1972  109.4935 N   0  0  0  0  0  0  0  0  0  0  0  0
   31.9610   -3.3937  108.2538 O   0  0  0  0  0  0  0  0  0  0  0  0
   31.7622   -2.4702  107.2275 C   0  0  0  0  0  0  0  0  0  0  0  0
   34.4124   -3.8744  107.6125 O   0  0  0  0  0  0  0  0  0  0  0  0
   30.8194    0.6075  109.2315 C   0  0  0  0  0  0  0  0  0  0  0  0
   27.8540    2.9945  111.6727 O   0  0  0  0  0  0  0  0  0  0  0  0
   29.0585    2.8236  111.5028 C   0  0  0  0  0  0  0  0  0  0  0  0
   28.7285    1.1401  109.5896 C   0  0  0  0  0  0  0  0  0  0  0  0
   33.4571   -4.6733  109.8160 O   0  5  0  0  0  0  0  0  0  0  0  0
   33.8489   -2.4112  109.6038 O   0  0  0  0  0  0  0  0  0  0  0  0
  1 17  1  0  0  0  0
  1 20  1  0  0  0  0
  2 15  1  1  0  0  0
  2  3  1  0  0  0  0
  2 11  1  0  0  0  0
  3  5  1  0  0  0  0
  4 16  1  6  0  0  0
  4 21  1  0  0  0  0
  4 22  2  0  0  0  0
  4 14  1  0  0  0  0
  5  1  1  1  0  0  0
  5  8  1  0  0  0  0
  6 17  2  0  0  0  0
  6 12  1  0  0  0  0
  8  7  1  6  0  0  0
  8 11  1  0  0  0  0
  9 19  1  0  0  0  0
 11 10  1  1  0  0  0
 12 20  2  0  0  0  0
 12 19  1  0  0  0  0
 13 20  1  0  0  0  0
 14 15  1  0  0  0  0
 18 19  2  0  0  0  0
M  CHG  1  21  -1
M  END
>  <CHROM.1>
60.10782452,63.00611476,-52.09622939,-175.36935151,3.70795562,30.64453200
-0.79353376,108.64337616,2.38786075,-0.69729417,0.97234024

>  <Name>
ligand

>  <RI>
0

>  <Rbt.Current_Directory>
/home/itssahil/PROJECTS/Mol_Feturizer/New_Systems/rnas/4XW7

>  <Rbt.Executable>
rbdock ($Id: //depot/dev/client3/rdock/2013.1/src/exe/rbdock.cxx#4 $)

>  <Rbt.Library>
libRbt.so (2013.1, Build901 2013/11/27)

>  <Rbt.Parameter_File>
/export/apps/rDock/src/rDock_2013.1_src/data/scripts/dock_solv.prm

>  <Rbt.Receptor>
prm/pocket_docking_8.prm

>  <SCORE>
-9.37728

>  <SCORE.INTER>
-8.27934

>  <SCORE.INTER.CONST>
1

>  <SCORE.INTER.POLAR>
0

>  <SCORE.INTER.ROT>
5

>  <SCORE.INTER.SOLV>
12.4179

>  <SCORE.INTER.VDW>
-16.5922

>  <SCORE.INTER.norm>
-0.376333

>  <SCORE.INTRA>
-1.09794

>  <SCORE.INTRA.DIHEDRAL>
-0.881524

>  <SCORE.INTRA.DIHEDRAL.0>
2.61549

>  <SCORE.INTRA.POLAR>
0

>  <SCORE.INTRA.POLAR.0>
0

>  <SCORE.INTRA.REPUL>
0

>  <SCORE.INTRA.REPUL.0>
0

>  <SCORE.INTRA.SOLV>
-0.727591

>  <SCORE.INTRA.SOLV.lig_0>
-73.766

>  <SCORE.INTRA.VDW>
-0.293387

>  <SCORE.INTRA.VDW.0>
-1.95055

>  <SCORE.INTRA.norm>
-0.0499066

>  <SCORE.RESTR>
0

>  <SCORE.RESTR.CAVITY>
0

>  <SCORE.RESTR.norm>
0

>  <SCORE.SYSTEM>
0

>  <SCORE.SYSTEM.CONST>
0

>  <SCORE.SYSTEM.DIHEDRAL>
0

>  <SCORE.SYSTEM.SOLV>
0

>  <SCORE.SYSTEM.norm>
0

>  <SCORE.heavy>
22

>  <SCORE.norm>
-0.42624

>  <RMSD>
6.791

$$$$
ligand
 OpenBabel11021811513D
libRbt.so/2013.1/901 2013/11/27
 22 23  0  0  0  0  0  0  0  0999 V2000
   28.7404   -1.2111  104.4307 N   0  0  0  0  0  0  0  0  0  0  0  0
   30.8707   -0.7196  107.0633 C   0  0  1  0  0  0  0  0  0  0  0  0
   30.4620   -0.2742  105.7231 O   0  0  0  0  0  0  0  0  0  0  0  0
   32.9739   -3.6269  108.3733 P   0  0  2  0  0  0  0  0  0  0  0  0
   29.0278   -0.5096  105.6062 C   0  0  2  0  0  0  0  0  0  0  0  0
   28.9761   -2.1557  102.4650 N   0  0  0  0  0  0  0  0  0  0  0  0
   27.3189   -0.9275  107.2255 O   0  0  0  0  0  0  0  0  0  0  0  0
   28.6328   -1.3032  106.7865 C   0  0  2  0  0  0  0  0  0  0  0  0
   26.0233   -4.2096  102.6770 N   0  0  0  0  0  0  0  0  0  0  0  0
   29.2263    0.2046  108.5236 O   0  0  0  0  0  0  0  0  0  0  0  0
   29.6335   -0.9842  107.8108 C   0  0  2  0  0  0  0  0  0  0  0  0
   27.7081   -2.3632  102.8702 C   0  0  0  0  0  0  0  0  0  0  0  0
   26.3580   -1.7503  104.8993 N   0  0  0  0  0  0  0  0  0  0  0  0
   32.1906   -2.2835  108.2119 O   0  0  0  0  0  0  0  0  0  0  0  0
   31.6702   -1.9646  106.9576 C   0  0  0  0  0  0  0  0  0  0  0  0
   32.0633   -4.8420  107.9127 O   0  0  0  0  0  0  0  0  0  0  0  0
   29.5975   -1.4457  103.4363 C   0  0  0  0  0  0  0  0  0  0  0  0
   26.3621   -2.7427  100.9677 O   0  0  0  0  0  0  0  0  0  0  0  0
   26.6575   -3.1043  102.1039 C   0  0  0  0  0  0  0  0  0  0  0  0
   27.5430   -1.7692  104.1131 C   0  0  0  0  0  0  0  0  0  0  0  0
   33.4463   -3.8097  109.7642 O   0  5  0  0  0  0  0  0  0  0  0  0
   34.2537   -3.6022  107.6146 O   0  0  0  0  0  0  0  0  0  0  0  0
  1 17  1  0  0  0  0
  1 20  1  0  0  0  0
  2 15  1  6  0  0  0
  2  3  1  0  0  0  0
  2 11  1  0  0  0  0
  3  5  1  0  0  0  0
  4 16  1  6  0  0  0
  4 21  1  0  0  0  0
  4 22  2  0  0  0  0
  4 14  1  0  0  0  0
  5  1  1  6  0  0  0
  5  8  1  0  0  0  0
  6 17  2  0  0  0  0
  6 12  1  0  0  0  0
  8  7  1  1  0  0  0
  8 11  1  0  0  0  0
  9 19  1  0  0  0  0
 11 10  1  6  0  0  0
 12 20  2  0  0  0  0
 12 19  1  0  0  0  0
 13 20  1  0  0  0  0
 14 15  1  0  0  0  0
 18 19  2  0  0  0  0
M  CHG  1  21  -1
M  END
>  <CHROM.1>
-10.54091143,172.64472835,-56.00890394,174.98051090,122.76683032,29.80585764
-2.16630622,105.95522661,2.65084431,0.62952493,-2.26628046

>  <Name>
ligand

>  <RI>
0

>  <Rbt.Current_Directory>
/home/itssahil/PROJECTS/Mol_Feturizer/New_Systems/rnas/4XW7

>  <Rbt.Executable>
rbdock ($Id: //depot/dev/client3/rdock/2013.1/src/exe/rbdock.cxx#4 $)

>  <Rbt.Library>
libRbt.so (2013.1, Build901 2013/11/27)

>  <Rbt.Parameter_File>
/export/apps/rDock/src/rDock_2013.1_src/data/scripts/dock_solv.prm

>  <Rbt.Receptor>
prm/pocket_docking_4.prm

>  <SCORE>
-5.78813

>  <SCORE.INTER>
-6.63614

>  <SCORE.INTER.CONST>
1

>  <SCORE.INTER.POLAR>
0

>  <SCORE.INTER.ROT>
5

>  <SCORE.INTER.SOLV>
13.9298

>  <SCORE.INTER.VDW>
-16.0007

>  <SCORE.INTER.norm>
-0.301643

>  <SCORE.INTRA>
0.847417

>  <SCORE.INTRA.DIHEDRAL>
-0.792729

>  <SCORE.INTRA.DIHEDRAL.0>
2.61549

>  <SCORE.INTRA.POLAR>
0

>  <SCORE.INTRA.POLAR.0>
0

>  <SCORE.INTRA.REPUL>
0

>  <SCORE.INTRA.REPUL.0>
0

>  <SCORE.INTRA.SOLV>
1.75673

>  <SCORE.INTRA.SOLV.lig_0>
-73.766

>  <SCORE.INTRA.VDW>
0.365416

>  <SCORE.INTRA.VDW.0>
-1.95055

>  <SCORE.INTRA.norm>
0.038519

>  <SCORE.RESTR>
0.000595662

>  <SCORE.RESTR.CAVITY>
0.000595662

>  <SCORE.RESTR.norm>
2.70755e-05

>  <SCORE.SYSTEM>
0

>  <SCORE.SYSTEM.CONST>
0

>  <SCORE.SYSTEM.DIHEDRAL>
0

>  <SCORE.SYSTEM.SOLV>
0

>  <SCORE.SYSTEM.norm>
0

>  <SCORE.heavy>
22

>  <SCORE.norm>
-0.263097

>  <RMSD>
6.794

$$$$
ligand
 OpenBabel11021811513D
libRbt.so/2013.1/901 2013/11/27
 22 23  0  0  0  0  0  0  0  0999 V2000
   28.7214   -0.8011  104.4240 N   0  0  0  0  0  0  0  0  0  0  0  0
   30.7907   -0.7464  107.1490 C   0  0  1  0  0  0  0  0  0  0  0  0
   30.5270   -0.2128  105.8047 O   0  0  0  0  0  0  0  0  0  0  0  0
   32.5934   -3.8704  108.4058 P   0  0  2  0  0  0  0  0  0  0  0  0
   29.0801   -0.1823  105.6261 C   0  0  2  0  0  0  0  0  0  0  0  0
   28.8459   -1.9645  102.5686 N   0  0  0  0  0  0  0  0  0  0  0  0
   27.2561   -0.3092  107.1669 O   0  0  0  0  0  0  0  0  0  0  0  0
   28.4981   -0.9100  106.7710 C   0  0  2  0  0  0  0  0  0  0  0  0
   25.8779   -0.7065  101.0362 N   0  0  0  0  0  0  0  0  0  0  0  0
   29.2792    0.4370  108.5651 O   0  0  0  0  0  0  0  0  0  0  0  0
   29.4952   -0.7942  107.8409 C   0  0  2  0  0  0  0  0  0  0  0  0
   27.5807   -1.5171  102.6878 C   0  0  0  0  0  0  0  0  0  0  0  0
   26.3285   -0.1253  104.3643 N   0  0  0  0  0  0  0  0  0  0  0  0
   31.8311   -2.5099  108.2957 O   0  0  0  0  0  0  0  0  0  0  0  0
   31.3561   -2.1140  107.0454 C   0  0  0  0  0  0  0  0  0  0  0  0
   31.6913   -5.0432  107.8324 O   0  0  0  0  0  0  0  0  0  0  0  0
   29.5344   -1.5153  103.6447 C   0  0  0  0  0  0  0  0  0  0  0  0
   26.0756   -2.9211  101.5308 O   0  0  0  0  0  0  0  0  0  0  0  0
   26.4698   -1.7728  101.7179 C   0  0  0  0  0  0  0  0  0  0  0  0
   27.4866   -0.7771  103.8575 C   0  0  0  0  0  0  0  0  0  0  0  0
   33.0040   -4.1450  109.8012 O   0  5  0  0  0  0  0  0  0  0  0  0
   33.9047   -3.8149  107.7047 O   0  0  0  0  0  0  0  0  0  0  0  0
  1 17  1  0  0  0  0
  1 20  1  0  0  0  0
  2 15  1  6  0  0  0
  2  3  1  0  0  0  0
  2 11  1  0  0  0  0
  3  5  1  0  0  0  0
  4 16  1  6  0  0  0
  4 21  1  0  0  0  0
  4 22  2  0  0  0  0
  4 14  1  0  0  0  0
  5  1  1  6  0  0  0
  5  8  1  0  0  0  0
  6 17  2  0  0  0  0
  6 12  1  0  0  0  0
  8  7  1  1  0  0  0
  8 11  1  0  0  0  0
  9 19  1  0  0  0  0
 11 10  1  6  0  0  0
 12 20  2  0  0  0  0
 12 19  1  0  0  0  0
 13 20  1  0  0  0  0
 14 15  1  0  0  0  0
 18 19  2  0  0  0  0
M  CHG  1  21  -1
M  END
>  <CHROM.1>
10.30973133,169.03126314,-55.36054188,-174.46849120,-116.73357752,29.62986468
-1.81545146,105.89269651,2.72270124,0.75514389,-2.20717793

>  <Name>
ligand

>  <RI>
0

>  <Rbt.Current_Directory>
/home/itssahil/PROJECTS/Mol_Feturizer/New_Systems/rnas/4XW7

>  <Rbt.Executable>
rbdock ($Id: //depot/dev/client3/rdock/2013.1/src/exe/rbdock.cxx#4 $)

>  <Rbt.Library>
libRbt.so (2013.1, Build901 2013/11/27)

>  <Rbt.Parameter_File>
/export/apps/rDock/src/rDock_2013.1_src/data/scripts/dock_solv.prm

>  <Rbt.Receptor>
prm/pocket_docking_7.prm

>  <SCORE>
-6.64674

>  <SCORE.INTER>
-6.63112

>  <SCORE.INTER.CONST>
1

>  <SCORE.INTER.POLAR>
0

>  <SCORE.INTER.ROT>
5

>  <SCORE.INTER.SOLV>
13.51

>  <SCORE.INTER.VDW>
-15.8574

>  <SCORE.INTER.norm>
-0.301415

>  <SCORE.INTRA>
-0.0156156

>  <SCORE.INTRA.DIHEDRAL>
-0.53426

>  <SCORE.INTRA.DIHEDRAL.0>
2.61549

>  <SCORE.INTRA.POLAR>
0

>  <SCORE.INTRA.POLAR.0>
0

>  <SCORE.INTRA.REPUL>
0

>  <SCORE.INTRA.REPUL.0>
0

>  <SCORE.INTRA.SOLV>
0.967751

>  <SCORE.INTRA.SOLV.lig_0>
-73.766

>  <SCORE.INTRA.VDW>
-0.232361

>  <SCORE.INTRA.VDW.0>
-1.95055

>  <SCORE.INTRA.norm>
-0.000709798

>  <SCORE.RESTR>
0

>  <SCORE.RESTR.CAVITY>
0

>  <SCORE.RESTR.norm>
0

>  <SCORE.SYSTEM>
0

>  <SCORE.SYSTEM.CONST>
0

>  <SCORE.SYSTEM.DIHEDRAL>
0

>  <SCORE.SYSTEM.SOLV>
0

>  <SCORE.SYSTEM.norm>
0

>  <SCORE.heavy>
22

>  <SCORE.norm>
-0.302124

>  <RMSD>
6.815

$$$$
ligand
 OpenBabel11021811513D
libRbt.so/2013.1/901 2013/11/27
 22 23  0  0  0  0  0  0  0  0999 V2000
   25.6141   -5.4618  106.4788 N   0  0  0  0  0  0  0  0  0  0  0  0
   28.1990   -3.8322  104.9384 C   0  0  1  0  0  0  0  0  0  0  0  0
   27.6980   -5.1143  105.4545 O   0  0  0  0  0  0  0  0  0  0  0  0
   30.4585   -1.3169  106.7167 P   0  0  2  0  0  0  0  0  0  0  0  0
   26.2501   -5.1155  105.2820 C   0  0  2  0  0  0  0  0  0  0  0  0
   24.4598   -5.3084  108.3377 N   0  0  0  0  0  0  0  0  0  0  0  0
   24.7778   -3.7833  103.9498 O   0  0  0  0  0  0  0  0  0  0  0  0
   25.8721   -3.7470  104.8779 C   0  0  2  0  0  0  0  0  0  0  0  0
   25.5177   -8.6294  109.4922 N   0  0  0  0  0  0  0  0  0  0  0  0
   27.0875   -3.5591  102.8454 O   0  0  0  0  0  0  0  0  0  0  0  0
   27.0731   -3.1933  104.2429 C   0  0  2  0  0  0  0  0  0  0  0  0
   24.8406   -6.5930  108.1965 C   0  0  0  0  0  0  0  0  0  0  0  0
   26.1644   -7.8874  106.4971 N   0  0  0  0  0  0  0  0  0  0  0  0
   29.7455   -2.2209  105.6591 O   0  0  0  0  0  0  0  0  0  0  0  0
   28.6452   -2.9762  106.0648 C   0  0  0  0  0  0  0  0  0  0  0  0
   29.5013   -0.1249  107.1420 O   0  0  0  0  0  0  0  0  0  0  0  0
   24.9437   -4.6261  107.2728 C   0  0  0  0  0  0  0  0  0  0  0  0
   23.3972   -7.8072  109.6168 O   0  0  0  0  0  0  0  0  0  0  0  0
   24.5280   -7.7053  109.1478 C   0  0  0  0  0  0  0  0  0  0  0  0
   25.5741   -6.7056  107.0243 C   0  0  0  0  0  0  0  0  0  0  0  0
   31.7510   -0.8082  106.2049 O   0  5  0  0  0  0  0  0  0  0  0  0
   30.8868   -2.1060  107.9033 O   0  0  0  0  0  0  0  0  0  0  0  0
  1 17  1  0  0  0  0
  1 20  1  0  0  0  0
  2 15  1  1  0  0  0
  2  3  1  0  0  0  0
  2 11  1  0  0  0  0
  3  5  1  0  0  0  0
  4 16  1  1  0  0  0
  4 21  1  0  0  0  0
  4 22  2  0  0  0  0
  4 14  1  0  0  0  0
  5  1  1  1  0  0  0
  5  8  1  0  0  0  0
  6 17  2  0  0  0  0
  6 12  1  0  0  0  0
  8  7  1  6  0  0  0
  8 11  1  0  0  0  0
  9 19  1  0  0  0  0
 11 10  1  6  0  0  0
 12 20  2  0  0  0  0
 12 19  1  0  0  0  0
 13 20  1  0  0  0  0
 14 15  1  0  0  0  0
 18 19  2  0  0  0  0
M  CHG  1  21  -1
M  END
>  <CHROM.1>
107.12121802,145.44152933,-68.03908361,-175.52248789,-136.86161070,27.23977720
-4.21637396,106.49211771,2.63049367,0.68178888,1.97651297

>  <Name>
ligand

>  <RI>
0

>  <Rbt.Current_Directory>
/home/itssahil/PROJECTS/Mol_Feturizer/New_Systems/rnas/4XW7

>  <Rbt.Executable>
rbdock ($Id: //depot/dev/client3/rdock/2013.1/src/exe/rbdock.cxx#4 $)

>  <Rbt.Library>
libRbt.so (2013.1, Build901 2013/11/27)

>  <Rbt.Parameter_File>
/export/apps/rDock/src/rDock_2013.1_src/data/scripts/dock_solv.prm

>  <Rbt.Receptor>
prm/pocket_docking_2.prm

>  <SCORE>
7.65389

>  <SCORE.INTER>
4.95458

>  <SCORE.INTER.CONST>
1

>  <SCORE.INTER.POLAR>
0

>  <SCORE.INTER.ROT>
5

>  <SCORE.INTER.SOLV>
9.46193

>  <SCORE.INTER.VDW>
-6.78426

>  <SCORE.INTER.norm>
0.225208

>  <SCORE.INTRA>
1.86172

>  <SCORE.INTRA.DIHEDRAL>
2.58283

>  <SCORE.INTRA.DIHEDRAL.0>
2.61549

>  <SCORE.INTRA.POLAR>
0

>  <SCORE.INTRA.POLAR.0>
0

>  <SCORE.INTRA.REPUL>
0

>  <SCORE.INTRA.REPUL.0>
0

>  <SCORE.INTRA.SOLV>
-0.380659

>  <SCORE.INTRA.SOLV.lig_0>
-73.766

>  <SCORE.INTRA.VDW>
0.760635

>  <SCORE.INTRA.VDW.0>
-1.95055

>  <SCORE.INTRA.norm>
0.0846236

>  <SCORE.RESTR>
0.837589

>  <SCORE.RESTR.CAVITY>
0.837589

>  <SCORE.RESTR.norm>
0.0380722

>  <SCORE.SYSTEM>
0

>  <SCORE.SYSTEM.CONST>
0

>  <SCORE.SYSTEM.DIHEDRAL>
0

>  <SCORE.SYSTEM.SOLV>
0

>  <SCORE.SYSTEM.norm>
0

>  <SCORE.heavy>
22

>  <SCORE.norm>
0.347904

>  <RMSD>
6.820

$$$$
ligand
 OpenBabel11021811513D
libRbt.so/2013.1/901 2013/11/27
 22 23  0  0  0  0  0  0  0  0999 V2000
   28.7635   -1.1457  104.6614 N   0  0  0  0  0  0  0  0  0  0  0  0
   30.8974   -0.7367  107.3051 C   0  0  1  0  0  0  0  0  0  0  0  0
   30.4565   -0.2222  106.0004 O   0  0  0  0  0  0  0  0  0  0  0  0
   33.0891   -3.6673  108.4046 P   0  0  2  0  0  0  0  0  0  0  0  0
   29.0325   -0.5113  105.8786 C   0  0  2  0  0  0  0  0  0  0  0  0
   29.0378   -2.0086  102.6634 N   0  0  0  0  0  0  0  0  0  0  0  0
   27.3596   -1.1085  107.4792 O   0  0  0  0  0  0  0  0  0  0  0  0
   28.6838   -1.3973  107.0066 C   0  0  2  0  0  0  0  0  0  0  0  0
   25.9867   -3.9336  102.6749 N   0  0  0  0  0  0  0  0  0  0  0  0
   29.2300    0.0173  108.8353 O   0  0  0  0  0  0  0  0  0  0  0  0
   29.6803   -1.1032  108.0424 C   0  0  2  0  0  0  0  0  0  0  0  0
   27.7476   -2.1811  103.0108 C   0  0  0  0  0  0  0  0  0  0  0  0
   26.3448   -1.6057  105.0150 N   0  0  0  0  0  0  0  0  0  0  0  0
   32.2233   -2.3666  108.3502 O   0  0  0  0  0  0  0  0  0  0  0  0
   31.7483   -1.9363  107.1113 C   0  0  0  0  0  0  0  0  0  0  0  0
   34.3528   -3.5154  107.4571 O   0  0  0  0  0  0  0  0  0  0  0  0
   29.6487   -1.3703  103.6896 C   0  0  0  0  0  0  0  0  0  0  0  0
   26.4738   -2.4265  101.0379 O   0  0  0  0  0  0  0  0  0  0  0  0
   26.6989   -2.8419  102.1718 C   0  0  0  0  0  0  0  0  0  0  0  0
   27.5580   -1.6382  104.2734 C   0  0  0  0  0  0  0  0  0  0  0  0
   32.2902   -4.8601  108.0436 O   0  5  0  0  0  0  0  0  0  0  0  0
   33.5028   -3.9847  109.7983 O   0  0  0  0  0  0  0  0  0  0  0  0
  1 17  1  0  0  0  0
  1 20  1  0  0  0  0
  2 15  1  6  0  0  0
  2  3  1  0  0  0  0
  2 11  1  0  0  0  0
  3  5  1  0  0  0  0
  4 16  1  6  0  0  0
  4 21  1  0  0  0  0
  4 22  2  0  0  0  0
  4 14  1  0  0  0  0
  5  1  1  6  0  0  0
  5  8  1  0  0  0  0
  6 17  2  0  0  0  0
  6 12  1  0  0  0  0
  8  7  1  1  0  0  0
  8 11  1  0  0  0  0
  9 19  1  0  0  0  0
 11 10  1  1  0  0  0
 12 20  2  0  0  0  0
 12 19  1  0  0  0  0
 13 20  1  0  0  0  0
 14 15  1  0  0  0  0
 18 19  2  0  0  0  0
M  CHG  1  21  -1
M  END
>  <CHROM.1>
-4.91380775,176.53210654,56.95516626,176.94483459,123.61605477,29.85949722
-2.13659356,106.10019417,2.61654486,0.59237434,-2.15319555

>  <Name>
ligand

>  <RI>
0

>  <Rbt.Current_Directory>
/home/itssahil/PROJECTS/Mol_Feturizer/New_Systems/rnas/4XW7

>  <Rbt.Executable>
rbdock ($Id: //depot/dev/client3/rdock/2013.1/src/exe/rbdock.cxx#4 $)

>  <Rbt.Library>
libRbt.so (2013.1, Build901 2013/11/27)

>  <Rbt.Parameter_File>
/export/apps/rDock/src/rDock_2013.1_src/data/scripts/dock_solv.prm

>  <Rbt.Receptor>
prm/pocket_docking_4.prm

>  <SCORE>
-6.82073

>  <SCORE.INTER>
-7.34631

>  <SCORE.INTER.CONST>
1

>  <SCORE.INTER.POLAR>
0

>  <SCORE.INTER.ROT>
5

>  <SCORE.INTER.SOLV>
11.7011

>  <SCORE.INTER.VDW>
-15.7313

>  <SCORE.INTER.norm>
-0.333923

>  <SCORE.INTRA>
0.518617

>  <SCORE.INTRA.DIHEDRAL>
-1.01936

>  <SCORE.INTRA.DIHEDRAL.0>
2.61549

>  <SCORE.INTRA.POLAR>
0

>  <SCORE.INTRA.POLAR.0>
0

>  <SCORE.INTRA.REPUL>
0

>  <SCORE.INTRA.REPUL.0>
0

>  <SCORE.INTRA.SOLV>
1.64391

>  <SCORE.INTRA.SOLV.lig_0>
-73.766

>  <SCORE.INTRA.VDW>
0.206343

>  <SCORE.INTRA.VDW.0>
-1.95055

>  <SCORE.INTRA.norm>
0.0235735

>  <SCORE.RESTR>
0.00696001

>  <SCORE.RESTR.CAVITY>
0.00696001

>  <SCORE.RESTR.norm>
0.000316364

>  <SCORE.SYSTEM>
0

>  <SCORE.SYSTEM.CONST>
0

>  <SCORE.SYSTEM.DIHEDRAL>
0

>  <SCORE.SYSTEM.SOLV>
0

>  <SCORE.SYSTEM.norm>
0

>  <SCORE.heavy>
22

>  <SCORE.norm>
-0.310033

>  <RMSD>
6.827

$$$$
ligand
 OpenBabel11021811513D
libRbt.so/2013.1/901 2013/11/27
 22 23  0  0  0  0  0  0  0  0999 V2000
   29.1294    0.3409  108.6022 N   0  0  0  0  0  0  0  0  0  0  0  0
   30.3156   -2.2333  106.6850 C   0  0  1  0  0  0  0  0  0  0  0  0
   29.4352   -1.8426  107.7957 O   0  0  0  0  0  0  0  0  0  0  0  0
   33.3039   -3.4055  108.7574 P   0  0  2  0  0  0  0  0  0  0  0  0
   28.9369   -0.5037  107.5040 C   0  0  2  0  0  0  0  0  0  0  0  0
   30.1127    1.5573  110.1402 N   0  0  0  0  0  0  0  0  0  0  0  0
   28.8659    0.7955  105.4980 O   0  0  0  0  0  0  0  0  0  0  0  0
   29.7008   -0.0134  106.3400 C   0  0  2  0  0  0  0  0  0  0  0  0
   27.3937    3.6028  111.0761 N   0  0  0  0  0  0  0  0  0  0  0  0
   29.0937   -1.6441  104.7228 O   0  0  0  0  0  0  0  0  0  0  0  0
   30.1338   -1.2237  105.6329 C   0  0  2  0  0  0  0  0  0  0  0  0
   28.7824    1.6535  110.3300 C   0  0  0  0  0  0  0  0  0  0  0  0
   26.7441    0.7100  109.2028 N   0  0  0  0  0  0  0  0  0  0  0  0
   31.9074   -3.2613  108.0694 O   0  0  0  0  0  0  0  0  0  0  0  0
   31.7276   -2.2371  107.1396 C   0  0  0  0  0  0  0  0  0  0  0  0
   33.6605   -2.0725  109.5410 O   0  0  0  0  0  0  0  0  0  0  0  0
   30.3092    0.7464  109.0735 C   0  0  0  0  0  0  0  0  0  0  0  0
   28.1971    2.0882  112.5758 O   0  0  0  0  0  0  0  0  0  0  0  0
   28.1097    2.4489  111.4048 C   0  0  0  0  0  0  0  0  0  0  0  0
   28.1460    0.8870  109.3645 C   0  0  0  0  0  0  0  0  0  0  0  0
   34.3557   -3.7445  107.7726 O   0  5  0  0  0  0  0  0  0  0  0  0
   33.3413   -4.5838  109.6653 O   0  0  0  0  0  0  0  0  0  0  0  0
  1 17  1  0  0  0  0
  1 20  1  0  0  0  0
  2 15  1  1  0  0  0
  2  3  1  0  0  0  0
  2 11  1  0  0  0  0
  3  5  1  0  0  0  0
  4 16  1  1  0  0  0
  4 21  1  0  0  0  0
  4 22  2  0  0  0  0
  4 14  1  0  0  0  0
  5  1  1  1  0  0  0
  5  8  1  0  0  0  0
  6 17  2  0  0  0  0
  6 12  1  0  0  0  0
  8  7  1  6  0  0  0
  8 11  1  0  0  0  0
  9 19  1  0  0  0  0
 11 10  1  6  0  0  0
 12 20  2  0  0  0  0
 12 19  1  0  0  0  0
 13 20  1  0  0  0  0
 14 15  1  0  0  0  0
 18 19  2  0  0  0  0
M  CHG  1  21  -1
M  END
>  <CHROM.1>
66.94434311,67.30439246,59.40353048,-176.33685947,109.96412762,30.32745948
-0.79280534,108.48046703,2.58691992,-0.70245147,1.18761179

>  <Name>
ligand

>  <RI>
0

>  <Rbt.Current_Directory>
/home/itssahil/PROJECTS/Mol_Feturizer/New_Systems/rnas/4XW7

>  <Rbt.Executable>
rbdock ($Id: //depot/dev/client3/rdock/2013.1/src/exe/rbdock.cxx#4 $)

>  <Rbt.Library>
libRbt.so (2013.1, Build901 2013/11/27)

>  <Rbt.Parameter_File>
/export/apps/rDock/src/rDock_2013.1_src/data/scripts/dock_solv.prm

>  <Rbt.Receptor>
prm/pocket_docking_8.prm

>  <SCORE>
-7.80452

>  <SCORE.INTER>
-6.64493

>  <SCORE.INTER.CONST>
1

>  <SCORE.INTER.POLAR>
0

>  <SCORE.INTER.ROT>
5

>  <SCORE.INTER.SOLV>
15.8059

>  <SCORE.INTER.VDW>
-16.6319

>  <SCORE.INTER.norm>
-0.302042

>  <SCORE.INTRA>
-1.15959

>  <SCORE.INTRA.DIHEDRAL>
-0.762123

>  <SCORE.INTRA.DIHEDRAL.0>
2.61549

>  <SCORE.INTRA.POLAR>
0

>  <SCORE.INTRA.POLAR.0>
0

>  <SCORE.INTRA.REPUL>
0

>  <SCORE.INTRA.REPUL.0>
0

>  <SCORE.INTRA.SOLV>
-0.947667

>  <SCORE.INTRA.SOLV.lig_0>
-73.766

>  <SCORE.INTRA.VDW>
-0.304695

>  <SCORE.INTRA.VDW.0>
-1.95055

>  <SCORE.INTRA.norm>
-0.0527087

>  <SCORE.RESTR>
0

>  <SCORE.RESTR.CAVITY>
0

>  <SCORE.RESTR.norm>
0

>  <SCORE.SYSTEM>
0

>  <SCORE.SYSTEM.CONST>
0

>  <SCORE.SYSTEM.DIHEDRAL>
0

>  <SCORE.SYSTEM.SOLV>
0

>  <SCORE.SYSTEM.norm>
0

>  <SCORE.heavy>
22

>  <SCORE.norm>
-0.354751

>  <RMSD>
6.831

$$$$
ligand
 OpenBabel11021811513D
libRbt.so/2013.1/901 2013/11/27
 22 23  0  0  0  0  0  0  0  0999 V2000
   28.6413   -0.8722  104.1711 N   0  0  0  0  0  0  0  0  0  0  0  0
   30.4475   -0.6321  107.0676 C   0  0  1  0  0  0  0  0  0  0  0  0
   30.1651   -0.0405  105.7517 O   0  0  0  0  0  0  0  0  0  0  0  0
   32.6144   -3.5441  108.2569 P   0  0  2  0  0  0  0  0  0  0  0  0
   28.7652   -0.3104  105.4461 C   0  0  2  0  0  0  0  0  0  0  0  0
   29.1172   -1.9501  102.3208 N   0  0  0  0  0  0  0  0  0  0  0  0
   26.9135   -0.9839  106.8006 O   0  0  0  0  0  0  0  0  0  0  0  0
   28.2839   -1.2563  106.4721 C   0  0  2  0  0  0  0  0  0  0  0  0
   25.7091   -2.3447  101.2236 N   0  0  0  0  0  0  0  0  0  0  0  0
   28.6117    0.0472  108.4309 O   0  0  0  0  0  0  0  0  0  0  0  0
   29.1511   -1.0300  107.6336 C   0  0  2  0  0  0  0  0  0  0  0  0
   27.8499   -1.5039  102.2209 C   0  0  0  0  0  0  0  0  0  0  0  0
   26.2988   -0.1853  103.6944 N   0  0  0  0  0  0  0  0  0  0  0  0
   31.7817   -2.2245  108.1592 O   0  0  0  0  0  0  0  0  0  0  0  0
   31.3137   -1.8258  106.9071 C   0  0  0  0  0  0  0  0  0  0  0  0
   33.9334   -3.4168  107.3840 O   0  0  0  0  0  0  0  0  0  0  0  0
   29.5895   -1.5532  103.5263 C   0  0  0  0  0  0  0  0  0  0  0  0
   27.2885   -1.3292   99.9341 O   0  0  0  0  0  0  0  0  0  0  0  0
   26.9419   -1.7107  101.0492 C   0  0  0  0  0  0  0  0  0  0  0  0
   27.5346   -0.8176  103.3847 C   0  0  0  0  0  0  0  0  0  0  0  0
   31.8118   -4.7178  107.8451 O   0  5  0  0  0  0  0  0  0  0  0  0
   32.9405   -3.8753  109.6705 O   0  0  0  0  0  0  0  0  0  0  0  0
  1 17  1  0  0  0  0
  1 20  1  0  0  0  0
  2 15  1  6  0  0  0
  2  3  1  0  0  0  0
  2 11  1  0  0  0  0
  3  5  1  0  0  0  0
  4 16  1  6  0  0  0
  4 21  1  0  0  0  0
  4 22  2  0  0  0  0
  4 14  1  0  0  0  0
  5  1  1  6  0  0  0
  5  8  1  0  0  0  0
  6 17  2  0  0  0  0
  6 12  1  0  0  0  0
  8  7  1  1  0  0  0
  8 11  1  0  0  0  0
  9 19  1  0  0  0  0
 11 10  1  1  0  0  0
 12 20  2  0  0  0  0
 12 19  1  0  0  0  0
 13 20  1  0  0  0  0
 14 15  1  0  0  0  0
 18 19  2  0  0  0  0
M  CHG  1  21  -1
M  END
>  <CHROM.1>
24.77727164,168.76607949,61.07035108,174.58972271,122.57474319,29.60644302
-1.77466865,105.60511083,2.43738758,0.62094315,-1.88517326

>  <Name>
ligand

>  <RI>
0

>  <Rbt.Current_Directory>
/home/itssahil/PROJECTS/Mol_Feturizer/New_Systems/rnas/4XW7

>  <Rbt.Executable>
rbdock ($Id: //depot/dev/client3/rdock/2013.1/src/exe/rbdock.cxx#4 $)

>  <Rbt.Library>
libRbt.so (2013.1, Build901 2013/11/27)

>  <Rbt.Parameter_File>
/export/apps/rDock/src/rDock_2013.1_src/data/scripts/dock_solv.prm

>  <Rbt.Receptor>
prm/pocket_docking_6.prm

>  <SCORE>
-7.56107

>  <SCORE.INTER>
-7.1928

>  <SCORE.INTER.CONST>
1

>  <SCORE.INTER.POLAR>
0

>  <SCORE.INTER.ROT>
5

>  <SCORE.INTER.SOLV>
12.3626

>  <SCORE.INTER.VDW>
-15.8494

>  <SCORE.INTER.norm>
-0.326946

>  <SCORE.INTRA>
-0.368272

>  <SCORE.INTRA.DIHEDRAL>
-0.560018

>  <SCORE.INTRA.DIHEDRAL.0>
2.61549

>  <SCORE.INTRA.POLAR>
0

>  <SCORE.INTRA.POLAR.0>
0

>  <SCORE.INTRA.REPUL>
0

>  <SCORE.INTRA.REPUL.0>
0

>  <SCORE.INTRA.SOLV>
0.606253

>  <SCORE.INTRA.SOLV.lig_0>
-73.766

>  <SCORE.INTRA.VDW>
-0.39139

>  <SCORE.INTRA.VDW.0>
-1.95055

>  <SCORE.INTRA.norm>
-0.0167396

>  <SCORE.RESTR>
0

>  <SCORE.RESTR.CAVITY>
0

>  <SCORE.RESTR.norm>
0

>  <SCORE.SYSTEM>
0

>  <SCORE.SYSTEM.CONST>
0

>  <SCORE.SYSTEM.DIHEDRAL>
0

>  <SCORE.SYSTEM.SOLV>
0

>  <SCORE.SYSTEM.norm>
0

>  <SCORE.heavy>
22

>  <SCORE.norm>
-0.343685

>  <RMSD>
6.845

$$$$
ligand
 OpenBabel11021811513D
libRbt.so/2013.1/901 2013/11/27
 22 23  0  0  0  0  0  0  0  0999 V2000
   33.2655   -5.4062  109.4676 N   0  0  0  0  0  0  0  0  0  0  0  0
   30.4479   -4.4073  107.8023 C   0  0  1  0  0  0  0  0  0  0  0  0
   31.5908   -5.3318  107.8239 O   0  0  0  0  0  0  0  0  0  0  0  0
   30.0096   -0.8351  106.5163 P   0  0  2  0  0  0  0  0  0  0  0  0
   31.9027   -5.6036  109.2221 C   0  0  2  0  0  0  0  0  0  0  0  0
   35.2497   -4.4736  109.5389 N   0  0  0  0  0  0  0  0  0  0  0  0
   30.6707   -5.2860  111.2465 O   0  0  0  0  0  0  0  0  0  0  0  0
   31.0957   -4.6637  110.0249 C   0  0  2  0  0  0  0  0  0  0  0  0
   37.7486   -5.5070  110.8086 N   0  0  0  0  0  0  0  0  0  0  0  0
   28.9092   -5.3278  109.3757 O   0  0  0  0  0  0  0  0  0  0  0  0
   29.9418   -4.3366  109.1800 C   0  0  2  0  0  0  0  0  0  0  0  0
   35.3467   -5.6881  110.1138 C   0  0  0  0  0  0  0  0  0  0  0  0
   33.7569   -7.5796  110.5728 N   0  0  0  0  0  0  0  0  0  0  0  0
   29.7816   -2.2970  107.0213 O   0  0  0  0  0  0  0  0  0  0  0  0
   30.8961   -3.0636  107.3617 C   0  0  0  0  0  0  0  0  0  0  0  0
   30.7193    0.0227  107.6470 O   0  0  0  0  0  0  0  0  0  0  0  0
   33.9631   -4.3157  109.1470 C   0  0  0  0  0  0  0  0  0  0  0  0
   36.5980   -7.4579  111.0504 O   0  0  0  0  0  0  0  0  0  0  0  0
   36.5930   -6.2834  110.6904 C   0  0  0  0  0  0  0  0  0  0  0  0
   34.0982   -6.2918  110.0747 C   0  0  0  0  0  0  0  0  0  0  0  0
   28.7378   -0.2094  106.0895 O   0  5  0  0  0  0  0  0  0  0  0  0
   30.8006   -0.8145  105.2561 O   0  0  0  0  0  0  0  0  0  0  0  0
  1 17  1  0  0  0  0
  1 20  1  0  0  0  0
  2 15  1  1  0  0  0
  2  3  1  0  0  0  0
  2 11  1  0  0  0  0
  3  5  1  0  0  0  0
  4 16  1  1  0  0  0
  4 21  1  0  0  0  0
  4 22  2  0  0  0  0
  4 14  1  0  0  0  0
  5  1  1  6  0  0  0
  5  8  1  0  0  0  0
  6 17  2  0  0  0  0
  6 12  1  0  0  0  0
  8  7  1  1  0  0  0
  8 11  1  0  0  0  0
  9 19  1  0  0  0  0
 11 10  1  6  0  0  0
 12 20  2  0  0  0  0
 12 19  1  0  0  0  0
 13 20  1  0  0  0  0
 14 15  1  0  0  0  0
 18 19  2  0  0  0  0
M  CHG  1  21  -1
M  END
>  <CHROM.1>
51.35834078,165.16213058,-61.35453003,-179.65380094,7.86283193,32.13449489
-4.06035421,108.72370780,0.84183736,0.06396250,2.55038550

>  <Name>
ligand

>  <RI>
0

>  <Rbt.Current_Directory>
/home/itssahil/PROJECTS/Mol_Feturizer/New_Systems/rnas/4XW7

>  <Rbt.Executable>
rbdock ($Id: //depot/dev/client3/rdock/2013.1/src/exe/rbdock.cxx#4 $)

>  <Rbt.Library>
libRbt.so (2013.1, Build901 2013/11/27)

>  <Rbt.Parameter_File>
/export/apps/rDock/src/rDock_2013.1_src/data/scripts/dock_solv.prm

>  <Rbt.Receptor>
prm/pocket_docking_8.prm

>  <SCORE>
-7.85548

>  <SCORE.INTER>
-7.24631

>  <SCORE.INTER.CONST>
1

>  <SCORE.INTER.POLAR>
0

>  <SCORE.INTER.ROT>
5

>  <SCORE.INTER.SOLV>
17.7533

>  <SCORE.INTER.VDW>
-17.682

>  <SCORE.INTER.norm>
-0.329378

>  <SCORE.INTRA>
-0.60917

>  <SCORE.INTRA.DIHEDRAL>
-0.328697

>  <SCORE.INTRA.DIHEDRAL.0>
2.61549

>  <SCORE.INTRA.POLAR>
0

>  <SCORE.INTRA.POLAR.0>
0

>  <SCORE.INTRA.REPUL>
0

>  <SCORE.INTRA.REPUL.0>
0

>  <SCORE.INTRA.SOLV>
-0.402956

>  <SCORE.INTRA.SOLV.lig_0>
-73.766

>  <SCORE.INTRA.VDW>
-0.243344

>  <SCORE.INTRA.VDW.0>
-1.95055

>  <SCORE.INTRA.norm>
-0.0276896

>  <SCORE.RESTR>
0

>  <SCORE.RESTR.CAVITY>
0

>  <SCORE.RESTR.norm>
0

>  <SCORE.SYSTEM>
0

>  <SCORE.SYSTEM.CONST>
0

>  <SCORE.SYSTEM.DIHEDRAL>
0

>  <SCORE.SYSTEM.SOLV>
0

>  <SCORE.SYSTEM.norm>
0

>  <SCORE.heavy>
22

>  <SCORE.norm>
-0.357067

>  <RMSD>
6.873

$$$$
ligand
 OpenBabel11021811513D
libRbt.so/2013.1/901 2013/11/27
 22 23  0  0  0  0  0  0  0  0999 V2000
   32.7936   -4.1644  108.2544 N   0  0  0  0  0  0  0  0  0  0  0  0
   34.8515   -6.5248  109.6341 C   0  0  1  0  0  0  0  0  0  0  0  0
   34.4555   -5.8156  108.4087 O   0  0  0  0  0  0  0  0  0  0  0  0
   31.3402   -7.8700  110.3175 P   0  0  2  0  0  0  0  0  0  0  0  0
   34.0450   -4.4719  108.7985 C   0  0  2  0  0  0  0  0  0  0  0  0
   30.6999   -4.3473  107.6263 N   0  0  0  0  0  0  0  0  0  0  0  0
   34.3923   -3.1854  110.7838 O   0  0  0  0  0  0  0  0  0  0  0  0
   33.9795   -4.4617  110.2732 C   0  0  2  0  0  0  0  0  0  0  0  0
   28.9921   -2.3539  106.2078 N   0  0  0  0  0  0  0  0  0  0  0  0
   36.2396   -4.9720  110.7971 O   0  0  0  0  0  0  0  0  0  0  0  0
   34.9049   -5.5163  110.7016 C   0  0  2  0  0  0  0  0  0  0  0  0
   31.1248   -3.1158  107.2830 C   0  0  0  0  0  0  0  0  0  0  0  0
   33.2819   -1.8449  107.5009 N   0  0  0  0  0  0  0  0  0  0  0  0
   32.5756   -6.9672  109.9968 O   0  0  0  0  0  0  0  0  0  0  0  0
   33.8394   -7.5568  109.9676 C   0  0  0  0  0  0  0  0  0  0  0  0
   31.4751   -8.4709  111.7799 O   0  0  0  0  0  0  0  0  0  0  0  0
   31.7385   -4.9793  108.2228 C   0  0  0  0  0  0  0  0  0  0  0  0
   30.7933   -0.9679  106.3600 O   0  0  0  0  0  0  0  0  0  0  0  0
   30.3049   -2.0707  106.5932 C   0  0  0  0  0  0  0  0  0  0  0  0
   32.4499   -2.9855  107.6729 C   0  0  0  0  0  0  0  0  0  0  0  0
   31.1832   -8.9436  109.3106 O   0  5  0  0  0  0  0  0  0  0  0  0
   30.0654   -7.1175  110.1659 O   0  0  0  0  0  0  0  0  0  0  0  0
  1 17  1  0  0  0  0
  1 20  1  0  0  0  0
  2 15  1  1  0  0  0
  2  3  1  0  0  0  0
  2 11  1  0  0  0  0
  3  5  1  0  0  0  0
  4 16  1  1  0  0  0
  4 21  1  0  0  0  0
  4 22  2  0  0  0  0
  4 14  1  0  0  0  0
  5  1  1  6  0  0  0
  5  8  1  0  0  0  0
  6 17  2  0  0  0  0
  6 12  1  0  0  0  0
  8  7  1  1  0  0  0
  8 11  1  0  0  0  0
  9 19  1  0  0  0  0
 11 10  1  6  0  0  0
 12 20  2  0  0  0  0
 12 19  1  0  0  0  0
 13 20  1  0  0  0  0
 14 15  1  0  0  0  0
 18 19  2  0  0  0  0
M  CHG  1  21  -1
M  END
>  <CHROM.1>
43.62322086,-52.40620665,62.64416931,179.48471644,-2.27307582,32.47305055
-5.17052091,109.07227744,-1.82821147,0.35609358,2.64717358

>  <Name>
ligand

>  <RI>
0

>  <Rbt.Current_Directory>
/home/itssahil/PROJECTS/Mol_Feturizer/New_Systems/rnas/4XW7

>  <Rbt.Executable>
rbdock ($Id: //depot/dev/client3/rdock/2013.1/src/exe/rbdock.cxx#4 $)

>  <Rbt.Library>
libRbt.so (2013.1, Build901 2013/11/27)

>  <Rbt.Parameter_File>
/export/apps/rDock/src/rDock_2013.1_src/data/scripts/dock_solv.prm

>  <Rbt.Receptor>
prm/pocket_docking_8.prm

>  <SCORE>
-8.13423

>  <SCORE.INTER>
-7.31351

>  <SCORE.INTER.CONST>
1

>  <SCORE.INTER.POLAR>
0

>  <SCORE.INTER.ROT>
5

>  <SCORE.INTER.SOLV>
14.9525

>  <SCORE.INTER.VDW>
-16.7932

>  <SCORE.INTER.norm>
-0.332432

>  <SCORE.INTRA>
-0.820714

>  <SCORE.INTRA.DIHEDRAL>
-0.911111

>  <SCORE.INTRA.DIHEDRAL.0>
2.61549

>  <SCORE.INTRA.POLAR>
0

>  <SCORE.INTRA.POLAR.0>
0

>  <SCORE.INTRA.REPUL>
0

>  <SCORE.INTRA.REPUL.0>
0

>  <SCORE.INTRA.SOLV>
0.885138

>  <SCORE.INTRA.SOLV.lig_0>
-73.766

>  <SCORE.INTRA.VDW>
-0.807728

>  <SCORE.INTRA.VDW.0>
-1.95055

>  <SCORE.INTRA.norm>
-0.0373052

>  <SCORE.RESTR>
0

>  <SCORE.RESTR.CAVITY>
0

>  <SCORE.RESTR.norm>
0

>  <SCORE.SYSTEM>
0

>  <SCORE.SYSTEM.CONST>
0

>  <SCORE.SYSTEM.DIHEDRAL>
0

>  <SCORE.SYSTEM.SOLV>
0

>  <SCORE.SYSTEM.norm>
0

>  <SCORE.heavy>
22

>  <SCORE.norm>
-0.369738

>  <RMSD>
6.883

$$$$
ligand
 OpenBabel11021811513D
libRbt.so/2013.1/901 2013/11/27
 22 23  0  0  0  0  0  0  0  0999 V2000
   28.7697   -0.9240  104.4727 N   0  0  0  0  0  0  0  0  0  0  0  0
   31.0361   -0.7221  107.0286 C   0  0  1  0  0  0  0  0  0  0  0  0
   30.6764   -0.2704  105.6766 O   0  0  0  0  0  0  0  0  0  0  0  0
   32.7891   -3.8300  108.3909 P   0  0  2  0  0  0  0  0  0  0  0  0
   29.2206   -0.2355  105.6037 C   0  0  2  0  0  0  0  0  0  0  0  0
   28.7673   -2.0706  102.6027 N   0  0  0  0  0  0  0  0  0  0  0  0
   27.5154   -0.2466  107.2798 O   0  0  0  0  0  0  0  0  0  0  0  0
   28.7208   -0.8842  106.8319 C   0  0  2  0  0  0  0  0  0  0  0  0
   25.2708   -1.4105  101.8630 N   0  0  0  0  0  0  0  0  0  0  0  0
   29.6413    0.5634  108.4752 O   0  0  0  0  0  0  0  0  0  0  0  0
   29.7953   -0.7128  107.8159 C   0  0  2  0  0  0  0  0  0  0  0  0
   27.4844   -1.8548  102.9529 C   0  0  0  0  0  0  0  0  0  0  0  0
   26.3229   -0.6870  104.8510 N   0  0  0  0  0  0  0  0  0  0  0  0
   32.0427   -2.4651  108.2353 O   0  0  0  0  0  0  0  0  0  0  0  0
   31.5838   -2.0995  106.9698 C   0  0  0  0  0  0  0  0  0  0  0  0
   34.1056   -3.8300  107.5051 O   0  0  0  0  0  0  0  0  0  0  0  0
   29.5451   -1.4917  103.5480 C   0  0  0  0  0  0  0  0  0  0  0  0
   26.1847   -3.4970  101.8624 O   0  0  0  0  0  0  0  0  0  0  0  0
   26.2822   -2.3172  102.1905 C   0  0  0  0  0  0  0  0  0  0  0  0
   27.4696   -1.1281  104.1346 C   0  0  0  0  0  0  0  0  0  0  0  0
   31.9086   -4.9670  108.0402 O   0  5  0  0  0  0  0  0  0  0  0  0
   33.1058   -4.1147  109.8166 O   0  0  0  0  0  0  0  0  0  0  0  0
  1 17  1  0  0  0  0
  1 20  1  0  0  0  0
  2 15  1  6  0  0  0
  2  3  1  0  0  0  0
  2 11  1  0  0  0  0
  3  5  1  0  0  0  0
  4 16  1  6  0  0  0
  4 21  1  0  0  0  0
  4 22  2  0  0  0  0
  4 14  1  0  0  0  0
  5  1  1  6  0  0  0
  5  8  1  0  0  0  0
  6 17  2  0  0  0  0
  6 12  1  0  0  0  0
  8  7  1  1  0  0  0
  8 11  1  0  0  0  0
  9 19  1  0  0  0  0
 11 10  1  6  0  0  0
 12 20  2  0  0  0  0
 12 19  1  0  0  0  0
 13 20  1  0  0  0  0
 14 15  1  0  0  0  0
 18 19  2  0  0  0  0
M  CHG  1  21  -1
M  END
>  <CHROM.1>
-2.62161278,174.16762371,61.41315263,-174.30000687,-128.78601145,29.73430515
-1.93066890,105.98600126,2.81892523,0.71444382,-2.36676421

>  <Name>
ligand

>  <RI>
0

>  <Rbt.Current_Directory>
/home/itssahil/PROJECTS/Mol_Feturizer/New_Systems/rnas/4XW7

>  <Rbt.Executable>
rbdock ($Id: //depot/dev/client3/rdock/2013.1/src/exe/rbdock.cxx#4 $)

>  <Rbt.Library>
libRbt.so (2013.1, Build901 2013/11/27)

>  <Rbt.Parameter_File>
/export/apps/rDock/src/rDock_2013.1_src/data/scripts/dock_solv.prm

>  <Rbt.Receptor>
prm/pocket_docking_4.prm

>  <SCORE>
-6.98199

>  <SCORE.INTER>
-7.4641

>  <SCORE.INTER.CONST>
1

>  <SCORE.INTER.POLAR>
0

>  <SCORE.INTER.ROT>
5

>  <SCORE.INTER.SOLV>
12.4312

>  <SCORE.INTER.VDW>
-16.0531

>  <SCORE.INTER.norm>
-0.339277

>  <SCORE.INTRA>
0.482102

>  <SCORE.INTRA.DIHEDRAL>
-0.774536

>  <SCORE.INTRA.DIHEDRAL.0>
2.61549

>  <SCORE.INTRA.POLAR>
0

>  <SCORE.INTRA.POLAR.0>
0

>  <SCORE.INTRA.REPUL>
0

>  <SCORE.INTRA.REPUL.0>
0

>  <SCORE.INTRA.SOLV>
1.50467

>  <SCORE.INTRA.SOLV.lig_0>
-73.766

>  <SCORE.INTRA.VDW>
0.117037

>  <SCORE.INTRA.VDW.0>
-1.95055

>  <SCORE.INTRA.norm>
0.0219137

>  <SCORE.RESTR>
0

>  <SCORE.RESTR.CAVITY>
0

>  <SCORE.RESTR.norm>
0

>  <SCORE.SYSTEM>
0

>  <SCORE.SYSTEM.CONST>
0

>  <SCORE.SYSTEM.DIHEDRAL>
0

>  <SCORE.SYSTEM.SOLV>
0

>  <SCORE.SYSTEM.norm>
0

>  <SCORE.heavy>
22

>  <SCORE.norm>
-0.317363

>  <RMSD>
6.888

$$$$
ligand
 OpenBabel11021811513D
libRbt.so/2013.1/901 2013/11/27
 22 23  0  0  0  0  0  0  0  0999 V2000
   28.4870   -3.9783  102.8638 N   0  0  0  0  0  0  0  0  0  0  0  0
   28.7394   -6.9637  101.2105 C   0  0  1  0  0  0  0  0  0  0  0  0
   29.2394   -6.1338  102.3162 O   0  0  0  0  0  0  0  0  0  0  0  0
   31.6887   -5.7004  100.2969 P   0  0  2  0  0  0  0  0  0  0  0  0
   28.1222   -5.3268  102.7925 C   0  0  2  0  0  0  0  0  0  0  0  0
   29.3702   -2.0356  102.3563 N   0  0  0  0  0  0  0  0  0  0  0  0
   25.7563   -5.5011  102.4936 O   0  0  0  0  0  0  0  0  0  0  0  0
   27.0250   -5.5106  101.8223 C   0  0  2  0  0  0  0  0  0  0  0  0
   27.4402    0.1193  104.3019 N   0  0  0  0  0  0  0  0  0  0  0  0
   26.6787   -7.8525  102.0192 O   0  0  0  0  0  0  0  0  0  0  0  0
   27.2772   -6.8183  101.2072 C   0  0  2  0  0  0  0  0  0  0  0  0
   28.7142   -1.8950  103.5245 C   0  0  0  0  0  0  0  0  0  0  0  0
   27.3741   -3.4113  105.0147 N   0  0  0  0  0  0  0  0  0  0  0  0
   30.6540   -6.7897   99.8646 O   0  0  0  0  0  0  0  0  0  0  0  0
   29.2960   -6.4768   99.9245 C   0  0  0  0  0  0  0  0  0  0  0  0
   31.6603   -5.5236  101.8736 O   0  0  0  0  0  0  0  0  0  0  0  0
   29.2205   -3.3229  101.9634 C   0  0  0  0  0  0  0  0  0  0  0  0
   29.5776   -0.2592  104.9921 O   0  0  0  0  0  0  0  0  0  0  0  0
   28.6170   -0.6336  104.3243 C   0  0  0  0  0  0  0  0  0  0  0  0
   28.1508   -3.1176  103.8600 C   0  0  0  0  0  0  0  0  0  0  0  0
   31.4338   -4.4142   99.6099 O   0  5  0  0  0  0  0  0  0  0  0  0
   33.0586   -6.0361   99.8227 O   0  0  0  0  0  0  0  0  0  0  0  0
  1 17  1  0  0  0  0
  1 20  1  0  0  0  0
  2 15  1  6  0  0  0
  2  3  1  0  0  0  0
  2 11  1  0  0  0  0
  3  5  1  0  0  0  0
  4 16  1  1  0  0  0
  4 21  1  0  0  0  0
  4 22  2  0  0  0  0
  4 14  1  0  0  0  0
  5  1  1  6  0  0  0
  5  8  1  0  0  0  0
  6 17  2  0  0  0  0
  6 12  1  0  0  0  0
  8  7  1  1  0  0  0
  8 11  1  0  0  0  0
  9 19  1  0  0  0  0
 11 10  1  1  0  0  0
 12 20  2  0  0  0  0
 12 19  1  0  0  0  0
 13 20  1  0  0  0  0
 14 15  1  0  0  0  0
 18 19  2  0  0  0  0
M  CHG  1  21  -1
M  END
>  <CHROM.1>
41.02146801,71.38200676,72.59932120,-95.57664421,103.21793539,29.17985422
-4.57596677,102.05194884,1.98224814,0.40744657,0.49518966

>  <Name>
ligand

>  <RI>
0

>  <Rbt.Current_Directory>
/home/itssahil/PROJECTS/Mol_Feturizer/New_Systems/rnas/4XW7

>  <Rbt.Executable>
rbdock ($Id: //depot/dev/client3/rdock/2013.1/src/exe/rbdock.cxx#4 $)

>  <Rbt.Library>
libRbt.so (2013.1, Build901 2013/11/27)

>  <Rbt.Parameter_File>
/export/apps/rDock/src/rDock_2013.1_src/data/scripts/dock_solv.prm

>  <Rbt.Receptor>
prm/pocket_docking_8.prm

>  <SCORE>
-4.35093

>  <SCORE.INTER>
-6.0321

>  <SCORE.INTER.CONST>
1

>  <SCORE.INTER.POLAR>
0

>  <SCORE.INTER.ROT>
5

>  <SCORE.INTER.SOLV>
11.1275

>  <SCORE.INTER.VDW>
-14.6639

>  <SCORE.INTER.norm>
-0.274186

>  <SCORE.INTRA>
1.68118

>  <SCORE.INTRA.DIHEDRAL>
4.50067

>  <SCORE.INTRA.DIHEDRAL.0>
2.61549

>  <SCORE.INTRA.POLAR>
0

>  <SCORE.INTRA.POLAR.0>
0

>  <SCORE.INTRA.REPUL>
0

>  <SCORE.INTRA.REPUL.0>
0

>  <SCORE.INTRA.SOLV>
1.4029

>  <SCORE.INTRA.SOLV.lig_0>
-73.766

>  <SCORE.INTRA.VDW>
-1.27061

>  <SCORE.INTRA.VDW.0>
-1.95055

>  <SCORE.INTRA.norm>
0.0764171

>  <SCORE.RESTR>
0

>  <SCORE.RESTR.CAVITY>
0

>  <SCORE.RESTR.norm>
0

>  <SCORE.SYSTEM>
0

>  <SCORE.SYSTEM.CONST>
0

>  <SCORE.SYSTEM.DIHEDRAL>
0

>  <SCORE.SYSTEM.SOLV>
0

>  <SCORE.SYSTEM.norm>
0

>  <SCORE.heavy>
22

>  <SCORE.norm>
-0.197769

>  <RMSD>
6.902

$$$$
ligand
 OpenBabel11021811513D
libRbt.so/2013.1/901 2013/11/27
 22 23  0  0  0  0  0  0  0  0999 V2000
   33.0980   -3.5111  108.1222 N   0  0  0  0  0  0  0  0  0  0  0  0
   34.3862   -6.1894  109.8183 C   0  0  1  0  0  0  0  0  0  0  0  0
   34.2904   -5.4925  108.5274 O   0  0  0  0  0  0  0  0  0  0  0  0
   31.6791   -8.8089  109.1731 P   0  0  2  0  0  0  0  0  0  0  0  0
   34.1812   -4.0665  108.8112 C   0  0  2  0  0  0  0  0  0  0  0  0
   31.9213   -2.2188  106.7965 N   0  0  0  0  0  0  0  0  0  0  0  0
   34.6395   -2.7651  110.7640 O   0  0  0  0  0  0  0  0  0  0  0  0
   33.9811   -3.9403  110.2683 C   0  0  2  0  0  0  0  0  0  0  0  0
   29.0278   -4.3976  106.7052 N   0  0  0  0  0  0  0  0  0  0  0  0
   35.9917   -4.9311  111.0551 O   0  0  0  0  0  0  0  0  0  0  0  0
   34.5802   -5.1512  110.8400 C   0  0  2  0  0  0  0  0  0  0  0  0
   31.0788   -3.1100  107.3539 C   0  0  0  0  0  0  0  0  0  0  0  0
   31.3094   -5.0100  108.9827 N   0  0  0  0  0  0  0  0  0  0  0  0
   32.9483   -7.8989  109.0993 O   0  0  0  0  0  0  0  0  0  0  0  0
   33.1283   -6.9289  110.0853 C   0  0  0  0  0  0  0  0  0  0  0  0
   31.5705   -9.6924  107.8595 O   0  0  0  0  0  0  0  0  0  0  0  0
   33.1594   -2.4793  107.2795 C   0  0  0  0  0  0  0  0  0  0  0  0
   28.9071   -2.1890  107.2495 O   0  0  0  0  0  0  0  0  0  0  0  0
   29.6047   -3.1900  107.1067 C   0  0  0  0  0  0  0  0  0  0  0  0
   31.8091   -3.9345  108.1975 C   0  0  0  0  0  0  0  0  0  0  0  0
   30.4532   -8.0057  109.3803 O   0  5  0  0  0  0  0  0  0  0  0  0
   31.6959   -9.6640  110.3908 O   0  0  0  0  0  0  0  0  0  0  0  0
  1 17  1  0  0  0  0
  1 20  1  0  0  0  0
  2 15  1  1  0  0  0
  2  3  1  0  0  0  0
  2 11  1  0  0  0  0
  3  5  1  0  0  0  0
  4 16  1  6  0  0  0
  4 21  1  0  0  0  0
  4 22  2  0  0  0  0
  4 14  1  0  0  0  0
  5  1  1  6  0  0  0
  5  8  1  0  0  0  0
  6 17  2  0  0  0  0
  6 12  1  0  0  0  0
  8  7  1  1  0  0  0
  8 11  1  0  0  0  0
  9 19  1  0  0  0  0
 11 10  1  6  0  0  0
 12 20  2  0  0  0  0
 12 19  1  0  0  0  0
 13 20  1  0  0  0  0
 14 15  1  0  0  0  0
 18 19  2  0  0  0  0
M  CHG  1  21  -1
M  END
>  <CHROM.1>
-124.03808595,62.44577297,172.16540223,-179.97127934,126.59979531,32.39936166
-5.45916872,108.87271083,-1.68833820,0.51438126,2.91324957

>  <Name>
ligand

>  <RI>
0

>  <Rbt.Current_Directory>
/home/itssahil/PROJECTS/Mol_Feturizer/New_Systems/rnas/4XW7

>  <Rbt.Executable>
rbdock ($Id: //depot/dev/client3/rdock/2013.1/src/exe/rbdock.cxx#4 $)

>  <Rbt.Library>
libRbt.so (2013.1, Build901 2013/11/27)

>  <Rbt.Parameter_File>
/export/apps/rDock/src/rDock_2013.1_src/data/scripts/dock_solv.prm

>  <Rbt.Receptor>
prm/pocket_docking_7.prm

>  <SCORE>
-5.81665

>  <SCORE.INTER>
-8.44813

>  <SCORE.INTER.CONST>
1

>  <SCORE.INTER.POLAR>
0

>  <SCORE.INTER.ROT>
5

>  <SCORE.INTER.SOLV>
11.8009

>  <SCORE.INTER.VDW>
-16.4991

>  <SCORE.INTER.norm>
-0.384006

>  <SCORE.INTRA>
2.63148

>  <SCORE.INTRA.DIHEDRAL>
-0.962105

>  <SCORE.INTRA.DIHEDRAL.0>
2.61549

>  <SCORE.INTRA.POLAR>
0

>  <SCORE.INTRA.POLAR.0>
0

>  <SCORE.INTRA.REPUL>
0

>  <SCORE.INTRA.REPUL.0>
0

>  <SCORE.INTRA.SOLV>
7.55129

>  <SCORE.INTRA.SOLV.lig_0>
-73.766

>  <SCORE.INTRA.VDW>
-0.663107

>  <SCORE.INTRA.VDW.0>
-1.95055

>  <SCORE.INTRA.norm>
0.119613

>  <SCORE.RESTR>
0

>  <SCORE.RESTR.CAVITY>
0

>  <SCORE.RESTR.norm>
0

>  <SCORE.SYSTEM>
0

>  <SCORE.SYSTEM.CONST>
0

>  <SCORE.SYSTEM.DIHEDRAL>
0

>  <SCORE.SYSTEM.SOLV>
0

>  <SCORE.SYSTEM.norm>
0

>  <SCORE.heavy>
22

>  <SCORE.norm>
-0.264393

>  <RMSD>
6.969

$$$$
ligand
 OpenBabel11021811513D
libRbt.so/2013.1/901 2013/11/27
 22 23  0  0  0  0  0  0  0  0999 V2000
   27.4160   -0.3274  107.8289 N   0  0  0  0  0  0  0  0  0  0  0  0
   29.7922   -2.3056  106.3624 C   0  0  1  0  0  0  0  0  0  0  0  0
   28.3993   -2.2068  106.8224 O   0  0  0  0  0  0  0  0  0  0  0  0
   33.0789   -3.1439  108.1226 P   0  0  2  0  0  0  0  0  0  0  0  0
   27.9824   -0.8204  106.6487 C   0  0  2  0  0  0  0  0  0  0  0  0
   27.2002    0.3548  109.9025 N   0  0  0  0  0  0  0  0  0  0  0  0
   28.8803    0.9923  105.3740 O   0  0  0  0  0  0  0  0  0  0  0  0
   29.1963   -0.0546  106.3037 C   0  0  2  0  0  0  0  0  0  0  0  0
   24.0806    2.0800  109.4283 N   0  0  0  0  0  0  0  0  0  0  0  0
   29.8153   -1.1381  104.2823 O   0  0  0  0  0  0  0  0  0  0  0  0
   30.1026   -1.0342  105.6943 C   0  0  2  0  0  0  0  0  0  0  0  0
   25.9976    0.4692  109.3060 C   0  0  0  0  0  0  0  0  0  0  0  0
   25.0888   -0.0064  107.0118 N   0  0  0  0  0  0  0  0  0  0  0  0
   31.9661   -2.8380  107.0678 O   0  0  0  0  0  0  0  0  0  0  0  0
   30.6936   -2.4957  107.5252 C   0  0  0  0  0  0  0  0  0  0  0  0
   34.4374   -3.5041  107.3859 O   0  0  0  0  0  0  0  0  0  0  0  0
   28.0615   -0.1365  108.9801 C   0  0  0  0  0  0  0  0  0  0  0  0
   24.3113    0.4078  110.9576 O   0  0  0  0  0  0  0  0  0  0  0  0
   24.7457    0.9702  109.9556 C   0  0  0  0  0  0  0  0  0  0  0  0
   26.1179    0.0392  107.9925 C   0  0  0  0  0  0  0  0  0  0  0  0
   32.6650   -4.2281  109.0414 O   0  5  0  0  0  0  0  0  0  0  0  0
   33.2664   -2.0025  109.0586 O   0  0  0  0  0  0  0  0  0  0  0  0
  1 17  1  0  0  0  0
  1 20  1  0  0  0  0
  2 15  1  1  0  0  0
  2  3  1  0  0  0  0
  2 11  1  0  0  0  0
  3  5  1  0  0  0  0
  4 16  1  6  0  0  0
  4 21  1  0  0  0  0
  4 22  2  0  0  0  0
  4 14  1  0  0  0  0
  5  1  1  1  0  0  0
  5  8  1  0  0  0  0
  6 17  2  0  0  0  0
  6 12  1  0  0  0  0
  8  7  1  6  0  0  0
  8 11  1  0  0  0  0
  9 19  1  0  0  0  0
 11 10  1  6  0  0  0
 12 20  2  0  0  0  0
 12 19  1  0  0  0  0
 13 20  1  0  0  0  0
 14 15  1  0  0  0  0
 18 19  2  0  0  0  0
M  CHG  1  21  -1
M  END
>  <CHROM.1>
66.02032415,168.92364943,-179.84899189,-177.66881961,121.52153023,29.14520226
-1.13623233,107.76678231,3.04668441,-0.47926117,1.71528924

>  <Name>
ligand

>  <RI>
0

>  <Rbt.Current_Directory>
/home/itssahil/PROJECTS/Mol_Feturizer/New_Systems/rnas/4XW7

>  <Rbt.Executable>
rbdock ($Id: //depot/dev/client3/rdock/2013.1/src/exe/rbdock.cxx#4 $)

>  <Rbt.Library>
libRbt.so (2013.1, Build901 2013/11/27)

>  <Rbt.Parameter_File>
/export/apps/rDock/src/rDock_2013.1_src/data/scripts/dock_solv.prm

>  <Rbt.Receptor>
prm/pocket_docking_7.prm

>  <SCORE>
-6.06359

>  <SCORE.INTER>
-5.60837

>  <SCORE.INTER.CONST>
1

>  <SCORE.INTER.POLAR>
0

>  <SCORE.INTER.ROT>
5

>  <SCORE.INTER.SOLV>
10.4405

>  <SCORE.INTER.VDW>
-14.1524

>  <SCORE.INTER.norm>
-0.254926

>  <SCORE.INTRA>
-0.455215

>  <SCORE.INTRA.DIHEDRAL>
-0.689194

>  <SCORE.INTRA.DIHEDRAL.0>
2.61549

>  <SCORE.INTRA.POLAR>
0

>  <SCORE.INTRA.POLAR.0>
0

>  <SCORE.INTRA.REPUL>
0

>  <SCORE.INTRA.REPUL.0>
0

>  <SCORE.INTRA.SOLV>
-0.136716

>  <SCORE.INTRA.SOLV.lig_0>
-73.766

>  <SCORE.INTRA.VDW>
-0.04226

>  <SCORE.INTRA.VDW.0>
-1.95055

>  <SCORE.INTRA.norm>
-0.0206916

>  <SCORE.RESTR>
0

>  <SCORE.RESTR.CAVITY>
0

>  <SCORE.RESTR.norm>
0

>  <SCORE.SYSTEM>
0

>  <SCORE.SYSTEM.CONST>
0

>  <SCORE.SYSTEM.DIHEDRAL>
0

>  <SCORE.SYSTEM.SOLV>
0

>  <SCORE.SYSTEM.norm>
0

>  <SCORE.heavy>
22

>  <SCORE.norm>
-0.275618

>  <RMSD>
7.000

$$$$
ligand
 OpenBabel11021811513D
libRbt.so/2013.1/901 2013/11/27
 22 23  0  0  0  0  0  0  0  0999 V2000
   28.2344   -1.0002  103.5506 N   0  0  0  0  0  0  0  0  0  0  0  0
   28.7973    0.1395  106.7277 C   0  0  1  0  0  0  0  0  0  0  0  0
   28.9866    0.3849  105.2906 O   0  0  0  0  0  0  0  0  0  0  0  0
   32.2303   -1.4327  107.3165 P   0  0  2  0  0  0  0  0  0  0  0  0
   27.8282   -0.1688  104.5996 C   0  0  2  0  0  0  0  0  0  0  0  0
   29.4753   -2.2940  102.2866 N   0  0  0  0  0  0  0  0  0  0  0  0
   25.6589   -0.8339  105.3538 O   0  0  0  0  0  0  0  0  0  0  0  0
   27.0686   -0.9418  105.6018 C   0  0  2  0  0  0  0  0  0  0  0  0
   26.8448   -3.8458  100.4526 N   0  0  0  0  0  0  0  0  0  0  0  0
   26.5388    0.7823  107.1478 O   0  0  0  0  0  0  0  0  0  0  0  0
   27.4166   -0.3361  106.8919 C   0  0  2  0  0  0  0  0  0  0  0  0
   28.2597   -2.2043  101.7127 C   0  0  0  0  0  0  0  0  0  0  0  0
   26.1082   -1.0265  102.2601 N   0  0  0  0  0  0  0  0  0  0  0  0
   31.0478   -0.5085  106.8788 O   0  0  0  0  0  0  0  0  0  0  0  0
   29.7464   -0.9030  107.1894 C   0  0  0  0  0  0  0  0  0  0  0  0
   31.8859   -2.9453  106.9832 O   0  0  0  0  0  0  0  0  0  0  0  0
   29.4429   -1.5477  103.4161 C   0  0  0  0  0  0  0  0  0  0  0  0
   28.3937   -2.5633   99.3828 O   0  0  0  0  0  0  0  0  0  0  0  0
   27.8452   -2.8706  100.4382 C   0  0  0  0  0  0  0  0  0  0  0  0
   27.4629   -1.3866  102.5009 C   0  0  0  0  0  0  0  0  0  0  0  0
   32.5445   -1.2597  108.7527 O   0  5  0  0  0  0  0  0  0  0  0  0
   33.5065   -1.0218  106.6710 O   0  0  0  0  0  0  0  0  0  0  0  0
  1 17  1  0  0  0  0
  1 20  1  0  0  0  0
  2 15  1  6  0  0  0
  2  3  1  0  0  0  0
  2 11  1  0  0  0  0
  3  5  1  0  0  0  0
  4 16  1  6  0  0  0
  4 21  1  0  0  0  0
  4 22  2  0  0  0  0
  4 14  1  0  0  0  0
  5  1  1  6  0  0  0
  5  8  1  0  0  0  0
  6 17  2  0  0  0  0
  6 12  1  0  0  0  0
  8  7  1  6  0  0  0
  8 11  1  0  0  0  0
  9 19  1  0  0  0  0
 11 10  1  6  0  0  0
 12 20  2  0  0  0  0
 12 19  1  0  0  0  0
 13 20  1  0  0  0  0
 14 15  1  0  0  0  0
 18 19  2  0  0  0  0
M  CHG  1  21  -1
M  END
>  <CHROM.1>
18.79202036,56.02022928,44.71514888,177.91939394,115.56386835,29.12520280
-1.25198310,104.85382064,2.20790687,0.30385188,-1.96371413

>  <Name>
ligand

>  <RI>
0

>  <Rbt.Current_Directory>
/home/itssahil/PROJECTS/Mol_Feturizer/New_Systems/rnas/4XW7

>  <Rbt.Executable>
rbdock ($Id: //depot/dev/client3/rdock/2013.1/src/exe/rbdock.cxx#4 $)

>  <Rbt.Library>
libRbt.so (2013.1, Build901 2013/11/27)

>  <Rbt.Parameter_File>
/export/apps/rDock/src/rDock_2013.1_src/data/scripts/dock_solv.prm

>  <Rbt.Receptor>
prm/pocket_docking_7.prm

>  <SCORE>
-6.52137

>  <SCORE.INTER>
-5.97866

>  <SCORE.INTER.CONST>
1

>  <SCORE.INTER.POLAR>
0

>  <SCORE.INTER.ROT>
5

>  <SCORE.INTER.SOLV>
14.4618

>  <SCORE.INTER.VDW>
-15.7397

>  <SCORE.INTER.norm>
-0.271757

>  <SCORE.INTRA>
-0.542717

>  <SCORE.INTRA.DIHEDRAL>
-0.682469

>  <SCORE.INTRA.DIHEDRAL.0>
2.61549

>  <SCORE.INTRA.POLAR>
0

>  <SCORE.INTRA.POLAR.0>
0

>  <SCORE.INTRA.REPUL>
0

>  <SCORE.INTRA.REPUL.0>
0

>  <SCORE.INTRA.SOLV>
0.50382

>  <SCORE.INTRA.SOLV.lig_0>
-73.766

>  <SCORE.INTRA.VDW>
-0.453393

>  <SCORE.INTRA.VDW.0>
-1.95055

>  <SCORE.INTRA.norm>
-0.024669

>  <SCORE.RESTR>
0

>  <SCORE.RESTR.CAVITY>
0

>  <SCORE.RESTR.norm>
0

>  <SCORE.SYSTEM>
0

>  <SCORE.SYSTEM.CONST>
0

>  <SCORE.SYSTEM.DIHEDRAL>
0

>  <SCORE.SYSTEM.SOLV>
0

>  <SCORE.SYSTEM.norm>
0

>  <SCORE.heavy>
22

>  <SCORE.norm>
-0.296426

>  <RMSD>
7.022

$$$$
ligand
 OpenBabel11021811513D
libRbt.so/2013.1/901 2013/11/27
 22 23  0  0  0  0  0  0  0  0999 V2000
   33.2194   -3.3300  109.6009 N   0  0  0  0  0  0  0  0  0  0  0  0
   30.5595   -1.2123  109.2131 C   0  0  1  0  0  0  0  0  0  0  0  0
   31.0537   -2.4525  109.8287 O   0  0  0  0  0  0  0  0  0  0  0  0
   29.1659   -0.3605  105.7604 P   0  0  2  0  0  0  0  0  0  0  0  0
   32.4719   -2.2625  110.1092 C   0  0  2  0  0  0  0  0  0  0  0  0
   34.2686   -4.6487  108.1966 N   0  0  0  0  0  0  0  0  0  0  0  0
   33.8488   -0.3121  110.2399 O   0  0  0  0  0  0  0  0  0  0  0  0
   32.8668   -1.0011  109.4518 C   0  0  2  0  0  0  0  0  0  0  0  0
   34.5040   -7.6654  109.6591 N   0  0  0  0  0  0  0  0  0  0  0  0
   31.4442    0.5262  110.5861 O   0  0  0  0  0  0  0  0  0  0  0  0
   31.6303   -0.2169  109.3613 C   0  0  2  0  0  0  0  0  0  0  0  0
   34.4072   -5.1707  109.4308 C   0  0  0  0  0  0  0  0  0  0  0  0
   33.6435   -4.5301  111.7378 N   0  0  0  0  0  0  0  0  0  0  0  0
   29.6738   -0.3057  107.2380 O   0  0  0  0  0  0  0  0  0  0  0  0
   30.2815   -1.4411  107.7740 C   0  0  0  0  0  0  0  0  0  0  0  0
   28.6455    1.0706  105.3145 O   0  0  0  0  0  0  0  0  0  0  0  0
   33.5355   -3.5166  108.3188 C   0  0  0  0  0  0  0  0  0  0  0  0
   36.3111   -6.3683  110.1493 O   0  0  0  0  0  0  0  0  0  0  0  0
   35.1449   -6.4286  109.7682 C   0  0  0  0  0  0  0  0  0  0  0  0
   33.7465   -4.3474  110.3310 C   0  0  0  0  0  0  0  0  0  0  0  0
   28.1143   -1.3885  105.5914 O   0  5  0  0  0  0  0  0  0  0  0  0
   30.2273   -0.8522  104.8407 O   0  0  0  0  0  0  0  0  0  0  0  0
  1 17  1  0  0  0  0
  1 20  1  0  0  0  0
  2 15  1  6  0  0  0
  2  3  1  0  0  0  0
  2 11  1  0  0  0  0
  3  5  1  0  0  0  0
  4 16  1  6  0  0  0
  4 21  1  0  0  0  0
  4 22  2  0  0  0  0
  4 14  1  0  0  0  0
  5  1  1  6  0  0  0
  5  8  1  0  0  0  0
  6 17  2  0  0  0  0
  6 12  1  0  0  0  0
  8  7  1  1  0  0  0
  8 11  1  0  0  0  0
  9 19  1  0  0  0  0
 11 10  1  1  0  0  0
 12 20  2  0  0  0  0
 12 19  1  0  0  0  0
 13 20  1  0  0  0  0
 14 15  1  0  0  0  0
 18 19  2  0  0  0  0
M  CHG  1  21  -1
M  END
>  <CHROM.1>
76.56554730,173.37932343,-174.40234479,-174.44511759,-84.50680434,31.96394234
-2.33981582,108.53161008,-0.18217129,-0.86270233,0.70784294

>  <Name>
ligand

>  <RI>
0

>  <Rbt.Current_Directory>
/home/itssahil/PROJECTS/Mol_Feturizer/New_Systems/rnas/4XW7

>  <Rbt.Executable>
rbdock ($Id: //depot/dev/client3/rdock/2013.1/src/exe/rbdock.cxx#4 $)

>  <Rbt.Library>
libRbt.so (2013.1, Build901 2013/11/27)

>  <Rbt.Parameter_File>
/export/apps/rDock/src/rDock_2013.1_src/data/scripts/dock_solv.prm

>  <Rbt.Receptor>
prm/pocket_docking_7.prm

>  <SCORE>
-7.35197

>  <SCORE.INTER>
-7.5642

>  <SCORE.INTER.CONST>
1

>  <SCORE.INTER.POLAR>
0

>  <SCORE.INTER.ROT>
5

>  <SCORE.INTER.SOLV>
14.683

>  <SCORE.INTER.VDW>
-16.8705

>  <SCORE.INTER.norm>
-0.343827

>  <SCORE.INTRA>
0.212235

>  <SCORE.INTRA.DIHEDRAL>
0.27907

>  <SCORE.INTRA.DIHEDRAL.0>
2.61549

>  <SCORE.INTRA.POLAR>
0

>  <SCORE.INTRA.POLAR.0>
0

>  <SCORE.INTRA.REPUL>
0

>  <SCORE.INTRA.REPUL.0>
0

>  <SCORE.INTRA.SOLV>
-0.313691

>  <SCORE.INTRA.SOLV.lig_0>
-73.766

>  <SCORE.INTRA.VDW>
0.229546

>  <SCORE.INTRA.VDW.0>
-1.95055

>  <SCORE.INTRA.norm>
0.00964707

>  <SCORE.RESTR>
0

>  <SCORE.RESTR.CAVITY>
0

>  <SCORE.RESTR.norm>
0

>  <SCORE.SYSTEM>
0

>  <SCORE.SYSTEM.CONST>
0

>  <SCORE.SYSTEM.DIHEDRAL>
0

>  <SCORE.SYSTEM.SOLV>
0

>  <SCORE.SYSTEM.norm>
0

>  <SCORE.heavy>
22

>  <SCORE.norm>
-0.33418

>  <RMSD>
7.026

$$$$
ligand
 OpenBabel11021811513D
libRbt.so/2013.1/901 2013/11/27
 22 23  0  0  0  0  0  0  0  0999 V2000
   30.0557   -4.5073  107.6677 N   0  0  0  0  0  0  0  0  0  0  0  0
   32.7585   -2.4362  108.0078 C   0  0  1  0  0  0  0  0  0  0  0  0
   32.0894   -3.4439  107.1722 O   0  0  0  0  0  0  0  0  0  0  0  0
   34.5265   -5.3012  109.7792 P   0  0  2  0  0  0  0  0  0  0  0  0
   30.6529   -3.2800  107.3614 C   0  0  2  0  0  0  0  0  0  0  0  0
   29.7730   -6.5524  108.4089 N   0  0  0  0  0  0  0  0  0  0  0  0
   29.3311   -1.5010  108.2586 O   0  0  0  0  0  0  0  0  0  0  0  0
   30.4800   -2.3325  108.4800 C   0  0  2  0  0  0  0  0  0  0  0  0
   27.2868   -8.2049  108.4252 N   0  0  0  0  0  0  0  0  0  0  0  0
   31.5606   -0.4184  107.5790 O   0  0  0  0  0  0  0  0  0  0  0  0
   31.7077   -1.5295  108.4905 C   0  0  2  0  0  0  0  0  0  0  0  0
   28.6047   -6.1442  107.8766 C   0  0  0  0  0  0  0  0  0  0  0  0
   27.7848   -4.0449  106.7646 N   0  0  0  0  0  0  0  0  0  0  0  0
   34.0675   -4.2505  108.7164 O   0  0  0  0  0  0  0  0  0  0  0  0
   33.4205   -3.0968  109.1593 C   0  0  0  0  0  0  0  0  0  0  0  0
   35.0724   -6.6018  109.0525 O   0  0  0  0  0  0  0  0  0  0  0  0
   30.6549   -5.5338  108.2724 C   0  0  0  0  0  0  0  0  0  0  0  0
   26.3745   -6.5174  107.1971 O   0  0  0  0  0  0  0  0  0  0  0  0
   27.3476   -6.9535  107.8068 C   0  0  0  0  0  0  0  0  0  0  0  0
   28.7685   -4.8511  107.4013 C   0  0  0  0  0  0  0  0  0  0  0  0
   33.4292   -5.6327  110.7159 O   0  5  0  0  0  0  0  0  0  0  0  0
   35.5517   -4.7324  110.6955 O   0  0  0  0  0  0  0  0  0  0  0  0
  1 17  1  0  0  0  0
  1 20  1  0  0  0  0
  2 15  1  1  0  0  0
  2  3  1  0  0  0  0
  2 11  1  0  0  0  0
  3  5  1  0  0  0  0
  4 16  1  6  0  0  0
  4 21  1  0  0  0  0
  4 22  2  0  0  0  0
  4 14  1  0  0  0  0
  5  1  1  1  0  0  0
  5  8  1  0  0  0  0
  6 17  2  0  0  0  0
  6 12  1  0  0  0  0
  8  7  1  6  0  0  0
  8 11  1  0  0  0  0
  9 19  1  0  0  0  0
 11 10  1  6  0  0  0
 12 20  2  0  0  0  0
 12 19  1  0  0  0  0
 13 20  1  0  0  0  0
 14 15  1  0  0  0  0
 18 19  2  0  0  0  0
M  CHG  1  21  -1
M  END
>  <CHROM.1>
27.59889818,43.18558582,173.08506535,-164.79792700,5.63849839,31.25695310
-4.46743116,108.43745250,3.01255877,0.31704074,2.93144827

>  <Name>
ligand

>  <RI>
0

>  <Rbt.Current_Directory>
/home/itssahil/PROJECTS/Mol_Feturizer/New_Systems/rnas/4XW7

>  <Rbt.Executable>
rbdock ($Id: //depot/dev/client3/rdock/2013.1/src/exe/rbdock.cxx#4 $)

>  <Rbt.Library>
libRbt.so (2013.1, Build901 2013/11/27)

>  <Rbt.Parameter_File>
/export/apps/rDock/src/rDock_2013.1_src/data/scripts/dock_solv.prm

>  <Rbt.Receptor>
prm/pocket_docking_5.prm

>  <SCORE>
-5.81429

>  <SCORE.INTER>
-6.32654

>  <SCORE.INTER.CONST>
1

>  <SCORE.INTER.POLAR>
0

>  <SCORE.INTER.ROT>
5

>  <SCORE.INTER.SOLV>
10.8707

>  <SCORE.INTER.VDW>
-14.7746

>  <SCORE.INTER.norm>
-0.28757

>  <SCORE.INTRA>
0.510409

>  <SCORE.INTRA.DIHEDRAL>
0.989081

>  <SCORE.INTRA.DIHEDRAL.0>
2.61549

>  <SCORE.INTRA.POLAR>
0

>  <SCORE.INTRA.POLAR.0>
0

>  <SCORE.INTRA.REPUL>
0

>  <SCORE.INTRA.REPUL.0>
0

>  <SCORE.INTRA.SOLV>
1.22478

>  <SCORE.INTRA.SOLV.lig_0>
-73.766

>  <SCORE.INTRA.VDW>
-0.59652

>  <SCORE.INTRA.VDW.0>
-1.95055

>  <SCORE.INTRA.norm>
0.0232004

>  <SCORE.RESTR>
0.0018425

>  <SCORE.RESTR.CAVITY>
0.0018425

>  <SCORE.RESTR.norm>
8.37502e-05

>  <SCORE.SYSTEM>
0

>  <SCORE.SYSTEM.CONST>
0

>  <SCORE.SYSTEM.DIHEDRAL>
0

>  <SCORE.SYSTEM.SOLV>
0

>  <SCORE.SYSTEM.norm>
0

>  <SCORE.heavy>
22

>  <SCORE.norm>
-0.264286

>  <RMSD>
7.027

$$$$
ligand
 OpenBabel11021811513D
libRbt.so/2013.1/901 2013/11/27
 22 23  0  0  0  0  0  0  0  0999 V2000
   29.8839   -3.2939  108.5327 N   0  0  0  0  0  0  0  0  0  0  0  0
   33.1764   -3.1626  107.6098 C   0  0  1  0  0  0  0  0  0  0  0  0
   31.8672   -3.7901  107.3784 O   0  0  0  0  0  0  0  0  0  0  0  0
   34.3454   -5.9305  109.9662 P   0  0  2  0  0  0  0  0  0  0  0  0
   30.8488   -2.7845  107.6574 C   0  0  2  0  0  0  0  0  0  0  0  0
   28.9444   -4.1323  110.3289 N   0  0  0  0  0  0  0  0  0  0  0  0
   30.9380   -0.4040  107.8624 O   0  0  0  0  0  0  0  0  0  0  0  0
   31.5453   -1.6380  108.2732 C   0  0  2  0  0  0  0  0  0  0  0  0
   25.9484   -5.2969  108.7687 N   0  0  0  0  0  0  0  0  0  0  0  0
   33.0259   -1.0508  106.5107 O   0  0  0  0  0  0  0  0  0  0  0  0
   32.9258   -1.7253  107.7843 C   0  0  2  0  0  0  0  0  0  0  0  0
   27.9825   -3.9740  109.3990 C   0  0  0  0  0  0  0  0  0  0  0  0
   27.9051   -3.1236  107.0354 N   0  0  0  0  0  0  0  0  0  0  0  0
   33.8759   -5.1063  108.7234 O   0  0  0  0  0  0  0  0  0  0  0  0
   33.7904   -3.7189  108.8403 C   0  0  0  0  0  0  0  0  0  0  0  0
   33.4296   -5.5915  111.2169 O   0  0  0  0  0  0  0  0  0  0  0  0
   30.1078   -3.7091  109.7800 C   0  0  0  0  0  0  0  0  0  0  0  0
   25.8668   -3.7280  110.4180 O   0  0  0  0  0  0  0  0  0  0  0  0
   26.5360   -4.3170  109.5729 C   0  0  0  0  0  0  0  0  0  0  0  0
   28.5625   -3.4454  108.2549 C   0  0  0  0  0  0  0  0  0  0  0  0
   35.7737   -5.6834  110.2666 O   0  5  0  0  0  0  0  0  0  0  0  0
   34.3393   -7.3910  109.6812 O   0  0  0  0  0  0  0  0  0  0  0  0
  1 17  1  0  0  0  0
  1 20  1  0  0  0  0
  2 15  1  1  0  0  0
  2  3  1  0  0  0  0
  2 11  1  0  0  0  0
  3  5  1  0  0  0  0
  4 16  1  1  0  0  0
  4 21  1  0  0  0  0
  4 22  2  0  0  0  0
  4 14  1  0  0  0  0
  5  1  1  1  0  0  0
  5  8  1  0  0  0  0
  6 17  2  0  0  0  0
  6 12  1  0  0  0  0
  8  7  1  6  0  0  0
  8 11  1  0  0  0  0
  9 19  1  0  0  0  0
 11 10  1  6  0  0  0
 12 20  2  0  0  0  0
 12 19  1  0  0  0  0
 13 20  1  0  0  0  0
 14 15  1  0  0  0  0
 18 19  2  0  0  0  0
M  CHG  1  21  -1
M  END
>  <CHROM.1>
62.00717713,56.16882515,54.84738183,-173.30441730,-117.37828411,31.27577962
-3.91455768,108.88195106,-2.91703525,-0.06758080,2.55310574

>  <Name>
ligand

>  <RI>
0

>  <Rbt.Current_Directory>
/home/itssahil/PROJECTS/Mol_Feturizer/New_Systems/rnas/4XW7

>  <Rbt.Executable>
rbdock ($Id: //depot/dev/client3/rdock/2013.1/src/exe/rbdock.cxx#4 $)

>  <Rbt.Library>
libRbt.so (2013.1, Build901 2013/11/27)

>  <Rbt.Parameter_File>
/export/apps/rDock/src/rDock_2013.1_src/data/scripts/dock_solv.prm

>  <Rbt.Receptor>
prm/pocket_docking_6.prm

>  <SCORE>
-5.29466

>  <SCORE.INTER>
-4.04189

>  <SCORE.INTER.CONST>
1

>  <SCORE.INTER.POLAR>
0

>  <SCORE.INTER.ROT>
5

>  <SCORE.INTER.SOLV>
13.9222

>  <SCORE.INTER.VDW>
-14.2687

>  <SCORE.INTER.norm>
-0.183722

>  <SCORE.INTRA>
-1.25277

>  <SCORE.INTRA.DIHEDRAL>
-0.816845

>  <SCORE.INTRA.DIHEDRAL.0>
2.61549

>  <SCORE.INTRA.POLAR>
0

>  <SCORE.INTRA.POLAR.0>
0

>  <SCORE.INTRA.REPUL>
0

>  <SCORE.INTRA.REPUL.0>
0

>  <SCORE.INTRA.SOLV>
-0.778751

>  <SCORE.INTRA.SOLV.lig_0>
-73.766

>  <SCORE.INTRA.VDW>
-0.454973

>  <SCORE.INTRA.VDW.0>
-1.95055

>  <SCORE.INTRA.norm>
-0.0569441

>  <SCORE.RESTR>
0

>  <SCORE.RESTR.CAVITY>
0

>  <SCORE.RESTR.norm>
0

>  <SCORE.SYSTEM>
0

>  <SCORE.SYSTEM.CONST>
0

>  <SCORE.SYSTEM.DIHEDRAL>
0

>  <SCORE.SYSTEM.SOLV>
0

>  <SCORE.SYSTEM.norm>
0

>  <SCORE.heavy>
22

>  <SCORE.norm>
-0.240666

>  <RMSD>
7.027

$$$$
ligand
 OpenBabel11021811513D
libRbt.so/2013.1/901 2013/11/27
 22 23  0  0  0  0  0  0  0  0999 V2000
   29.9873   -4.5104  107.6485 N   0  0  0  0  0  0  0  0  0  0  0  0
   32.7176   -2.4827  108.0277 C   0  0  1  0  0  0  0  0  0  0  0  0
   32.0453   -3.4808  107.1832 O   0  0  0  0  0  0  0  0  0  0  0  0
   34.5350   -5.3135  109.8163 P   0  0  2  0  0  0  0  0  0  0  0  0
   30.6090   -3.2934  107.3498 C   0  0  2  0  0  0  0  0  0  0  0  0
   29.6611   -6.5508  108.3847 N   0  0  0  0  0  0  0  0  0  0  0  0
   29.3023   -1.4917  108.2236 O   0  0  0  0  0  0  0  0  0  0  0  0
   30.4340   -2.3412  108.4641 C   0  0  2  0  0  0  0  0  0  0  0  0
   26.0795   -6.4396  108.3850 N   0  0  0  0  0  0  0  0  0  0  0  0
   31.5594   -0.4464  107.5773 O   0  0  0  0  0  0  0  0  0  0  0  0
   31.6742   -1.5582  108.4926 C   0  0  2  0  0  0  0  0  0  0  0  0
   28.5058   -6.1218  107.8404 C   0  0  0  0  0  0  0  0  0  0  0  0
   27.7345   -4.0077  106.7218 N   0  0  0  0  0  0  0  0  0  0  0  0
   34.0366   -4.2841  108.7504 O   0  0  0  0  0  0  0  0  0  0  0  0
   33.3508   -3.1519  109.1903 C   0  0  0  0  0  0  0  0  0  0  0  0
   35.1154   -6.6014  109.0936 O   0  0  0  0  0  0  0  0  0  0  0  0
   30.5620   -5.5476  108.2585 C   0  0  0  0  0  0  0  0  0  0  0  0
   27.2164   -7.9722  107.1412 O   0  0  0  0  0  0  0  0  0  0  0  0
   27.2356   -6.9091  107.7565 C   0  0  0  0  0  0  0  0  0  0  0  0
   28.6971   -4.8314  107.3681 C   0  0  0  0  0  0  0  0  0  0  0  0
   33.4551   -5.6725  110.7628 O   0  5  0  0  0  0  0  0  0  0  0  0
   35.5487   -4.7079  110.7216 O   0  0  0  0  0  0  0  0  0  0  0  0
  1 17  1  0  0  0  0
  1 20  1  0  0  0  0
  2 15  1  1  0  0  0
  2  3  1  0  0  0  0
  2 11  1  0  0  0  0
  3  5  1  0  0  0  0
  4 16  1  6  0  0  0
  4 21  1  0  0  0  0
  4 22  2  0  0  0  0
  4 14  1  0  0  0  0
  5  1  1  1  0  0  0
  5  8  1  0  0  0  0
  6 17  2  0  0  0  0
  6 12  1  0  0  0  0
  8  7  1  6  0  0  0
  8 11  1  0  0  0  0
  9 19  1  0  0  0  0
 11 10  1  6  0  0  0
 12 20  2  0  0  0  0
 12 19  1  0  0  0  0
 13 20  1  0  0  0  0
 14 15  1  0  0  0  0
 18 19  2  0  0  0  0
M  CHG  1  21  -1
M  END
>  <CHROM.1>
27.27149850,45.83709011,172.71324800,-167.53544927,119.20322450,31.21243962
-4.47127743,108.43502975,3.01956318,0.31580247,2.95254437

>  <Name>
ligand

>  <RI>
0

>  <Rbt.Current_Directory>
/home/itssahil/PROJECTS/Mol_Feturizer/New_Systems/rnas/4XW7

>  <Rbt.Executable>
rbdock ($Id: //depot/dev/client3/rdock/2013.1/src/exe/rbdock.cxx#4 $)

>  <Rbt.Library>
libRbt.so (2013.1, Build901 2013/11/27)

>  <Rbt.Parameter_File>
/export/apps/rDock/src/rDock_2013.1_src/data/scripts/dock_solv.prm

>  <Rbt.Receptor>
prm/pocket_docking_5.prm

>  <SCORE>
-5.95664

>  <SCORE.INTER>
-6.07953

>  <SCORE.INTER.CONST>
1

>  <SCORE.INTER.POLAR>
0

>  <SCORE.INTER.ROT>
5

>  <SCORE.INTER.SOLV>
10.6241

>  <SCORE.INTER.VDW>
-14.5277

>  <SCORE.INTER.norm>
-0.276342

>  <SCORE.INTRA>
0.121457

>  <SCORE.INTRA.DIHEDRAL>
0.358908

>  <SCORE.INTRA.DIHEDRAL.0>
2.61549

>  <SCORE.INTRA.POLAR>
0

>  <SCORE.INTRA.POLAR.0>
0

>  <SCORE.INTRA.REPUL>
0

>  <SCORE.INTRA.REPUL.0>
0

>  <SCORE.INTRA.SOLV>
1.119

>  <SCORE.INTRA.SOLV.lig_0>
-73.766

>  <SCORE.INTRA.VDW>
-0.617495

>  <SCORE.INTRA.VDW.0>
-1.95055

>  <SCORE.INTRA.norm>
0.00552079

>  <SCORE.RESTR>
0.00143339

>  <SCORE.RESTR.CAVITY>
0.00143339

>  <SCORE.RESTR.norm>
6.51539e-05

>  <SCORE.SYSTEM>
0

>  <SCORE.SYSTEM.CONST>
0

>  <SCORE.SYSTEM.DIHEDRAL>
0

>  <SCORE.SYSTEM.SOLV>
0

>  <SCORE.SYSTEM.norm>
0

>  <SCORE.heavy>
22

>  <SCORE.norm>
-0.270756

>  <RMSD>
7.055

$$$$
ligand
 OpenBabel11021811513D
libRbt.so/2013.1/901 2013/11/27
 22 23  0  0  0  0  0  0  0  0999 V2000
   30.2004   -4.2692  107.8636 N   0  0  0  0  0  0  0  0  0  0  0  0
   33.1795   -2.5895  107.9778 C   0  0  1  0  0  0  0  0  0  0  0  0
   32.1144   -3.1304  107.1209 O   0  0  0  0  0  0  0  0  0  0  0  0
   34.0513   -5.7177  109.9833 P   0  0  2  0  0  0  0  0  0  0  0  0
   30.8667   -3.0393  107.8699 C   0  0  2  0  0  0  0  0  0  0  0  0
   29.7980   -6.4149  108.0775 N   0  0  0  0  0  0  0  0  0  0  0  0
   30.2304   -1.7944  109.8096 O   0  0  0  0  0  0  0  0  0  0  0  0
   31.2293   -2.6598  109.2495 C   0  0  2  0  0  0  0  0  0  0  0  0
   26.2337   -6.2111  108.1549 N   0  0  0  0  0  0  0  0  0  0  0  0
   32.2706   -0.5627  108.8476 O   0  0  0  0  0  0  0  0  0  0  0  0
   32.5125   -1.9595  109.1257 C   0  0  2  0  0  0  0  0  0  0  0  0
   28.6610   -5.8241  107.6614 C   0  0  0  0  0  0  0  0  0  0  0  0
   27.9707   -3.4736  107.1007 N   0  0  0  0  0  0  0  0  0  0  0  0
   33.3033   -4.5785  109.2171 O   0  0  0  0  0  0  0  0  0  0  0  0
   34.0553   -3.6908  108.4475 C   0  0  0  0  0  0  0  0  0  0  0  0
   34.8938   -6.5928  108.9624 O   0  0  0  0  0  0  0  0  0  0  0  0
   30.7350   -5.4445  108.1970 C   0  0  0  0  0  0  0  0  0  0  0  0
   27.2986   -7.3697  106.5081 O   0  0  0  0  0  0  0  0  0  0  0  0
   27.3635   -6.5204  107.3932 C   0  0  0  0  0  0  0  0  0  0  0  0
   28.9005   -4.4649  107.5197 C   0  0  0  0  0  0  0  0  0  0  0  0
   33.1066   -6.5569  110.7543 O   0  5  0  0  0  0  0  0  0  0  0  0
   34.9210   -5.1672  111.0578 O   0  0  0  0  0  0  0  0  0  0  0  0
  1 17  1  0  0  0  0
  1 20  1  0  0  0  0
  2 15  1  1  0  0  0
  2  3  1  0  0  0  0
  2 11  1  0  0  0  0
  3  5  1  0  0  0  0
  4 16  1  6  0  0  0
  4 21  1  0  0  0  0
  4 22  2  0  0  0  0
  4 14  1  0  0  0  0
  5  1  1  1  0  0  0
  5  8  1  0  0  0  0
  6 17  2  0  0  0  0
  6 12  1  0  0  0  0
  8  7  1  6  0  0  0
  8 11  1  0  0  0  0
  9 19  1  0  0  0  0
 11 10  1  6  0  0  0
 12 20  2  0  0  0  0
 12 19  1  0  0  0  0
 13 20  1  0  0  0  0
 14 15  1  0  0  0  0
 18 19  2  0  0  0  0
M  CHG  1  21  -1
M  END
>  <CHROM.1>
51.48893427,-62.17621161,-56.82894500,-171.81948806,117.00712089,31.33875427
-4.51750583,108.61699984,2.98657814,0.35522978,3.05948382

>  <Name>
ligand

>  <RI>
0

>  <Rbt.Current_Directory>
/home/itssahil/PROJECTS/Mol_Feturizer/New_Systems/rnas/4XW7

>  <Rbt.Executable>
rbdock ($Id: //depot/dev/client3/rdock/2013.1/src/exe/rbdock.cxx#4 $)

>  <Rbt.Library>
libRbt.so (2013.1, Build901 2013/11/27)

>  <Rbt.Parameter_File>
/export/apps/rDock/src/rDock_2013.1_src/data/scripts/dock_solv.prm

>  <Rbt.Receptor>
prm/pocket_docking_5.prm

>  <SCORE>
-7.3178

>  <SCORE.INTER>
-6.55263

>  <SCORE.INTER.CONST>
1

>  <SCORE.INTER.POLAR>
0

>  <SCORE.INTER.ROT>
5

>  <SCORE.INTER.SOLV>
6.88584

>  <SCORE.INTER.VDW>
-13.597

>  <SCORE.INTER.norm>
-0.297847

>  <SCORE.INTRA>
-0.765178

>  <SCORE.INTRA.DIHEDRAL>
-0.773687

>  <SCORE.INTRA.DIHEDRAL.0>
2.61549

>  <SCORE.INTRA.POLAR>
0

>  <SCORE.INTRA.POLAR.0>
0

>  <SCORE.INTRA.REPUL>
0

>  <SCORE.INTRA.REPUL.0>
0

>  <SCORE.INTRA.SOLV>
0.512647

>  <SCORE.INTRA.SOLV.lig_0>
-73.766

>  <SCORE.INTRA.VDW>
-0.634658

>  <SCORE.INTRA.VDW.0>
-1.95055

>  <SCORE.INTRA.norm>
-0.0347808

>  <SCORE.RESTR>
0

>  <SCORE.RESTR.CAVITY>
0

>  <SCORE.RESTR.norm>
0

>  <SCORE.SYSTEM>
0

>  <SCORE.SYSTEM.CONST>
0

>  <SCORE.SYSTEM.DIHEDRAL>
0

>  <SCORE.SYSTEM.SOLV>
0

>  <SCORE.SYSTEM.norm>
0

>  <SCORE.heavy>
22

>  <SCORE.norm>
-0.332627

>  <RMSD>
7.055

$$$$
ligand
 OpenBabel11021811513D
libRbt.so/2013.1/901 2013/11/27
 22 23  0  0  0  0  0  0  0  0999 V2000
   29.8683   -3.2854  108.4115 N   0  0  0  0  0  0  0  0  0  0  0  0
   33.1892   -3.1345  107.5999 C   0  0  1  0  0  0  0  0  0  0  0  0
   31.8921   -3.7694  107.3243 O   0  0  0  0  0  0  0  0  0  0  0  0
   34.4923   -5.8766  109.9213 P   0  0  2  0  0  0  0  0  0  0  0  0
   30.8591   -2.7699  107.5694 C   0  0  2  0  0  0  0  0  0  0  0  0
   28.8786   -4.1540  110.1659 N   0  0  0  0  0  0  0  0  0  0  0  0
   30.9276   -0.3890  107.7783 O   0  0  0  0  0  0  0  0  0  0  0  0
   31.5279   -1.6197  108.2088 C   0  0  2  0  0  0  0  0  0  0  0  0
   25.9025   -5.2463  108.5341 N   0  0  0  0  0  0  0  0  0  0  0  0
   33.0634   -1.0229  106.4972 O   0  0  0  0  0  0  0  0  0  0  0  0
   32.9244   -1.6987  107.7665 C   0  0  2  0  0  0  0  0  0  0  0  0
   27.9387   -3.9555  109.2214 C   0  0  0  0  0  0  0  0  0  0  0  0
   27.9236   -3.0430  106.8799 N   0  0  0  0  0  0  0  0  0  0  0  0
   33.9157   -5.0680  108.7138 O   0  0  0  0  0  0  0  0  0  0  0  0
   33.7647   -3.6881  108.8501 C   0  0  0  0  0  0  0  0  0  0  0  0
   35.9998   -5.4559  110.1828 O   0  0  0  0  0  0  0  0  0  0  0  0
   30.0598   -3.7365  109.6518 C   0  0  0  0  0  0  0  0  0  0  0  0
   25.8017   -3.6834  110.1880 O   0  0  0  0  0  0  0  0  0  0  0  0
   26.4835   -4.2784  109.3573 C   0  0  0  0  0  0  0  0  0  0  0  0
   28.5505   -3.4073  108.1035 C   0  0  0  0  0  0  0  0  0  0  0  0
   34.3754   -7.3350  109.6964 O   0  5  0  0  0  0  0  0  0  0  0  0
   33.6661   -5.6869  111.1442 O   0  0  0  0  0  0  0  0  0  0  0  0
  1 17  1  0  0  0  0
  1 20  1  0  0  0  0
  2 15  1  1  0  0  0
  2  3  1  0  0  0  0
  2 11  1  0  0  0  0
  3  5  1  0  0  0  0
  4 16  1  1  0  0  0
  4 21  1  0  0  0  0
  4 22  2  0  0  0  0
  4 14  1  0  0  0  0
  5  1  1  1  0  0  0
  5  8  1  0  0  0  0
  6 17  2  0  0  0  0
  6 12  1  0  0  0  0
  8  7  1  6  0  0  0
  8 11  1  0  0  0  0
  9 19  1  0  0  0  0
 11 10  1  6  0  0  0
 12 20  2  0  0  0  0
 12 19  1  0  0  0  0
 13 20  1  0  0  0  0
 14 15  1  0  0  0  0
 18 19  2  0  0  0  0
M  CHG  1  21  -1
M  END
>  <CHROM.1>
59.91577098,58.70207466,-65.89162374,-179.23789927,-116.09877973,31.30388686
-3.88094355,108.79187589,-2.90564776,-0.04189855,2.55929846

>  <Name>
ligand

>  <RI>
0

>  <Rbt.Current_Directory>
/home/itssahil/PROJECTS/Mol_Feturizer/New_Systems/rnas/4XW7

>  <Rbt.Executable>
rbdock ($Id: //depot/dev/client3/rdock/2013.1/src/exe/rbdock.cxx#4 $)

>  <Rbt.Library>
libRbt.so (2013.1, Build901 2013/11/27)

>  <Rbt.Parameter_File>
/export/apps/rDock/src/rDock_2013.1_src/data/scripts/dock_solv.prm

>  <Rbt.Receptor>
prm/pocket_docking_6.prm

>  <SCORE>
-6.92273

>  <SCORE.INTER>
-5.65106

>  <SCORE.INTER.CONST>
1

>  <SCORE.INTER.POLAR>
0

>  <SCORE.INTER.ROT>
5

>  <SCORE.INTER.SOLV>
11.323

>  <SCORE.INTER.VDW>
-14.475

>  <SCORE.INTER.norm>
-0.256866

>  <SCORE.INTRA>
-1.27168

>  <SCORE.INTRA.DIHEDRAL>
-1.05442

>  <SCORE.INTRA.DIHEDRAL.0>
2.61549

>  <SCORE.INTRA.POLAR>
0

>  <SCORE.INTRA.POLAR.0>
0

>  <SCORE.INTRA.REPUL>
0

>  <SCORE.INTRA.REPUL.0>
0

>  <SCORE.INTRA.SOLV>
-0.660716

>  <SCORE.INTRA.SOLV.lig_0>
-73.766

>  <SCORE.INTRA.VDW>
-0.414108

>  <SCORE.INTRA.VDW.0>
-1.95055

>  <SCORE.INTRA.norm>
-0.0578034

>  <SCORE.RESTR>
0

>  <SCORE.RESTR.CAVITY>
0

>  <SCORE.RESTR.norm>
0

>  <SCORE.SYSTEM>
0

>  <SCORE.SYSTEM.CONST>
0

>  <SCORE.SYSTEM.DIHEDRAL>
0

>  <SCORE.SYSTEM.SOLV>
0

>  <SCORE.SYSTEM.norm>
0

>  <SCORE.heavy>
22

>  <SCORE.norm>
-0.31467

>  <RMSD>
7.073

$$$$
ligand
 OpenBabel11021811513D
libRbt.so/2013.1/901 2013/11/27
 22 23  0  0  0  0  0  0  0  0999 V2000
   30.8581   -4.4502  108.1382 N   0  0  0  0  0  0  0  0  0  0  0  0
   34.1724   -3.9784  108.8474 C   0  0  1  0  0  0  0  0  0  0  0  0
   33.1443   -4.0381  107.7982 O   0  0  0  0  0  0  0  0  0  0  0  0
   33.4761   -7.4413  110.2977 P   0  0  2  0  0  0  0  0  0  0  0  0
   31.9004   -3.5495  108.3813 C   0  0  2  0  0  0  0  0  0  0  0  0
   29.7114   -6.3161  108.0148 N   0  0  0  0  0  0  0  0  0  0  0  0
   31.4241   -2.2887  110.3562 O   0  0  0  0  0  0  0  0  0  0  0  0
   32.1371   -3.4189  109.8324 C   0  0  2  0  0  0  0  0  0  0  0  0
   27.1962   -5.1188  105.7604 N   0  0  0  0  0  0  0  0  0  0  0  0
   33.8956   -1.8216  109.8284 O   0  0  0  0  0  0  0  0  0  0  0  0
   33.5854   -3.2260  109.9649 C   0  0  2  0  0  0  0  0  0  0  0  0
   28.9228   -5.3199  107.5669 C   0  0  0  0  0  0  0  0  0  0  0  0
   29.1782   -2.8384  107.2628 N   0  0  0  0  0  0  0  0  0  0  0  0
   33.3496   -6.0269  109.6436 O   0  0  0  0  0  0  0  0  0  0  0  0
   34.5179   -5.3509  109.2919 C   0  0  0  0  0  0  0  0  0  0  0  0
   34.4758   -8.3394  109.4539 O   0  0  0  0  0  0  0  0  0  0  0  0
   30.8983   -5.7642  108.3622 C   0  0  0  0  0  0  0  0  0  0  0  0
   26.6501   -5.9048  107.8274 O   0  0  0  0  0  0  0  0  0  0  0  0
   27.5184   -5.4739  107.0728 C   0  0  0  0  0  0  0  0  0  0  0  0
   29.6358   -4.1319  107.6374 C   0  0  0  0  0  0  0  0  0  0  0  0
   32.1534   -8.0926  110.4296 O   0  5  0  0  0  0  0  0  0  0  0  0
   33.9142   -7.3447  111.7164 O   0  0  0  0  0  0  0  0  0  0  0  0
  1 17  1  0  0  0  0
  1 20  1  0  0  0  0
  2 15  1  1  0  0  0
  2  3  1  0  0  0  0
  2 11  1  0  0  0  0
  3  5  1  0  0  0  0
  4 16  1  6  0  0  0
  4 21  1  0  0  0  0
  4 22  2  0  0  0  0
  4 14  1  0  0  0  0
  5  1  1  1  0  0  0
  5  8  1  0  0  0  0
  6 17  2  0  0  0  0
  6 12  1  0  0  0  0
  8  7  1  6  0  0  0
  8 11  1  0  0  0  0
  9 19  1  0  0  0  0
 11 10  1  6  0  0  0
 12 20  2  0  0  0  0
 12 19  1  0  0  0  0
 13 20  1  0  0  0  0
 14 15  1  0  0  0  0
 18 19  2  0  0  0  0
M  CHG  1  21  -1
M  END
>  <CHROM.1>
49.63707197,-52.81475466,-48.33867328,-173.19477890,-119.22975483,31.66970395
-5.17252567,108.93479540,-2.88062843,0.43833883,2.99834666

>  <Name>
ligand

>  <RI>
0

>  <Rbt.Current_Directory>
/home/itssahil/PROJECTS/Mol_Feturizer/New_Systems/rnas/4XW7

>  <Rbt.Executable>
rbdock ($Id: //depot/dev/client3/rdock/2013.1/src/exe/rbdock.cxx#4 $)

>  <Rbt.Library>
libRbt.so (2013.1, Build901 2013/11/27)

>  <Rbt.Parameter_File>
/export/apps/rDock/src/rDock_2013.1_src/data/scripts/dock_solv.prm

>  <Rbt.Receptor>
prm/pocket_docking_7.prm

>  <SCORE>
-6.99219

>  <SCORE.INTER>
-6.24533

>  <SCORE.INTER.CONST>
1

>  <SCORE.INTER.POLAR>
0

>  <SCORE.INTER.ROT>
5

>  <SCORE.INTER.SOLV>
7.70507

>  <SCORE.INTER.VDW>
-13.6652

>  <SCORE.INTER.norm>
-0.283879

>  <SCORE.INTRA>
-0.746857

>  <SCORE.INTRA.DIHEDRAL>
-0.51011

>  <SCORE.INTRA.DIHEDRAL.0>
2.61549

>  <SCORE.INTRA.POLAR>
0

>  <SCORE.INTRA.POLAR.0>
0

>  <SCORE.INTRA.REPUL>
0

>  <SCORE.INTRA.REPUL.0>
0

>  <SCORE.INTRA.SOLV>
0.689599

>  <SCORE.INTRA.SOLV.lig_0>
-73.766

>  <SCORE.INTRA.VDW>
-0.836602

>  <SCORE.INTRA.VDW.0>
-1.95055

>  <SCORE.INTRA.norm>
-0.0339481

>  <SCORE.RESTR>
0

>  <SCORE.RESTR.CAVITY>
0

>  <SCORE.RESTR.norm>
0

>  <SCORE.SYSTEM>
0

>  <SCORE.SYSTEM.CONST>
0

>  <SCORE.SYSTEM.DIHEDRAL>
0

>  <SCORE.SYSTEM.SOLV>
0

>  <SCORE.SYSTEM.norm>
0

>  <SCORE.heavy>
22

>  <SCORE.norm>
-0.317827

>  <RMSD>
7.080

$$$$
ligand
 OpenBabel11021811513D
libRbt.so/2013.1/901 2013/11/27
 22 23  0  0  0  0  0  0  0  0999 V2000
   28.1240   -1.5690  102.3953 N   0  0  0  0  0  0  0  0  0  0  0  0
   28.1606   -3.6908   99.7108 C   0  0  1  0  0  0  0  0  0  0  0  0
   27.7152   -3.4813  101.0961 O   0  0  0  0  0  0  0  0  0  0  0  0
   31.2568   -5.8092  100.4397 P   0  0  2  0  0  0  0  0  0  0  0  0
   27.4656   -2.0542  101.2605 C   0  0  2  0  0  0  0  0  0  0  0  0
   29.6884   -1.1862  103.8845 N   0  0  0  0  0  0  0  0  0  0  0  0
   27.1537   -0.2746   99.6943 O   0  0  0  0  0  0  0  0  0  0  0  0
   27.9821   -1.3928  100.0461 C   0  0  2  0  0  0  0  0  0  0  0  0
   29.4451    0.2673  106.4897 N   0  0  0  0  0  0  0  0  0  0  0  0
   26.6234   -2.4275   98.3949 O   0  0  0  0  0  0  0  0  0  0  0  0
   27.9339   -2.4232   99.0029 C   0  0  2  0  0  0  0  0  0  0  0  0
   28.5817   -0.5233  104.2729 C   0  0  0  0  0  0  0  0  0  0  0  0
   26.2539   -0.2478  103.3666 N   0  0  0  0  0  0  0  0  0  0  0  0
   29.8048   -5.2357  100.3567 O   0  0  0  0  0  0  0  0  0  0  0  0
   29.6057   -4.0255   99.6922 C   0  0  0  0  0  0  0  0  0  0  0  0
   31.9597   -5.7083   99.0207 O   0  0  0  0  0  0  0  0  0  0  0  0
   29.3900   -1.8241  102.7279 C   0  0  0  0  0  0  0  0  0  0  0  0
   27.4751    1.0433  105.6499 O   0  0  0  0  0  0  0  0  0  0  0  0
   28.4553    0.3173  105.5048 C   0  0  0  0  0  0  0  0  0  0  0  0
   27.5815   -0.7574  103.3404 C   0  0  0  0  0  0  0  0  0  0  0  0
   31.2564   -7.2030  100.9384 O   0  5  0  0  0  0  0  0  0  0  0  0
   32.0566   -5.1101  101.4817 O   0  0  0  0  0  0  0  0  0  0  0  0
  1 17  1  0  0  0  0
  1 20  1  0  0  0  0
  2 15  1  1  0  0  0
  2  3  1  0  0  0  0
  2 11  1  0  0  0  0
  3  5  1  0  0  0  0
  4 16  1  6  0  0  0
  4 21  1  0  0  0  0
  4 22  2  0  0  0  0
  4 14  1  0  0  0  0
  5  1  1  1  0  0  0
  5  8  1  0  0  0  0
  6 17  2  0  0  0  0
  6 12  1  0  0  0  0
  8  7  1  6  0  0  0
  8 11  1  0  0  0  0
  9 19  1  0  0  0  0
 11 10  1  1  0  0  0
 12 20  2  0  0  0  0
 12 19  1  0  0  0  0
 13 20  1  0  0  0  0
 14 15  1  0  0  0  0
 18 19  2  0  0  0  0
M  CHG  1  21  -1
M  END
>  <CHROM.1>
46.30109335,63.70606140,-45.43675005,178.76993823,-12.06306231,28.98269419
-2.69492139,101.61639140,2.09715938,-0.73270224,1.03209069

>  <Name>
ligand

>  <RI>
0

>  <Rbt.Current_Directory>
/home/itssahil/PROJECTS/Mol_Feturizer/New_Systems/rnas/4XW7

>  <Rbt.Executable>
rbdock ($Id: //depot/dev/client3/rdock/2013.1/src/exe/rbdock.cxx#4 $)

>  <Rbt.Library>
libRbt.so (2013.1, Build901 2013/11/27)

>  <Rbt.Parameter_File>
/export/apps/rDock/src/rDock_2013.1_src/data/scripts/dock_solv.prm

>  <Rbt.Receptor>
prm/pocket_docking_7.prm

>  <SCORE>
-6.73885

>  <SCORE.INTER>
-5.83097

>  <SCORE.INTER.CONST>
1

>  <SCORE.INTER.POLAR>
0

>  <SCORE.INTER.ROT>
5

>  <SCORE.INTER.SOLV>
17.614

>  <SCORE.INTER.VDW>
-16.692

>  <SCORE.INTER.norm>
-0.265044

>  <SCORE.INTRA>
-0.911994

>  <SCORE.INTRA.DIHEDRAL>
-0.59612

>  <SCORE.INTRA.DIHEDRAL.0>
2.61549

>  <SCORE.INTRA.POLAR>
0

>  <SCORE.INTRA.POLAR.0>
0

>  <SCORE.INTRA.REPUL>
0

>  <SCORE.INTRA.REPUL.0>
0

>  <SCORE.INTRA.SOLV>
-0.471124

>  <SCORE.INTRA.SOLV.lig_0>
-73.766

>  <SCORE.INTRA.VDW>
-0.378372

>  <SCORE.INTRA.VDW.0>
-1.95055

>  <SCORE.INTRA.norm>
-0.0414543

>  <SCORE.RESTR>
0.00410851

>  <SCORE.RESTR.CAVITY>
0.00410851

>  <SCORE.RESTR.norm>
0.00018675

>  <SCORE.SYSTEM>
0

>  <SCORE.SYSTEM.CONST>
0

>  <SCORE.SYSTEM.DIHEDRAL>
0

>  <SCORE.SYSTEM.SOLV>
0

>  <SCORE.SYSTEM.norm>
0

>  <SCORE.heavy>
22

>  <SCORE.norm>
-0.306311

>  <RMSD>
7.085

$$$$
ligand
 OpenBabel11021811513D
libRbt.so/2013.1/901 2013/11/27
 22 23  0  0  0  0  0  0  0  0999 V2000
   30.2275   -4.4009  107.9724 N   0  0  0  0  0  0  0  0  0  0  0  0
   33.2719   -2.8384  107.9843 C   0  0  1  0  0  0  0  0  0  0  0  0
   32.1469   -3.3152  107.1667 O   0  0  0  0  0  0  0  0  0  0  0  0
   34.1016   -6.0120  109.9173 P   0  0  2  0  0  0  0  0  0  0  0  0
   30.9408   -3.1977  107.9776 C   0  0  2  0  0  0  0  0  0  0  0  0
   29.7397   -6.5276  108.1980 N   0  0  0  0  0  0  0  0  0  0  0  0
   30.4466   -1.9830  109.9770 O   0  0  0  0  0  0  0  0  0  0  0  0
   31.3832   -2.8698  109.3472 C   0  0  2  0  0  0  0  0  0  0  0  0
   26.1841   -6.1816  108.2245 N   0  0  0  0  0  0  0  0  0  0  0  0
   32.4851   -0.8033  108.9485 O   0  0  0  0  0  0  0  0  0  0  0  0
   32.6854   -2.2153  109.1789 C   0  0  2  0  0  0  0  0  0  0  0  0
   28.6317   -5.8968  107.7628 C   0  0  0  0  0  0  0  0  0  0  0  0
   28.0399   -3.5262  107.1750 N   0  0  0  0  0  0  0  0  0  0  0  0
   33.3612   -4.8930  109.1149 O   0  0  0  0  0  0  0  0  0  0  0  0
   34.1255   -3.9844  108.3827 C   0  0  0  0  0  0  0  0  0  0  0  0
   35.0415   -6.8422  108.9451 O   0  0  0  0  0  0  0  0  0  0  0  0
   30.7120   -5.5932  108.3218 C   0  0  0  0  0  0  0  0  0  0  0  0
   27.2260   -7.4019  106.6078 O   0  0  0  0  0  0  0  0  0  0  0  0
   27.3116   -6.5447  107.4836 C   0  0  0  0  0  0  0  0  0  0  0  0
   28.9254   -4.5491  107.6136 C   0  0  0  0  0  0  0  0  0  0  0  0
   33.1422   -6.8957  110.6172 O   0  5  0  0  0  0  0  0  0  0  0  0
   34.8781   -5.4418  111.0513 O   0  0  0  0  0  0  0  0  0  0  0  0
  1 17  1  0  0  0  0
  1 20  1  0  0  0  0
  2 15  1  1  0  0  0
  2  3  1  0  0  0  0
  2 11  1  0  0  0  0
  3  5  1  0  0  0  0
  4 16  1  6  0  0  0
  4 21  1  0  0  0  0
  4 22  2  0  0  0  0
  4 14  1  0  0  0  0
  5  1  1  1  0  0  0
  5  8  1  0  0  0  0
  6 17  2  0  0  0  0
  6 12  1  0  0  0  0
  8  7  1  6  0  0  0
  8 11  1  0  0  0  0
  9 19  1  0  0  0  0
 11 10  1  6  0  0  0
 12 20  2  0  0  0  0
 12 19  1  0  0  0  0
 13 20  1  0  0  0  0
 14 15  1  0  0  0  0
 18 19  2  0  0  0  0
M  CHG  1  21  -1
M  END
>  <CHROM.1>
55.49112975,-59.56118588,-55.56156786,-166.25771495,117.28321801,31.39124743
-4.70430789,108.65670708,3.01882712,0.32666922,3.06763238

>  <Name>
ligand

>  <RI>
0

>  <Rbt.Current_Directory>
/home/itssahil/PROJECTS/Mol_Feturizer/New_Systems/rnas/4XW7

>  <Rbt.Executable>
rbdock ($Id: //depot/dev/client3/rdock/2013.1/src/exe/rbdock.cxx#4 $)

>  <Rbt.Library>
libRbt.so (2013.1, Build901 2013/11/27)

>  <Rbt.Parameter_File>
/export/apps/rDock/src/rDock_2013.1_src/data/scripts/dock_solv.prm

>  <Rbt.Receptor>
prm/pocket_docking_6.prm

>  <SCORE>
-8.19337

>  <SCORE.INTER>
-7.71314

>  <SCORE.INTER.CONST>
1

>  <SCORE.INTER.POLAR>
0

>  <SCORE.INTER.ROT>
5

>  <SCORE.INTER.SOLV>
6.83992

>  <SCORE.INTER.VDW>
-14.3554

>  <SCORE.INTER.norm>
-0.350597

>  <SCORE.INTRA>
-0.480231

>  <SCORE.INTRA.DIHEDRAL>
-0.205527

>  <SCORE.INTRA.DIHEDRAL.0>
2.61549

>  <SCORE.INTRA.POLAR>
0

>  <SCORE.INTRA.POLAR.0>
0

>  <SCORE.INTRA.REPUL>
0

>  <SCORE.INTRA.REPUL.0>
0

>  <SCORE.INTRA.SOLV>
0.556453

>  <SCORE.INTRA.SOLV.lig_0>
-73.766

>  <SCORE.INTRA.VDW>
-0.655694

>  <SCORE.INTRA.VDW.0>
-1.95055

>  <SCORE.INTRA.norm>
-0.0218287

>  <SCORE.RESTR>
0

>  <SCORE.RESTR.CAVITY>
0

>  <SCORE.RESTR.norm>
0

>  <SCORE.SYSTEM>
0

>  <SCORE.SYSTEM.CONST>
0

>  <SCORE.SYSTEM.DIHEDRAL>
0

>  <SCORE.SYSTEM.SOLV>
0

>  <SCORE.SYSTEM.norm>
0

>  <SCORE.heavy>
22

>  <SCORE.norm>
-0.372426

>  <RMSD>
7.099

$$$$
ligand
 OpenBabel11021811513D
libRbt.so/2013.1/901 2013/11/27
 22 23  0  0  0  0  0  0  0  0999 V2000
   29.8738   -3.3364  108.5344 N   0  0  0  0  0  0  0  0  0  0  0  0
   33.1602   -3.1301  107.6032 C   0  0  1  0  0  0  0  0  0  0  0  0
   31.8660   -3.7902  107.3780 O   0  0  0  0  0  0  0  0  0  0  0  0
   34.5434   -5.8420  109.9126 P   0  0  2  0  0  0  0  0  0  0  0  0
   30.8242   -2.8082  107.6544 C   0  0  2  0  0  0  0  0  0  0  0  0
   28.9588   -4.1879  110.3370 N   0  0  0  0  0  0  0  0  0  0  0  0
   30.8562   -0.4252  107.8474 O   0  0  0  0  0  0  0  0  0  0  0  0
   31.4941   -1.6420  108.2629 C   0  0  2  0  0  0  0  0  0  0  0  0
   25.9963   -5.4527  108.8081 N   0  0  0  0  0  0  0  0  0  0  0  0
   32.9561   -1.0281  106.4940 O   0  0  0  0  0  0  0  0  0  0  0  0
   32.8751   -1.6983  107.7712 C   0  0  2  0  0  0  0  0  0  0  0  0
   27.9914   -4.0584  109.4084 C   0  0  0  0  0  0  0  0  0  0  0  0
   27.8884   -3.2228  107.0405 N   0  0  0  0  0  0  0  0  0  0  0  0
   33.9623   -5.0429  108.7009 O   0  0  0  0  0  0  0  0  0  0  0  0
   33.7902   -3.6652  108.8350 C   0  0  0  0  0  0  0  0  0  0  0  0
   36.0219   -5.3557  110.2215 O   0  0  0  0  0  0  0  0  0  0  0  0
   30.1104   -3.7393  109.7835 C   0  0  0  0  0  0  0  0  0  0  0  0
   25.8661   -3.8426  110.4141 O   0  0  0  0  0  0  0  0  0  0  0  0
   26.5541   -4.4357  109.5872 C   0  0  0  0  0  0  0  0  0  0  0  0
   28.5560   -3.5218  108.2603 C   0  0  0  0  0  0  0  0  0  0  0  0
   34.5010   -7.3007  109.6643 O   0  5  0  0  0  0  0  0  0  0  0  0
   33.6764   -5.7093  111.1146 O   0  0  0  0  0  0  0  0  0  0  0  0
  1 17  1  0  0  0  0
  1 20  1  0  0  0  0
  2 15  1  1  0  0  0
  2  3  1  0  0  0  0
  2 11  1  0  0  0  0
  3  5  1  0  0  0  0
  4 16  1  1  0  0  0
  4 21  1  0  0  0  0
  4 22  2  0  0  0  0
  4 14  1  0  0  0  0
  5  1  1  1  0  0  0
  5  8  1  0  0  0  0
  6 17  2  0  0  0  0
  6 12  1  0  0  0  0
  8  7  1  6  0  0  0
  8 11  1  0  0  0  0
  9 19  1  0  0  0  0
 11 10  1  6  0  0  0
 12 20  2  0  0  0  0
 12 19  1  0  0  0  0
 13 20  1  0  0  0  0
 14 15  1  0  0  0  0
 18 19  2  0  0  0  0
M  CHG  1  21  -1
M  END
>  <CHROM.1>
62.03681366,58.73649974,-63.52933097,-176.81353440,-116.08751322,31.31976933
-3.91683071,108.86805064,-2.94349365,-0.05498942,2.55428487

>  <Name>
ligand

>  <RI>
0

>  <Rbt.Current_Directory>
/home/itssahil/PROJECTS/Mol_Feturizer/New_Systems/rnas/4XW7

>  <Rbt.Executable>
rbdock ($Id: //depot/dev/client3/rdock/2013.1/src/exe/rbdock.cxx#4 $)

>  <Rbt.Library>
libRbt.so (2013.1, Build901 2013/11/27)

>  <Rbt.Parameter_File>
/export/apps/rDock/src/rDock_2013.1_src/data/scripts/dock_solv.prm

>  <Rbt.Receptor>
prm/pocket_docking_6.prm

>  <SCORE>
-6.9649

>  <SCORE.INTER>
-5.69176

>  <SCORE.INTER.CONST>
1

>  <SCORE.INTER.POLAR>
0

>  <SCORE.INTER.ROT>
5

>  <SCORE.INTER.SOLV>
11.5503

>  <SCORE.INTER.VDW>
-14.5779

>  <SCORE.INTER.norm>
-0.258716

>  <SCORE.INTRA>
-1.27314

>  <SCORE.INTRA.DIHEDRAL>
-1.04324

>  <SCORE.INTRA.DIHEDRAL.0>
2.61549

>  <SCORE.INTRA.POLAR>
0

>  <SCORE.INTRA.POLAR.0>
0

>  <SCORE.INTRA.REPUL>
0

>  <SCORE.INTRA.REPUL.0>
0

>  <SCORE.INTRA.SOLV>
-0.71072

>  <SCORE.INTRA.SOLV.lig_0>
-73.766

>  <SCORE.INTRA.VDW>
-0.396163

>  <SCORE.INTRA.VDW.0>
-1.95055

>  <SCORE.INTRA.norm>
-0.0578702

>  <SCORE.RESTR>
0

>  <SCORE.RESTR.CAVITY>
0

>  <SCORE.RESTR.norm>
0

>  <SCORE.SYSTEM>
0

>  <SCORE.SYSTEM.CONST>
0

>  <SCORE.SYSTEM.DIHEDRAL>
0

>  <SCORE.SYSTEM.SOLV>
0

>  <SCORE.SYSTEM.norm>
0

>  <SCORE.heavy>
22

>  <SCORE.norm>
-0.316586

>  <RMSD>
7.101

$$$$
ligand
 OpenBabel11021811513D
libRbt.so/2013.1/901 2013/11/27
 22 23  0  0  0  0  0  0  0  0999 V2000
   29.8869   -3.3239  108.3215 N   0  0  0  0  0  0  0  0  0  0  0  0
   33.2254   -3.0939  107.6064 C   0  0  1  0  0  0  0  0  0  0  0  0
   31.9488   -3.7468  107.2815 O   0  0  0  0  0  0  0  0  0  0  0  0
   34.5332   -5.8571  109.9000 P   0  0  2  0  0  0  0  0  0  0  0  0
   30.8904   -2.7722  107.5183 C   0  0  2  0  0  0  0  0  0  0  0  0
   28.8739   -4.2866  110.0123 N   0  0  0  0  0  0  0  0  0  0  0  0
   30.9074   -0.3954  107.7784 O   0  0  0  0  0  0  0  0  0  0  0  0
   31.5191   -1.6236  108.1998 C   0  0  2  0  0  0  0  0  0  0  0  0
   25.5470   -3.2790  109.1814 N   0  0  0  0  0  0  0  0  0  0  0  0
   33.0895   -0.9620  106.5447 O   0  0  0  0  0  0  0  0  0  0  0  0
   32.9286   -1.6672  107.7953 C   0  0  2  0  0  0  0  0  0  0  0  0
   27.9422   -4.0118  109.0788 C   0  0  0  0  0  0  0  0  0  0  0  0
   27.9543   -2.9505  106.8009 N   0  0  0  0  0  0  0  0  0  0  0  0
   33.9640   -5.0357  108.6977 O   0  0  0  0  0  0  0  0  0  0  0  0
   33.7767   -3.6631  108.8605 C   0  0  0  0  0  0  0  0  0  0  0  0
   36.0048   -5.3697  110.2389 O   0  0  0  0  0  0  0  0  0  0  0  0
   30.0645   -3.8570  109.5309 C   0  0  0  0  0  0  0  0  0  0  0  0
   26.1083   -5.4838  109.2915 O   0  0  0  0  0  0  0  0  0  0  0  0
   26.4812   -4.3179  109.1877 C   0  0  0  0  0  0  0  0  0  0  0  0
   28.5689   -3.4033  108.0009 C   0  0  0  0  0  0  0  0  0  0  0  0
   34.5022   -7.3104  109.6207 O   0  5  0  0  0  0  0  0  0  0  0  0
   33.6497   -5.7543  111.0928 O   0  0  0  0  0  0  0  0  0  0  0  0
  1 17  1  0  0  0  0
  1 20  1  0  0  0  0
  2 15  1  1  0  0  0
  2  3  1  0  0  0  0
  2 11  1  0  0  0  0
  3  5  1  0  0  0  0
  4 16  1  1  0  0  0
  4 21  1  0  0  0  0
  4 22  2  0  0  0  0
  4 14  1  0  0  0  0
  5  1  1  1  0  0  0
  5  8  1  0  0  0  0
  6 17  2  0  0  0  0
  6 12  1  0  0  0  0
  8  7  1  6  0  0  0
  8 11  1  0  0  0  0
  9 19  1  0  0  0  0
 11 10  1  6  0  0  0
 12 20  2  0  0  0  0
 12 19  1  0  0  0  0
 13 20  1  0  0  0  0
 14 15  1  0  0  0  0
 18 19  2  0  0  0  0
M  CHG  1  21  -1
M  END
>  <CHROM.1>
56.42826760,58.98928577,-63.82080305,-179.66283613,117.56635422,31.32430798
-3.88289629,108.73603461,-2.89382014,-0.01739068,2.58483224

>  <Name>
ligand

>  <RI>
0

>  <Rbt.Current_Directory>
/home/itssahil/PROJECTS/Mol_Feturizer/New_Systems/rnas/4XW7

>  <Rbt.Executable>
rbdock ($Id: //depot/dev/client3/rdock/2013.1/src/exe/rbdock.cxx#4 $)

>  <Rbt.Library>
libRbt.so (2013.1, Build901 2013/11/27)

>  <Rbt.Parameter_File>
/export/apps/rDock/src/rDock_2013.1_src/data/scripts/dock_solv.prm

>  <Rbt.Receptor>
prm/pocket_docking_6.prm

>  <SCORE>
-6.94223

>  <SCORE.INTER>
-5.62791

>  <SCORE.INTER.CONST>
1

>  <SCORE.INTER.POLAR>
0

>  <SCORE.INTER.ROT>
5

>  <SCORE.INTER.SOLV>
12.0847

>  <SCORE.INTER.VDW>
-14.7135

>  <SCORE.INTER.norm>
-0.255814

>  <SCORE.INTRA>
-1.31432

>  <SCORE.INTRA.DIHEDRAL>
-1.10382

>  <SCORE.INTRA.DIHEDRAL.0>
2.61549

>  <SCORE.INTRA.POLAR>
0

>  <SCORE.INTRA.POLAR.0>
0

>  <SCORE.INTRA.REPUL>
0

>  <SCORE.INTRA.REPUL.0>
0

>  <SCORE.INTRA.SOLV>
-0.596772

>  <SCORE.INTRA.SOLV.lig_0>
-73.766

>  <SCORE.INTRA.VDW>
-0.464026

>  <SCORE.INTRA.VDW.0>
-1.95055

>  <SCORE.INTRA.norm>
-0.0597419

>  <SCORE.RESTR>
0

>  <SCORE.RESTR.CAVITY>
0

>  <SCORE.RESTR.norm>
0

>  <SCORE.SYSTEM>
0

>  <SCORE.SYSTEM.CONST>
0

>  <SCORE.SYSTEM.DIHEDRAL>
0

>  <SCORE.SYSTEM.SOLV>
0

>  <SCORE.SYSTEM.norm>
0

>  <SCORE.heavy>
22

>  <SCORE.norm>
-0.315556

>  <RMSD>
7.104

$$$$
ligand
 OpenBabel11021811513D
libRbt.so/2013.1/901 2013/11/27
 22 23  0  0  0  0  0  0  0  0999 V2000
   30.2444   -4.5620  108.0269 N   0  0  0  0  0  0  0  0  0  0  0  0
   33.1954   -2.8297  108.0102 C   0  0  1  0  0  0  0  0  0  0  0  0
   32.1129   -3.4062  107.1995 O   0  0  0  0  0  0  0  0  0  0  0  0
   34.1506   -5.9650  109.9647 P   0  0  2  0  0  0  0  0  0  0  0  0
   30.8886   -3.3211  107.9868 C   0  0  2  0  0  0  0  0  0  0  0  0
   29.8898   -6.7111  108.2868 N   0  0  0  0  0  0  0  0  0  0  0  0
   30.2933   -2.0476  109.9210 O   0  0  0  0  0  0  0  0  0  0  0  0
   31.2888   -2.9071  109.3460 C   0  0  2  0  0  0  0  0  0  0  0  0
   27.3258   -8.2217  108.0425 N   0  0  0  0  0  0  0  0  0  0  0  0
   32.2792   -0.8013  108.8685 O   0  0  0  0  0  0  0  0  0  0  0  0
   32.5547   -2.1877  109.1664 C   0  0  2  0  0  0  0  0  0  0  0  0
   28.7249   -6.1454  107.9152 C   0  0  0  0  0  0  0  0  0  0  0  0
   27.9688   -3.8149  107.3559 N   0  0  0  0  0  0  0  0  0  0  0  0
   33.3732   -4.8444  109.2004 O   0  0  0  0  0  0  0  0  0  0  0  0
   34.1053   -3.9060  108.4730 C   0  0  0  0  0  0  0  0  0  0  0  0
   35.0350   -6.8003  108.9459 O   0  0  0  0  0  0  0  0  0  0  0  0
   30.8141   -5.7234  108.3509 C   0  0  0  0  0  0  0  0  0  0  0  0
   26.4611   -6.2670  107.2553 O   0  0  0  0  0  0  0  0  0  0  0  0
   27.4290   -6.8673  107.7154 C   0  0  0  0  0  0  0  0  0  0  0  0
   28.9339   -4.7845  107.7451 C   0  0  0  0  0  0  0  0  0  0  0  0
   33.2261   -6.8440  110.7156 O   0  5  0  0  0  0  0  0  0  0  0  0
   34.9878   -5.3960  111.0553 O   0  0  0  0  0  0  0  0  0  0  0  0
  1 17  1  0  0  0  0
  1 20  1  0  0  0  0
  2 15  1  1  0  0  0
  2  3  1  0  0  0  0
  2 11  1  0  0  0  0
  3  5  1  0  0  0  0
  4 16  1  6  0  0  0
  4 21  1  0  0  0  0
  4 22  2  0  0  0  0
  4 14  1  0  0  0  0
  5  1  1  1  0  0  0
  5  8  1  0  0  0  0
  6 17  2  0  0  0  0
  6 12  1  0  0  0  0
  8  7  1  6  0  0  0
  8 11  1  0  0  0  0
  9 19  1  0  0  0  0
 11 10  1  6  0  0  0
 12 20  2  0  0  0  0
 12 19  1  0  0  0  0
 13 20  1  0  0  0  0
 14 15  1  0  0  0  0
 18 19  2  0  0  0  0
M  CHG  1  21  -1
M  END
>  <CHROM.1>
50.65052558,-57.73871924,-58.22361995,-171.34017029,6.28438231,31.39875035
-4.79256702,108.72741230,2.97629313,0.31602829,3.03366624

>  <Name>
ligand

>  <RI>
0

>  <Rbt.Current_Directory>
/home/itssahil/PROJECTS/Mol_Feturizer/New_Systems/rnas/4XW7

>  <Rbt.Executable>
rbdock ($Id: //depot/dev/client3/rdock/2013.1/src/exe/rbdock.cxx#4 $)

>  <Rbt.Library>
libRbt.so (2013.1, Build901 2013/11/27)

>  <Rbt.Parameter_File>
/export/apps/rDock/src/rDock_2013.1_src/data/scripts/dock_solv.prm

>  <Rbt.Receptor>
prm/pocket_docking_6.prm

>  <SCORE>
-8.07005

>  <SCORE.INTER>
-7.40621

>  <SCORE.INTER.CONST>
1

>  <SCORE.INTER.POLAR>
0

>  <SCORE.INTER.ROT>
5

>  <SCORE.INTER.SOLV>
6.53386

>  <SCORE.INTER.VDW>
-14.0488

>  <SCORE.INTER.norm>
-0.336646

>  <SCORE.INTRA>
-0.66454

>  <SCORE.INTRA.DIHEDRAL>
-0.704694

>  <SCORE.INTRA.DIHEDRAL.0>
2.61549

>  <SCORE.INTRA.POLAR>
0

>  <SCORE.INTRA.POLAR.0>
0

>  <SCORE.INTRA.REPUL>
0

>  <SCORE.INTRA.REPUL.0>
0

>  <SCORE.INTRA.SOLV>
0.637639

>  <SCORE.INTRA.SOLV.lig_0>
-73.766

>  <SCORE.INTRA.VDW>
-0.631013

>  <SCORE.INTRA.VDW.0>
-1.95055

>  <SCORE.INTRA.norm>
-0.0302064

>  <SCORE.RESTR>
0.00070374

>  <SCORE.RESTR.CAVITY>
0.00070374

>  <SCORE.RESTR.norm>
3.19882e-05

>  <SCORE.SYSTEM>
0

>  <SCORE.SYSTEM.CONST>
0

>  <SCORE.SYSTEM.DIHEDRAL>
0

>  <SCORE.SYSTEM.SOLV>
0

>  <SCORE.SYSTEM.norm>
0

>  <SCORE.heavy>
22

>  <SCORE.norm>
-0.366821

>  <RMSD>
7.104

$$$$
ligand
 OpenBabel11021811513D
libRbt.so/2013.1/901 2013/11/27
 22 23  0  0  0  0  0  0  0  0999 V2000
   29.8573   -3.3424  108.4734 N   0  0  0  0  0  0  0  0  0  0  0  0
   33.1609   -3.1390  107.6045 C   0  0  1  0  0  0  0  0  0  0  0  0
   31.8674   -3.7879  107.3451 O   0  0  0  0  0  0  0  0  0  0  0  0
   34.6130   -5.8793  109.8345 P   0  0  2  0  0  0  0  0  0  0  0  0
   30.8261   -2.8048  107.6195 C   0  0  2  0  0  0  0  0  0  0  0  0
   28.9095   -4.2373  110.2376 N   0  0  0  0  0  0  0  0  0  0  0  0
   30.8675   -0.4256  107.8535 O   0  0  0  0  0  0  0  0  0  0  0  0
   31.4913   -1.6529  108.2595 C   0  0  2  0  0  0  0  0  0  0  0  0
   25.9307   -5.3777  108.6454 N   0  0  0  0  0  0  0  0  0  0  0  0
   32.9880   -1.0175  106.5276 O   0  0  0  0  0  0  0  0  0  0  0  0
   32.8806   -1.7087  107.7916 C   0  0  2  0  0  0  0  0  0  0  0  0
   27.9523   -4.0516  109.3080 C   0  0  0  0  0  0  0  0  0  0  0  0
   27.8863   -3.1283  106.9715 N   0  0  0  0  0  0  0  0  0  0  0  0
   34.0758   -5.0422  108.6283 O   0  0  0  0  0  0  0  0  0  0  0  0
   33.7658   -3.6984  108.8380 C   0  0  0  0  0  0  0  0  0  0  0  0
   35.1939   -7.2621  109.3165 O   0  0  0  0  0  0  0  0  0  0  0  0
   30.0752   -3.7958  109.7084 C   0  0  0  0  0  0  0  0  0  0  0  0
   25.8247   -3.8219  110.3057 O   0  0  0  0  0  0  0  0  0  0  0  0
   26.5054   -4.4016  109.4634 C   0  0  0  0  0  0  0  0  0  0  0  0
   28.5376   -3.4869  108.1840 C   0  0  0  0  0  0  0  0  0  0  0  0
   33.5606   -6.0896  110.8539 O   0  5  0  0  0  0  0  0  0  0  0  0
   35.6393   -5.1245  110.6033 O   0  0  0  0  0  0  0  0  0  0  0  0
  1 17  1  0  0  0  0
  1 20  1  0  0  0  0
  2 15  1  1  0  0  0
  2  3  1  0  0  0  0
  2 11  1  0  0  0  0
  3  5  1  0  0  0  0
  4 16  1  6  0  0  0
  4 21  1  0  0  0  0
  4 22  2  0  0  0  0
  4 14  1  0  0  0  0
  5  1  1  1  0  0  0
  5  8  1  0  0  0  0
  6 17  2  0  0  0  0
  6 12  1  0  0  0  0
  8  7  1  6  0  0  0
  8 11  1  0  0  0  0
  9 19  1  0  0  0  0
 11 10  1  6  0  0  0
 12 20  2  0  0  0  0
 12 19  1  0  0  0  0
 13 20  1  0  0  0  0
 14 15  1  0  0  0  0
 18 19  2  0  0  0  0
M  CHG  1  21  -1
M  END
>  <CHROM.1>
60.40823862,65.55222682,-167.68832245,-174.78540588,-115.99451747,31.32978311
-3.92097904,108.81027211,-2.92754999,-0.05172680,2.57409851

>  <Name>
ligand

>  <RI>
0

>  <Rbt.Current_Directory>
/home/itssahil/PROJECTS/Mol_Feturizer/New_Systems/rnas/4XW7

>  <Rbt.Executable>
rbdock ($Id: //depot/dev/client3/rdock/2013.1/src/exe/rbdock.cxx#4 $)

>  <Rbt.Library>
libRbt.so (2013.1, Build901 2013/11/27)

>  <Rbt.Parameter_File>
/export/apps/rDock/src/rDock_2013.1_src/data/scripts/dock_solv.prm

>  <Rbt.Receptor>
prm/pocket_docking_8.prm

>  <SCORE>
-7.42493

>  <SCORE.INTER>
-6.75237

>  <SCORE.INTER.CONST>
1

>  <SCORE.INTER.POLAR>
0

>  <SCORE.INTER.ROT>
5

>  <SCORE.INTER.SOLV>
10.8092

>  <SCORE.INTER.VDW>
-15.038

>  <SCORE.INTER.norm>
-0.306926

>  <SCORE.INTRA>
-0.672559

>  <SCORE.INTRA.DIHEDRAL>
-0.633625

>  <SCORE.INTRA.DIHEDRAL.0>
2.61549

>  <SCORE.INTRA.POLAR>
0

>  <SCORE.INTRA.POLAR.0>
0

>  <SCORE.INTRA.REPUL>
0

>  <SCORE.INTRA.REPUL.0>
0

>  <SCORE.INTRA.SOLV>
-0.106226

>  <SCORE.INTRA.SOLV.lig_0>
-73.766

>  <SCORE.INTRA.VDW>
-0.302634

>  <SCORE.INTRA.VDW.0>
-1.95055

>  <SCORE.INTRA.norm>
-0.0305709

>  <SCORE.RESTR>
0

>  <SCORE.RESTR.CAVITY>
0

>  <SCORE.RESTR.norm>
0

>  <SCORE.SYSTEM>
0

>  <SCORE.SYSTEM.CONST>
0

>  <SCORE.SYSTEM.DIHEDRAL>
0

>  <SCORE.SYSTEM.SOLV>
0

>  <SCORE.SYSTEM.norm>
0

>  <SCORE.heavy>
22

>  <SCORE.norm>
-0.337497

>  <RMSD>
7.106

$$$$
ligand
 OpenBabel11021811513D
libRbt.so/2013.1/901 2013/11/27
 22 23  0  0  0  0  0  0  0  0999 V2000
   29.9047   -3.2945  108.5401 N   0  0  0  0  0  0  0  0  0  0  0  0
   33.1926   -3.1403  107.6042 C   0  0  1  0  0  0  0  0  0  0  0  0
   31.8872   -3.7779  107.3790 O   0  0  0  0  0  0  0  0  0  0  0  0
   34.5771   -5.8764  109.8849 P   0  0  2  0  0  0  0  0  0  0  0  0
   30.8624   -2.7795  107.6603 C   0  0  2  0  0  0  0  0  0  0  0  0
   28.9789   -4.1390  110.3405 N   0  0  0  0  0  0  0  0  0  0  0  0
   30.9347   -0.3980  107.8608 O   0  0  0  0  0  0  0  0  0  0  0  0
   31.5527   -1.6266  108.2713 C   0  0  2  0  0  0  0  0  0  0  0  0
   26.1265   -4.8784  110.8065 N   0  0  0  0  0  0  0  0  0  0  0  0
   33.0221   -1.0316  106.5020 O   0  0  0  0  0  0  0  0  0  0  0  0
   32.9319   -1.7046  107.7772 C   0  0  2  0  0  0  0  0  0  0  0  0
   28.0114   -3.9849  109.4158 C   0  0  0  0  0  0  0  0  0  0  0  0
   27.9172   -3.1330  107.0534 N   0  0  0  0  0  0  0  0  0  0  0  0
   33.9775   -5.0678  108.6887 O   0  0  0  0  0  0  0  0  0  0  0  0
   33.8155   -3.6899  108.8333 C   0  0  0  0  0  0  0  0  0  0  0  0
   36.0580   -5.3883  110.1789 O   0  0  0  0  0  0  0  0  0  0  0  0
   30.1373   -3.7095  109.7859 C   0  0  0  0  0  0  0  0  0  0  0  0
   25.7752   -4.1520  108.6764 O   0  0  0  0  0  0  0  0  0  0  0  0
   26.5675   -4.3354  109.5970 C   0  0  0  0  0  0  0  0  0  0  0  0
   28.5826   -3.4524  108.2692 C   0  0  0  0  0  0  0  0  0  0  0  0
   34.5360   -7.3328  109.6234 O   0  5  0  0  0  0  0  0  0  0  0  0
   33.7257   -5.7580  111.0995 O   0  0  0  0  0  0  0  0  0  0  0  0
  1 17  1  0  0  0  0
  1 20  1  0  0  0  0
  2 15  1  1  0  0  0
  2  3  1  0  0  0  0
  2 11  1  0  0  0  0
  3  5  1  0  0  0  0
  4 16  1  1  0  0  0
  4 21  1  0  0  0  0
  4 22  2  0  0  0  0
  4 14  1  0  0  0  0
  5  1  1  1  0  0  0
  5  8  1  0  0  0  0
  6 17  2  0  0  0  0
  6 12  1  0  0  0  0
  8  7  1  6  0  0  0
  8 11  1  0  0  0  0
  9 19  1  0  0  0  0
 11 10  1  6  0  0  0
 12 20  2  0  0  0  0
 12 19  1  0  0  0  0
 13 20  1  0  0  0  0
 14 15  1  0  0  0  0
 18 19  2  0  0  0  0
M  CHG  1  21  -1
M  END
>  <CHROM.1>
61.79167219,59.37302370,-62.88894845,-178.05795035,-0.30104730,31.35372286
-3.89795087,108.86446774,-2.92898224,-0.06725478,2.53595188

>  <Name>
ligand

>  <RI>
0

>  <Rbt.Current_Directory>
/home/itssahil/PROJECTS/Mol_Feturizer/New_Systems/rnas/4XW7

>  <Rbt.Executable>
rbdock ($Id: //depot/dev/client3/rdock/2013.1/src/exe/rbdock.cxx#4 $)

>  <Rbt.Library>
libRbt.so (2013.1, Build901 2013/11/27)

>  <Rbt.Parameter_File>
/export/apps/rDock/src/rDock_2013.1_src/data/scripts/dock_solv.prm

>  <Rbt.Receptor>
prm/pocket_docking_6.prm

>  <SCORE>
-6.84078

>  <SCORE.INTER>
-5.68693

>  <SCORE.INTER.CONST>
1

>  <SCORE.INTER.POLAR>
0

>  <SCORE.INTER.ROT>
5

>  <SCORE.INTER.SOLV>
11.989

>  <SCORE.INTER.VDW>
-14.721

>  <SCORE.INTER.norm>
-0.258497

>  <SCORE.INTRA>
-1.15402

>  <SCORE.INTRA.DIHEDRAL>
-1.10291

>  <SCORE.INTRA.DIHEDRAL.0>
2.61549

>  <SCORE.INTRA.POLAR>
0

>  <SCORE.INTRA.POLAR.0>
0

>  <SCORE.INTRA.REPUL>
0

>  <SCORE.INTRA.REPUL.0>
0

>  <SCORE.INTRA.SOLV>
-0.690829

>  <SCORE.INTRA.SOLV.lig_0>
-73.766

>  <SCORE.INTRA.VDW>
-0.257144

>  <SCORE.INTRA.VDW.0>
-1.95055

>  <SCORE.INTRA.norm>
-0.0524553

>  <SCORE.RESTR>
0.000170901

>  <SCORE.RESTR.CAVITY>
0.000170901

>  <SCORE.RESTR.norm>
7.76823e-06

>  <SCORE.SYSTEM>
0

>  <SCORE.SYSTEM.CONST>
0

>  <SCORE.SYSTEM.DIHEDRAL>
0

>  <SCORE.SYSTEM.SOLV>
0

>  <SCORE.SYSTEM.norm>
0

>  <SCORE.heavy>
22

>  <SCORE.norm>
-0.310944

>  <RMSD>
7.115

$$$$
ligand
 OpenBabel11021811513D
libRbt.so/2013.1/901 2013/11/27
 22 23  0  0  0  0  0  0  0  0999 V2000
   25.4115   -6.1121  107.2172 N   0  0  0  0  0  0  0  0  0  0  0  0
   28.2200   -4.3716  106.3270 C   0  0  1  0  0  0  0  0  0  0  0  0
   27.3200   -5.4873  106.0009 O   0  0  0  0  0  0  0  0  0  0  0  0
   31.3123   -4.1265  108.5504 P   0  0  2  0  0  0  0  0  0  0  0  0
   25.9806   -5.1044  106.4315 C   0  0  2  0  0  0  0  0  0  0  0  0
   25.0674   -7.5126  108.8700 N   0  0  0  0  0  0  0  0  0  0  0  0
   25.0042   -2.9976  107.0017 O   0  0  0  0  0  0  0  0  0  0  0  0
   26.1285   -3.8636  107.2173 C   0  0  2  0  0  0  0  0  0  0  0  0
   23.1252   -9.9717  107.4988 N   0  0  0  0  0  0  0  0  0  0  0  0
   27.0598   -2.4307  105.5672 O   0  0  0  0  0  0  0  0  0  0  0  0
   27.3629   -3.2450  106.7213 C   0  0  2  0  0  0  0  0  0  0  0  0
   24.0932   -7.7056  107.9596 C   0  0  0  0  0  0  0  0  0  0  0  0
   23.5020   -6.6976  105.7347 N   0  0  0  0  0  0  0  0  0  0  0  0
   30.1421   -3.8261  107.5581 O   0  0  0  0  0  0  0  0  0  0  0  0
   29.1029   -4.7512  107.4571 C   0  0  0  0  0  0  0  0  0  0  0  0
   32.0270   -5.4848  108.1478 O   0  0  0  0  0  0  0  0  0  0  0  0
   25.8697   -6.5291  108.3980 C   0  0  0  0  0  0  0  0  0  0  0  0
   21.9450   -8.4005  108.6506 O   0  0  0  0  0  0  0  0  0  0  0  0
   22.9831   -8.7037  108.0679 C   0  0  0  0  0  0  0  0  0  0  0  0
   24.2986   -6.8268  106.9059 C   0  0  0  0  0  0  0  0  0  0  0  0
   30.8324   -4.1693  109.9501 O   0  5  0  0  0  0  0  0  0  0  0  0
   32.2874   -3.0034  108.5939 O   0  0  0  0  0  0  0  0  0  0  0  0
  1 17  1  0  0  0  0
  1 20  1  0  0  0  0
  2 15  1  1  0  0  0
  2  3  1  0  0  0  0
  2 11  1  0  0  0  0
  3  5  1  0  0  0  0
  4 16  1  6  0  0  0
  4 21  1  0  0  0  0
  4 22  2  0  0  0  0
  4 14  1  0  0  0  0
  5  1  1  1  0  0  0
  5  8  1  0  0  0  0
  6 17  2  0  0  0  0
  6 12  1  0  0  0  0
  8  7  1  6  0  0  0
  8 11  1  0  0  0  0
  9 19  1  0  0  0  0
 11 10  1  6  0  0  0
 12 20  2  0  0  0  0
 12 19  1  0  0  0  0
 13 20  1  0  0  0  0
 14 15  1  0  0  0  0
 18 19  2  0  0  0  0
M  CHG  1  21  -1
M  END
>  <CHROM.1>
63.41908430,166.51223770,60.06526821,-171.60340283,-93.26699559,27.14330190
-5.36233501,107.55753521,2.77907953,0.32274856,2.60475812

>  <Name>
ligand

>  <RI>
0

>  <Rbt.Current_Directory>
/home/itssahil/PROJECTS/Mol_Feturizer/New_Systems/rnas/4XW7

>  <Rbt.Executable>
rbdock ($Id: //depot/dev/client3/rdock/2013.1/src/exe/rbdock.cxx#4 $)

>  <Rbt.Library>
libRbt.so (2013.1, Build901 2013/11/27)

>  <Rbt.Parameter_File>
/export/apps/rDock/src/rDock_2013.1_src/data/scripts/dock_solv.prm

>  <Rbt.Receptor>
prm/pocket_docking_2.prm

>  <SCORE>
4.35885

>  <SCORE.INTER>
3.54171

>  <SCORE.INTER.CONST>
1

>  <SCORE.INTER.POLAR>
0

>  <SCORE.INTER.ROT>
5

>  <SCORE.INTER.SOLV>
3.32443

>  <SCORE.INTER.VDW>
-5.68034

>  <SCORE.INTER.norm>
0.160987

>  <SCORE.INTRA>
-0.390683

>  <SCORE.INTRA.DIHEDRAL>
0.506889

>  <SCORE.INTRA.DIHEDRAL.0>
2.61549

>  <SCORE.INTRA.POLAR>
0

>  <SCORE.INTRA.POLAR.0>
0

>  <SCORE.INTRA.REPUL>
0

>  <SCORE.INTRA.REPUL.0>
0

>  <SCORE.INTRA.SOLV>
-0.899339

>  <SCORE.INTRA.SOLV.lig_0>
-73.766

>  <SCORE.INTRA.VDW>
-0.194458

>  <SCORE.INTRA.VDW.0>
-1.95055

>  <SCORE.INTRA.norm>
-0.0177583

>  <SCORE.RESTR>
1.20782

>  <SCORE.RESTR.CAVITY>
1.20782

>  <SCORE.RESTR.norm>
0.054901

>  <SCORE.SYSTEM>
0

>  <SCORE.SYSTEM.CONST>
0

>  <SCORE.SYSTEM.DIHEDRAL>
0

>  <SCORE.SYSTEM.SOLV>
0

>  <SCORE.SYSTEM.norm>
0

>  <SCORE.heavy>
22

>  <SCORE.norm>
0.198129

>  <RMSD>
7.131

$$$$
ligand
 OpenBabel11021811513D
libRbt.so/2013.1/901 2013/11/27
 22 23  0  0  0  0  0  0  0  0999 V2000
   30.3418   -4.4546  108.0140 N   0  0  0  0  0  0  0  0  0  0  0  0
   33.3696   -2.8602  108.0188 C   0  0  1  0  0  0  0  0  0  0  0  0
   32.2647   -3.3808  107.2006 O   0  0  0  0  0  0  0  0  0  0  0  0
   34.1683   -6.0446  109.9614 P   0  0  2  0  0  0  0  0  0  0  0  0
   31.0427   -3.2445  107.9844 C   0  0  2  0  0  0  0  0  0  0  0  0
   29.8890   -6.5877  108.2518 N   0  0  0  0  0  0  0  0  0  0  0  0
   30.4997   -1.9576  109.9251 O   0  0  0  0  0  0  0  0  0  0  0  0
   31.4566   -2.8583  109.3477 C   0  0  2  0  0  0  0  0  0  0  0  0
   26.8149   -6.6042  106.4326 N   0  0  0  0  0  0  0  0  0  0  0  0
   32.5448   -0.7973  108.8876 O   0  0  0  0  0  0  0  0  0  0  0  0
   32.7550   -2.1970  109.1772 C   0  0  2  0  0  0  0  0  0  0  0  0
   28.7500   -5.9645  107.8925 C   0  0  0  0  0  0  0  0  0  0  0  0
   28.1003   -3.5953  107.3630 N   0  0  0  0  0  0  0  0  0  0  0  0
   33.4472   -4.8957  109.1840 O   0  0  0  0  0  0  0  0  0  0  0  0
   34.2272   -3.9804  108.4774 C   0  0  0  0  0  0  0  0  0  0  0  0
   35.0970   -6.8667  108.9717 O   0  0  0  0  0  0  0  0  0  0  0  0
   30.8584   -5.6448  108.3221 C   0  0  0  0  0  0  0  0  0  0  0  0
   26.8627   -7.1718  108.6380 O   0  0  0  0  0  0  0  0  0  0  0  0
   27.4211   -6.6232  107.6913 C   0  0  0  0  0  0  0  0  0  0  0  0
   29.0211   -4.6129  107.7364 C   0  0  0  0  0  0  0  0  0  0  0  0
   33.1939   -6.9291  110.6391 O   0  5  0  0  0  0  0  0  0  0  0  0
   34.9516   -5.5131  111.1095 O   0  0  0  0  0  0  0  0  0  0  0  0
  1 17  1  0  0  0  0
  1 20  1  0  0  0  0
  2 15  1  1  0  0  0
  2  3  1  0  0  0  0
  2 11  1  0  0  0  0
  3  5  1  0  0  0  0
  4 16  1  6  0  0  0
  4 21  1  0  0  0  0
  4 22  2  0  0  0  0
  4 14  1  0  0  0  0
  5  1  1  1  0  0  0
  5  8  1  0  0  0  0
  6 17  2  0  0  0  0
  6 12  1  0  0  0  0
  8  7  1  6  0  0  0
  8 11  1  0  0  0  0
  9 19  1  0  0  0  0
 11 10  1  6  0  0  0
 12 20  2  0  0  0  0
 12 19  1  0  0  0  0
 13 20  1  0  0  0  0
 14 15  1  0  0  0  0
 18 19  2  0  0  0  0
M  CHG  1  21  -1
M  END
>  <CHROM.1>
50.10317482,-57.12356773,-55.74255155,-170.34815086,-117.21551054,31.47967896
-4.74092587,108.72247528,3.02341887,0.31701194,3.01201222

>  <Name>
ligand

>  <RI>
0

>  <Rbt.Current_Directory>
/home/itssahil/PROJECTS/Mol_Feturizer/New_Systems/rnas/4XW7

>  <Rbt.Executable>
rbdock ($Id: //depot/dev/client3/rdock/2013.1/src/exe/rbdock.cxx#4 $)

>  <Rbt.Library>
libRbt.so (2013.1, Build901 2013/11/27)

>  <Rbt.Parameter_File>
/export/apps/rDock/src/rDock_2013.1_src/data/scripts/dock_solv.prm

>  <Rbt.Receptor>
prm/pocket_docking_8.prm

>  <SCORE>
-8.37624

>  <SCORE.INTER>
-7.59083

>  <SCORE.INTER.CONST>
1

>  <SCORE.INTER.POLAR>
0

>  <SCORE.INTER.ROT>
5

>  <SCORE.INTER.SOLV>
6.95891

>  <SCORE.INTER.VDW>
-14.3135

>  <SCORE.INTER.norm>
-0.345038

>  <SCORE.INTRA>
-0.785405

>  <SCORE.INTRA.DIHEDRAL>
-0.618976

>  <SCORE.INTRA.DIHEDRAL.0>
2.61549

>  <SCORE.INTRA.POLAR>
0

>  <SCORE.INTRA.POLAR.0>
0

>  <SCORE.INTRA.REPUL>
0

>  <SCORE.INTRA.REPUL.0>
0

>  <SCORE.INTRA.SOLV>
0.644106

>  <SCORE.INTRA.SOLV.lig_0>
-73.766

>  <SCORE.INTRA.VDW>
-0.79797

>  <SCORE.INTRA.VDW.0>
-1.95055

>  <SCORE.INTRA.norm>
-0.0357002

>  <SCORE.RESTR>
0

>  <SCORE.RESTR.CAVITY>
0

>  <SCORE.RESTR.norm>
0

>  <SCORE.SYSTEM>
0

>  <SCORE.SYSTEM.CONST>
0

>  <SCORE.SYSTEM.DIHEDRAL>
0

>  <SCORE.SYSTEM.SOLV>
0

>  <SCORE.SYSTEM.norm>
0

>  <SCORE.heavy>
22

>  <SCORE.norm>
-0.380738

>  <RMSD>
7.139

$$$$
ligand
 OpenBabel11021811513D
libRbt.so/2013.1/901 2013/11/27
 22 23  0  0  0  0  0  0  0  0999 V2000
   30.2327   -4.5632  108.0209 N   0  0  0  0  0  0  0  0  0  0  0  0
   33.1186   -2.7256  107.9554 C   0  0  1  0  0  0  0  0  0  0  0  0
   32.0498   -3.3499  107.1621 O   0  0  0  0  0  0  0  0  0  0  0  0
   34.2273   -5.7442  110.0071 P   0  0  2  0  0  0  0  0  0  0  0  0
   30.8311   -3.3003  107.9610 C   0  0  2  0  0  0  0  0  0  0  0  0
   29.9579   -6.7201  108.3113 N   0  0  0  0  0  0  0  0  0  0  0  0
   30.2091   -2.0279  109.8874 O   0  0  0  0  0  0  0  0  0  0  0  0
   31.2294   -2.8571  109.3115 C   0  0  2  0  0  0  0  0  0  0  0  0
   26.3727   -6.6510  108.5125 N   0  0  0  0  0  0  0  0  0  0  0  0
   32.1380   -0.7222  108.8012 O   0  0  0  0  0  0  0  0  0  0  0  0
   32.4666   -2.0945  109.1112 C   0  0  2  0  0  0  0  0  0  0  0  0
   28.7714   -6.2022  107.9384 C   0  0  0  0  0  0  0  0  0  0  0  0
   27.9282   -3.9085  107.3523 N   0  0  0  0  0  0  0  0  0  0  0  0
   33.3918   -4.6881  109.2129 O   0  0  0  0  0  0  0  0  0  0  0  0
   34.0715   -3.7631  108.4203 C   0  0  0  0  0  0  0  0  0  0  0  0
   35.0795   -6.6267  109.0007 O   0  0  0  0  0  0  0  0  0  0  0  0
   30.8459   -5.6987  108.3573 C   0  0  0  0  0  0  0  0  0  0  0  0
   27.4593   -7.8947  106.9438 O   0  0  0  0  0  0  0  0  0  0  0  0
   27.5017   -6.9733  107.7551 C   0  0  0  0  0  0  0  0  0  0  0  0
   28.9298   -4.8370  107.7491 C   0  0  0  0  0  0  0  0  0  0  0  0
   33.3576   -6.5899  110.8554 O   0  5  0  0  0  0  0  0  0  0  0  0
   35.1033   -5.0927  111.0181 O   0  0  0  0  0  0  0  0  0  0  0  0
  1 17  1  0  0  0  0
  1 20  1  0  0  0  0
  2 15  1  1  0  0  0
  2  3  1  0  0  0  0
  2 11  1  0  0  0  0
  3  5  1  0  0  0  0
  4 16  1  6  0  0  0
  4 21  1  0  0  0  0
  4 22  2  0  0  0  0
  4 14  1  0  0  0  0
  5  1  1  1  0  0  0
  5  8  1  0  0  0  0
  6 17  2  0  0  0  0
  6 12  1  0  0  0  0
  8  7  1  6  0  0  0
  8 11  1  0  0  0  0
  9 19  1  0  0  0  0
 11 10  1  6  0  0  0
 12 20  2  0  0  0  0
 12 19  1  0  0  0  0
 13 20  1  0  0  0  0
 14 15  1  0  0  0  0
 18 19  2  0  0  0  0
M  CHG  1  21  -1
M  END
>  <CHROM.1>
50.96941844,-60.25950828,-59.83875177,-170.21756545,120.65145606,31.40843018
-4.72807080,108.73212365,2.92484001,0.31451506,3.04907155

>  <Name>
ligand

>  <RI>
0

>  <Rbt.Current_Directory>
/home/itssahil/PROJECTS/Mol_Feturizer/New_Systems/rnas/4XW7

>  <Rbt.Executable>
rbdock ($Id: //depot/dev/client3/rdock/2013.1/src/exe/rbdock.cxx#4 $)

>  <Rbt.Library>
libRbt.so (2013.1, Build901 2013/11/27)

>  <Rbt.Parameter_File>
/export/apps/rDock/src/rDock_2013.1_src/data/scripts/dock_solv.prm

>  <Rbt.Receptor>
prm/pocket_docking_5.prm

>  <SCORE>
-7.64174

>  <SCORE.INTER>
-6.93922

>  <SCORE.INTER.CONST>
1

>  <SCORE.INTER.POLAR>
0

>  <SCORE.INTER.ROT>
5

>  <SCORE.INTER.SOLV>
7.09456

>  <SCORE.INTER.VDW>
-13.9243

>  <SCORE.INTER.norm>
-0.315419

>  <SCORE.INTRA>
-0.729262

>  <SCORE.INTRA.DIHEDRAL>
-0.676485

>  <SCORE.INTRA.DIHEDRAL.0>
2.61549

>  <SCORE.INTRA.POLAR>
0

>  <SCORE.INTRA.POLAR.0>
0

>  <SCORE.INTRA.REPUL>
0

>  <SCORE.INTRA.REPUL.0>
0

>  <SCORE.INTRA.SOLV>
0.614161

>  <SCORE.INTRA.SOLV.lig_0>
-73.766

>  <SCORE.INTRA.VDW>
-0.6981

>  <SCORE.INTRA.VDW.0>
-1.95055

>  <SCORE.INTRA.norm>
-0.0331483

>  <SCORE.RESTR>
0.0267464

>  <SCORE.RESTR.CAVITY>
0.0267464

>  <SCORE.RESTR.norm>
0.00121574

>  <SCORE.SYSTEM>
0

>  <SCORE.SYSTEM.CONST>
0

>  <SCORE.SYSTEM.DIHEDRAL>
0

>  <SCORE.SYSTEM.SOLV>
0

>  <SCORE.SYSTEM.norm>
0

>  <SCORE.heavy>
22

>  <SCORE.norm>
-0.347352

>  <RMSD>
7.150

$$$$
ligand
 OpenBabel11021811513D
libRbt.so/2013.1/901 2013/11/27
 22 23  0  0  0  0  0  0  0  0999 V2000
   32.1561   -0.9765  109.7378 N   0  0  0  0  0  0  0  0  0  0  0  0
   31.8616   -4.2653  108.8395 C   0  0  1  0  0  0  0  0  0  0  0  0
   31.5719   -3.2472  109.8597 O   0  0  0  0  0  0  0  0  0  0  0  0
   34.9137   -6.0091  110.3327 P   0  0  2  0  0  0  0  0  0  0  0  0
   31.3700   -1.9814  109.1645 C   0  0  2  0  0  0  0  0  0  0  0  0
   33.9015    0.1299  110.4734 N   0  0  0  0  0  0  0  0  0  0  0  0
   30.9270   -1.4438  106.8772 O   0  0  0  0  0  0  0  0  0  0  0  0
   31.7660   -2.2035  107.7599 C   0  0  2  0  0  0  0  0  0  0  0  0
   32.5139    3.3760  110.5680 N   0  0  0  0  0  0  0  0  0  0  0  0
   30.2173   -3.8987  107.1505 O   0  0  0  0  0  0  0  0  0  0  0  0
   31.5854   -3.6423  107.5375 C   0  0  2  0  0  0  0  0  0  0  0  0
   32.8114    0.8899  110.6946 C   0  0  0  0  0  0  0  0  0  0  0  0
   30.3459    0.6424  110.2753 N   0  0  0  0  0  0  0  0  0  0  0  0
   33.5083   -5.3655  110.0985 O   0  0  0  0  0  0  0  0  0  0  0  0
   33.2893   -4.6609  108.9147 C   0  0  0  0  0  0  0  0  0  0  0  0
   35.2373   -7.0384  109.1692 O   0  0  0  0  0  0  0  0  0  0  0  0
   33.4811   -1.0146  109.8842 C   0  0  0  0  0  0  0  0  0  0  0  0
   33.0691    2.3559  112.5275 O   0  0  0  0  0  0  0  0  0  0  0  0
   32.8065    2.2438  111.3328 C   0  0  0  0  0  0  0  0  0  0  0  0
   31.6976    0.2018  110.2355 C   0  0  0  0  0  0  0  0  0  0  0  0
   34.9923   -6.6601  111.6598 O   0  5  0  0  0  0  0  0  0  0  0  0
   35.9745   -4.9708  110.4362 O   0  0  0  0  0  0  0  0  0  0  0  0
  1 17  1  0  0  0  0
  1 20  1  0  0  0  0
  2 15  1  6  0  0  0
  2  3  1  0  0  0  0
  2 11  1  0  0  0  0
  3  5  1  0  0  0  0
  4 16  1  6  0  0  0
  4 21  1  0  0  0  0
  4 22  2  0  0  0  0
  4 14  1  0  0  0  0
  5  1  1  1  0  0  0
  5  8  1  0  0  0  0
  6 17  2  0  0  0  0
  6 12  1  0  0  0  0
  8  7  1  6  0  0  0
  8 11  1  0  0  0  0
  9 19  1  0  0  0  0
 11 10  1  1  0  0  0
 12 20  2  0  0  0  0
 12 19  1  0  0  0  0
 13 20  1  0  0  0  0
 14 15  1  0  0  0  0
 18 19  2  0  0  0  0
M  CHG  1  21  -1
M  END
>  <CHROM.1>
56.60007381,68.90902641,-59.08760698,174.05373965,110.38752735,32.87585318
-2.49410205,109.73534447,1.95947987,-0.72177439,0.35720356

>  <Name>
ligand

>  <RI>
0

>  <Rbt.Current_Directory>
/home/itssahil/PROJECTS/Mol_Feturizer/New_Systems/rnas/4XW7

>  <Rbt.Executable>
rbdock ($Id: //depot/dev/client3/rdock/2013.1/src/exe/rbdock.cxx#4 $)

>  <Rbt.Library>
libRbt.so (2013.1, Build901 2013/11/27)

>  <Rbt.Parameter_File>
/export/apps/rDock/src/rDock_2013.1_src/data/scripts/dock_solv.prm

>  <Rbt.Receptor>
prm/pocket_docking_7.prm

>  <SCORE>
-6.19932

>  <SCORE.INTER>
-5.1365

>  <SCORE.INTER.CONST>
1

>  <SCORE.INTER.POLAR>
0

>  <SCORE.INTER.ROT>
5

>  <SCORE.INTER.SOLV>
12.3538

>  <SCORE.INTER.VDW>
-14.4756

>  <SCORE.INTER.norm>
-0.233477

>  <SCORE.INTRA>
-1.06282

>  <SCORE.INTRA.DIHEDRAL>
-0.574072

>  <SCORE.INTRA.DIHEDRAL.0>
2.61549

>  <SCORE.INTRA.POLAR>
0

>  <SCORE.INTRA.POLAR.0>
0

>  <SCORE.INTRA.REPUL>
0

>  <SCORE.INTRA.REPUL.0>
0

>  <SCORE.INTRA.SOLV>
-0.760645

>  <SCORE.INTRA.SOLV.lig_0>
-73.766

>  <SCORE.INTRA.VDW>
-0.395465

>  <SCORE.INTRA.VDW.0>
-1.95055

>  <SCORE.INTRA.norm>
-0.0483101

>  <SCORE.RESTR>
0

>  <SCORE.RESTR.CAVITY>
0

>  <SCORE.RESTR.norm>
0

>  <SCORE.SYSTEM>
0

>  <SCORE.SYSTEM.CONST>
0

>  <SCORE.SYSTEM.DIHEDRAL>
0

>  <SCORE.SYSTEM.SOLV>
0

>  <SCORE.SYSTEM.norm>
0

>  <SCORE.heavy>
22

>  <SCORE.norm>
-0.281787

>  <RMSD>
7.151

$$$$
ligand
 OpenBabel11021811513D
libRbt.so/2013.1/901 2013/11/27
 22 23  0  0  0  0  0  0  0  0999 V2000
   30.1376   -2.8875  106.9638 N   0  0  0  0  0  0  0  0  0  0  0  0
   33.3738   -2.7988  108.0724 C   0  0  1  0  0  0  0  0  0  0  0  0
   32.4768   -2.6932  106.9125 O   0  0  0  0  0  0  0  0  0  0  0  0
   34.7147   -5.7051  110.1522 P   0  0  2  0  0  0  0  0  0  0  0  0
   31.2245   -2.1136  107.3837 C   0  0  2  0  0  0  0  0  0  0  0  0
   28.7678   -4.5824  106.7133 N   0  0  0  0  0  0  0  0  0  0  0  0
   30.6390   -0.9248  109.3739 O   0  0  0  0  0  0  0  0  0  0  0  0
   31.2985   -2.0905  108.8578 C   0  0  2  0  0  0  0  0  0  0  0  0
   25.9686   -2.7057  105.5033 N   0  0  0  0  0  0  0  0  0  0  0  0
   33.1889   -0.6842  109.1609 O   0  0  0  0  0  0  0  0  0  0  0  0
   32.7325   -2.0548  109.1654 C   0  0  2  0  0  0  0  0  0  0  0  0
   28.2760   -3.5493  106.0021 C   0  0  0  0  0  0  0  0  0  0  0  0
   28.9899   -1.1794  105.5669 N   0  0  0  0  0  0  0  0  0  0  0  0
   34.5055   -4.3229  109.4521 O   0  0  0  0  0  0  0  0  0  0  0  0
   33.5319   -4.2224  108.4582 C   0  0  0  0  0  0  0  0  0  0  0  0
   36.0908   -5.7079  110.9423 O   0  0  0  0  0  0  0  0  0  0  0  0
   29.9130   -4.1587  107.2988 C   0  0  0  0  0  0  0  0  0  0  0  0
   26.9151   -4.3544  104.2485 O   0  0  0  0  0  0  0  0  0  0  0  0
   27.0203   -3.5699  105.1879 C   0  0  0  0  0  0  0  0  0  0  0  0
   29.1337   -2.4689  106.1495 C   0  0  0  0  0  0  0  0  0  0  0  0
   34.6562   -6.8163  109.1760 O   0  5  0  0  0  0  0  0  0  0  0  0
   33.5796   -6.0310  111.0574 O   0  0  0  0  0  0  0  0  0  0  0  0
  1 17  1  0  0  0  0
  1 20  1  0  0  0  0
  2 15  1  1  0  0  0
  2  3  1  0  0  0  0
  2 11  1  0  0  0  0
  3  5  1  0  0  0  0
  4 16  1  1  0  0  0
  4 21  1  0  0  0  0
  4 22  2  0  0  0  0
  4 14  1  0  0  0  0
  5  1  1  1  0  0  0
  5  8  1  0  0  0  0
  6 17  2  0  0  0  0
  6 12  1  0  0  0  0
  8  7  1  6  0  0  0
  8 11  1  0  0  0  0
  9 19  1  0  0  0  0
 11 10  1  6  0  0  0
 12 20  2  0  0  0  0
 12 19  1  0  0  0  0
 13 20  1  0  0  0  0
 14 15  1  0  0  0  0
 18 19  2  0  0  0  0
M  CHG  1  21  -1
M  END
>  <CHROM.1>
61.99901566,172.94546596,164.84050738,172.09555587,118.73465887,31.53989881
-3.59282814,108.01067427,-2.91170265,0.58188723,-3.08752465

>  <Name>
ligand

>  <RI>
0

>  <Rbt.Current_Directory>
/home/itssahil/PROJECTS/Mol_Feturizer/New_Systems/rnas/4XW7

>  <Rbt.Executable>
rbdock ($Id: //depot/dev/client3/rdock/2013.1/src/exe/rbdock.cxx#4 $)

>  <Rbt.Library>
libRbt.so (2013.1, Build901 2013/11/27)

>  <Rbt.Parameter_File>
/export/apps/rDock/src/rDock_2013.1_src/data/scripts/dock_solv.prm

>  <Rbt.Receptor>
prm/pocket_docking_5.prm

>  <SCORE>
-6.81452

>  <SCORE.INTER>
-6.68548

>  <SCORE.INTER.CONST>
1

>  <SCORE.INTER.POLAR>
0

>  <SCORE.INTER.ROT>
5

>  <SCORE.INTER.SOLV>
12.517

>  <SCORE.INTER.VDW>
-15.5627

>  <SCORE.INTER.norm>
-0.303886

>  <SCORE.INTRA>
-0.129033

>  <SCORE.INTRA.DIHEDRAL>
-0.30427

>  <SCORE.INTRA.DIHEDRAL.0>
2.61549

>  <SCORE.INTRA.POLAR>
0

>  <SCORE.INTRA.POLAR.0>
0

>  <SCORE.INTRA.REPUL>
0

>  <SCORE.INTRA.REPUL.0>
0

>  <SCORE.INTRA.SOLV>
0.0810642

>  <SCORE.INTRA.SOLV.lig_0>
-73.766

>  <SCORE.INTRA.VDW>
-0.0174305

>  <SCORE.INTRA.VDW.0>
-1.95055

>  <SCORE.INTRA.norm>
-0.00586515

>  <SCORE.RESTR>
0

>  <SCORE.RESTR.CAVITY>
0

>  <SCORE.RESTR.norm>
0

>  <SCORE.SYSTEM>
0

>  <SCORE.SYSTEM.CONST>
0

>  <SCORE.SYSTEM.DIHEDRAL>
0

>  <SCORE.SYSTEM.SOLV>
0

>  <SCORE.SYSTEM.norm>
0

>  <SCORE.heavy>
22

>  <SCORE.norm>
-0.309751

>  <RMSD>
7.166

$$$$
ligand
 OpenBabel11021811513D
libRbt.so/2013.1/901 2013/11/27
 22 23  0  0  0  0  0  0  0  0999 V2000
   30.2376   -3.0349  107.0345 N   0  0  0  0  0  0  0  0  0  0  0  0
   33.4703   -2.9643  108.1547 C   0  0  1  0  0  0  0  0  0  0  0  0
   32.5785   -2.8604  106.9905 O   0  0  0  0  0  0  0  0  0  0  0  0
   34.8029   -5.8770  110.2353 P   0  0  2  0  0  0  0  0  0  0  0  0
   31.3293   -2.2668  107.4525 C   0  0  2  0  0  0  0  0  0  0  0  0
   28.8488   -4.7167  106.8008 N   0  0  0  0  0  0  0  0  0  0  0  0
   30.7463   -1.0577  109.4312 O   0  0  0  0  0  0  0  0  0  0  0  0
   31.3980   -2.2329  108.9266 C   0  0  2  0  0  0  0  0  0  0  0  0
   26.3518   -4.8691  105.1755 N   0  0  0  0  0  0  0  0  0  0  0  0
   33.2988   -0.8399  109.2260 O   0  0  0  0  0  0  0  0  0  0  0  0
   32.8311   -2.2066  109.2394 C   0  0  2  0  0  0  0  0  0  0  0  0
   28.3796   -3.6920  106.0627 C   0  0  0  0  0  0  0  0  0  0  0  0
   29.1299   -1.3408  105.5891 N   0  0  0  0  0  0  0  0  0  0  0  0
   34.5718   -4.4849  109.5624 O   0  0  0  0  0  0  0  0  0  0  0  0
   33.6151   -4.3862  108.5521 C   0  0  0  0  0  0  0  0  0  0  0  0
   35.1018   -6.9708  109.1253 O   0  0  0  0  0  0  0  0  0  0  0  0
   29.9921   -4.2960  107.3921 C   0  0  0  0  0  0  0  0  0  0  0  0
   26.8075   -2.7135  104.5977 O   0  0  0  0  0  0  0  0  0  0  0  0
   27.1338   -3.7128  105.2333 C   0  0  0  0  0  0  0  0  0  0  0  0
   29.2495   -2.6199  106.1993 C   0  0  0  0  0  0  0  0  0  0  0  0
   33.6468   -6.2675  111.0732 O   0  5  0  0  0  0  0  0  0  0  0  0
   35.9024   -5.8189  111.2363 O   0  0  0  0  0  0  0  0  0  0  0  0
  1 17  1  0  0  0  0
  1 20  1  0  0  0  0
  2 15  1  1  0  0  0
  2  3  1  0  0  0  0
  2 11  1  0  0  0  0
  3  5  1  0  0  0  0
  4 16  1  6  0  0  0
  4 21  1  0  0  0  0
  4 22  2  0  0  0  0
  4 14  1  0  0  0  0
  5  1  1  1  0  0  0
  5  8  1  0  0  0  0
  6 17  2  0  0  0  0
  6 12  1  0  0  0  0
  8  7  1  6  0  0  0
  8 11  1  0  0  0  0
  9 19  1  0  0  0  0
 11 10  1  6  0  0  0
 12 20  2  0  0  0  0
 12 19  1  0  0  0  0
 13 20  1  0  0  0  0
 14 15  1  0  0  0  0
 18 19  2  0  0  0  0
M  CHG  1  21  -1
M  END
>  <CHROM.1>
62.91485789,173.70533735,53.57868794,174.50707483,-0.30673619,31.64179766
-3.74675899,108.08162475,-2.87898716,0.58059694,-3.13841974

>  <Name>
ligand

>  <RI>
0

>  <Rbt.Current_Directory>
/home/itssahil/PROJECTS/Mol_Feturizer/New_Systems/rnas/4XW7

>  <Rbt.Executable>
rbdock ($Id: //depot/dev/client3/rdock/2013.1/src/exe/rbdock.cxx#4 $)

>  <Rbt.Library>
libRbt.so (2013.1, Build901 2013/11/27)

>  <Rbt.Parameter_File>
/export/apps/rDock/src/rDock_2013.1_src/data/scripts/dock_solv.prm

>  <Rbt.Receptor>
prm/pocket_docking_6.prm

>  <SCORE>
-9.07291

>  <SCORE.INTER>
-8.37699

>  <SCORE.INTER.CONST>
1

>  <SCORE.INTER.POLAR>
0

>  <SCORE.INTER.ROT>
5

>  <SCORE.INTER.SOLV>
9.39905

>  <SCORE.INTER.VDW>
-15.651

>  <SCORE.INTER.norm>
-0.380772

>  <SCORE.INTRA>
-0.697734

>  <SCORE.INTRA.DIHEDRAL>
-0.786228

>  <SCORE.INTRA.DIHEDRAL.0>
2.61549

>  <SCORE.INTRA.POLAR>
0

>  <SCORE.INTRA.POLAR.0>
0

>  <SCORE.INTRA.REPUL>
0

>  <SCORE.INTRA.REPUL.0>
0

>  <SCORE.INTRA.SOLV>
-0.592382

>  <SCORE.INTRA.SOLV.lig_0>
-73.766

>  <SCORE.INTRA.VDW>
-0.00842951

>  <SCORE.INTRA.VDW.0>
-1.95055

>  <SCORE.INTRA.norm>
-0.0317152

>  <SCORE.RESTR>
0.00180972

>  <SCORE.RESTR.CAVITY>
0.00180972

>  <SCORE.RESTR.norm>
8.226e-05

>  <SCORE.SYSTEM>
0

>  <SCORE.SYSTEM.CONST>
0

>  <SCORE.SYSTEM.DIHEDRAL>
0

>  <SCORE.SYSTEM.SOLV>
0

>  <SCORE.SYSTEM.norm>
0

>  <SCORE.heavy>
22

>  <SCORE.norm>
-0.412405

>  <RMSD>
7.173

$$$$
ligand
 OpenBabel11021811513D
libRbt.so/2013.1/901 2013/11/27
 22 23  0  0  0  0  0  0  0  0999 V2000
   28.1546   -1.7049  102.4289 N   0  0  0  0  0  0  0  0  0  0  0  0
   28.3490   -3.9400   99.8451 C   0  0  1  0  0  0  0  0  0  0  0  0
   27.9343   -3.7159  101.2376 O   0  0  0  0  0  0  0  0  0  0  0  0
   31.6849   -5.7459  100.3112 P   0  0  2  0  0  0  0  0  0  0  0  0
   27.5180   -2.3228  101.3475 C   0  0  2  0  0  0  0  0  0  0  0  0
   29.7142   -1.0685  103.8341 N   0  0  0  0  0  0  0  0  0  0  0  0
   26.9307   -0.6756   99.7170 O   0  0  0  0  0  0  0  0  0  0  0  0
   27.9028   -1.6663  100.0827 C   0  0  2  0  0  0  0  0  0  0  0  0
   29.3174    0.3659  106.4509 N   0  0  0  0  0  0  0  0  0  0  0  0
   26.6195   -2.9398   98.5417 O   0  0  0  0  0  0  0  0  0  0  0  0
   27.9417   -2.7465   99.0908 C   0  0  2  0  0  0  0  0  0  0  0  0
   28.5533   -0.5111  104.2301 C   0  0  0  0  0  0  0  0  0  0  0  0
   26.1808   -0.5459  103.4021 N   0  0  0  0  0  0  0  0  0  0  0  0
   30.1739   -5.3448  100.2966 O   0  0  0  0  0  0  0  0  0  0  0  0
   29.8225   -4.0983   99.7783 C   0  0  0  0  0  0  0  0  0  0  0  0
   32.4480   -4.9362  101.4426 O   0  0  0  0  0  0  0  0  0  0  0  0
   29.4515   -1.7995  102.7249 C   0  0  0  0  0  0  0  0  0  0  0  0
   27.3906    1.1112  105.4916 O   0  0  0  0  0  0  0  0  0  0  0  0
   28.3738    0.3782  105.4206 C   0  0  0  0  0  0  0  0  0  0  0  0
   27.5557   -0.9064  103.3508 C   0  0  0  0  0  0  0  0  0  0  0  0
   32.3104   -5.5325   98.9866 O   0  5  0  0  0  0  0  0  0  0  0  0
   31.8542   -7.2123  100.4986 O   0  0  0  0  0  0  0  0  0  0  0  0
  1 17  1  0  0  0  0
  1 20  1  0  0  0  0
  2 15  1  1  0  0  0
  2  3  1  0  0  0  0
  2 11  1  0  0  0  0
  3  5  1  0  0  0  0
  4 16  1  1  0  0  0
  4 21  1  0  0  0  0
  4 22  2  0  0  0  0
  4 14  1  0  0  0  0
  5  1  1  1  0  0  0
  5  8  1  0  0  0  0
  6 17  2  0  0  0  0
  6 12  1  0  0  0  0
  8  7  1  6  0  0  0
  8 11  1  0  0  0  0
  9 19  1  0  0  0  0
 11 10  1  1  0  0  0
 12 20  2  0  0  0  0
 12 19  1  0  0  0  0
 13 20  1  0  0  0  0
 14 15  1  0  0  0  0
 18 19  2  0  0  0  0
M  CHG  1  21  -1
M  END
>  <CHROM.1>
45.55656966,73.23836244,73.70216150,179.14971961,-20.16249785,29.10864798
-2.78853236,101.59598673,2.11577801,-0.60704860,1.00119385

>  <Name>
ligand

>  <RI>
0

>  <Rbt.Current_Directory>
/home/itssahil/PROJECTS/Mol_Feturizer/New_Systems/rnas/4XW7

>  <Rbt.Executable>
rbdock ($Id: //depot/dev/client3/rdock/2013.1/src/exe/rbdock.cxx#4 $)

>  <Rbt.Library>
libRbt.so (2013.1, Build901 2013/11/27)

>  <Rbt.Parameter_File>
/export/apps/rDock/src/rDock_2013.1_src/data/scripts/dock_solv.prm

>  <Rbt.Receptor>
prm/pocket_docking_8.prm

>  <SCORE>
-9.3707

>  <SCORE.INTER>
-8.96033

>  <SCORE.INTER.CONST>
1

>  <SCORE.INTER.POLAR>
0

>  <SCORE.INTER.ROT>
5

>  <SCORE.INTER.SOLV>
12.8936

>  <SCORE.INTER.VDW>
-17.2047

>  <SCORE.INTER.norm>
-0.407288

>  <SCORE.INTRA>
-0.410367

>  <SCORE.INTRA.DIHEDRAL>
0.186133

>  <SCORE.INTRA.DIHEDRAL.0>
2.61549

>  <SCORE.INTRA.POLAR>
0

>  <SCORE.INTRA.POLAR.0>
0

>  <SCORE.INTRA.REPUL>
0

>  <SCORE.INTRA.REPUL.0>
0

>  <SCORE.INTRA.SOLV>
-0.299006

>  <SCORE.INTRA.SOLV.lig_0>
-73.766

>  <SCORE.INTRA.VDW>
-0.35393

>  <SCORE.INTRA.VDW.0>
-1.95055

>  <SCORE.INTRA.norm>
-0.018653

>  <SCORE.RESTR>
0

>  <SCORE.RESTR.CAVITY>
0

>  <SCORE.RESTR.norm>
0

>  <SCORE.SYSTEM>
0

>  <SCORE.SYSTEM.CONST>
0

>  <SCORE.SYSTEM.DIHEDRAL>
0

>  <SCORE.SYSTEM.SOLV>
0

>  <SCORE.SYSTEM.norm>
0

>  <SCORE.heavy>
22

>  <SCORE.norm>
-0.425941

>  <RMSD>
7.174

$$$$
ligand
 OpenBabel11021811513D
libRbt.so/2013.1/901 2013/11/27
 22 23  0  0  0  0  0  0  0  0999 V2000
   30.1394   -2.9305  106.9574 N   0  0  0  0  0  0  0  0  0  0  0  0
   33.3673   -2.6629  108.0616 C   0  0  1  0  0  0  0  0  0  0  0  0
   32.4647   -2.6107  106.9023 O   0  0  0  0  0  0  0  0  0  0  0  0
   34.8359   -5.4876  110.1699 P   0  0  2  0  0  0  0  0  0  0  0  0
   31.1835   -2.0974  107.3727 C   0  0  2  0  0  0  0  0  0  0  0  0
   28.8335   -4.6814  106.7562 N   0  0  0  0  0  0  0  0  0  0  0  0
   30.5369   -0.9335  109.3587 O   0  0  0  0  0  0  0  0  0  0  0  0
   31.2576   -2.0642  108.8466 C   0  0  2  0  0  0  0  0  0  0  0  0
   26.4242   -5.0285  105.0306 N   0  0  0  0  0  0  0  0  0  0  0  0
   33.0699   -0.5568  109.1415 O   0  0  0  0  0  0  0  0  0  0  0  0
   32.6880   -1.9500  109.1523 C   0  0  2  0  0  0  0  0  0  0  0  0
   28.3415   -3.7098  105.9632 C   0  0  0  0  0  0  0  0  0  0  0  0
   29.0011   -1.3482  105.4124 N   0  0  0  0  0  0  0  0  0  0  0  0
   34.5428   -4.1144  109.4824 O   0  0  0  0  0  0  0  0  0  0  0  0
   33.6022   -4.0744  108.4530 C   0  0  0  0  0  0  0  0  0  0  0  0
   35.0737   -6.6040  109.0676 O   0  0  0  0  0  0  0  0  0  0  0  0
   29.9394   -4.1858  107.3606 C   0  0  0  0  0  0  0  0  0  0  0  0
   26.7453   -2.8492  104.4511 O   0  0  0  0  0  0  0  0  0  0  0  0
   27.1227   -3.8205  105.1014 C   0  0  0  0  0  0  0  0  0  0  0  0
   29.1589   -2.5948  106.0787 C   0  0  0  0  0  0  0  0  0  0  0  0
   33.7434   -5.8709  111.0922 O   0  5  0  0  0  0  0  0  0  0  0  0
   35.9991   -5.3937  111.0931 O   0  0  0  0  0  0  0  0  0  0  0  0
  1 17  1  0  0  0  0
  1 20  1  0  0  0  0
  2 15  1  1  0  0  0
  2  3  1  0  0  0  0
  2 11  1  0  0  0  0
  3  5  1  0  0  0  0
  4 16  1  6  0  0  0
  4 21  1  0  0  0  0
  4 22  2  0  0  0  0
  4 14  1  0  0  0  0
  5  1  1  1  0  0  0
  5  8  1  0  0  0  0
  6 17  2  0  0  0  0
  6 12  1  0  0  0  0
  8  7  1  6  0  0  0
  8 11  1  0  0  0  0
  9 19  1  0  0  0  0
 11 10  1  6  0  0  0
 12 20  2  0  0  0  0
 12 19  1  0  0  0  0
 13 20  1  0  0  0  0
 14 15  1  0  0  0  0
 18 19  2  0  0  0  0
M  CHG  1  21  -1
M  END
>  <CHROM.1>
66.27153872,175.24006717,47.97242981,173.34350065,-2.78964383,31.58581574
-3.56104533,107.99315196,-2.95155995,0.58805308,-3.10605485

>  <Name>
ligand

>  <RI>
0

>  <Rbt.Current_Directory>
/home/itssahil/PROJECTS/Mol_Feturizer/New_Systems/rnas/4XW7

>  <Rbt.Executable>
rbdock ($Id: //depot/dev/client3/rdock/2013.1/src/exe/rbdock.cxx#4 $)

>  <Rbt.Library>
libRbt.so (2013.1, Build901 2013/11/27)

>  <Rbt.Parameter_File>
/export/apps/rDock/src/rDock_2013.1_src/data/scripts/dock_solv.prm

>  <Rbt.Receptor>
prm/pocket_docking_5.prm

>  <SCORE>
-8.13129

>  <SCORE.INTER>
-7.58753

>  <SCORE.INTER.CONST>
1

>  <SCORE.INTER.POLAR>
0

>  <SCORE.INTER.ROT>
5

>  <SCORE.INTER.SOLV>
10.4707

>  <SCORE.INTER.VDW>
-15.4819

>  <SCORE.INTER.norm>
-0.344888

>  <SCORE.INTRA>
-0.547727

>  <SCORE.INTRA.DIHEDRAL>
-0.60472

>  <SCORE.INTRA.DIHEDRAL.0>
2.61549

>  <SCORE.INTRA.POLAR>
0

>  <SCORE.INTRA.POLAR.0>
0

>  <SCORE.INTRA.REPUL>
0

>  <SCORE.INTRA.REPUL.0>
0

>  <SCORE.INTRA.SOLV>
-0.67456

>  <SCORE.INTRA.SOLV.lig_0>
-73.766

>  <SCORE.INTRA.VDW>
0.091913

>  <SCORE.INTRA.VDW.0>
-1.95055

>  <SCORE.INTRA.norm>
-0.0248967

>  <SCORE.RESTR>
0.00396572

>  <SCORE.RESTR.CAVITY>
0.00396572

>  <SCORE.RESTR.norm>
0.00018026

>  <SCORE.SYSTEM>
0

>  <SCORE.SYSTEM.CONST>
0

>  <SCORE.SYSTEM.DIHEDRAL>
0

>  <SCORE.SYSTEM.SOLV>
0

>  <SCORE.SYSTEM.norm>
0

>  <SCORE.heavy>
22

>  <SCORE.norm>
-0.369604

>  <RMSD>
7.187

$$$$
ligand
 OpenBabel11021811513D
libRbt.so/2013.1/901 2013/11/27
 22 23  0  0  0  0  0  0  0  0999 V2000
   27.8478   -5.1280  102.4338 N   0  0  0  0  0  0  0  0  0  0  0  0
   28.9094   -1.8889  102.1318 C   0  0  1  0  0  0  0  0  0  0  0  0
   29.2995   -3.3064  102.1401 O   0  0  0  0  0  0  0  0  0  0  0  0
   29.8720   -0.7728  105.6580 P   0  0  2  0  0  0  0  0  0  0  0  0
   28.1846   -4.0664  101.5875 C   0  0  2  0  0  0  0  0  0  0  0  0
   27.2364   -6.2495  104.2171 N   0  0  0  0  0  0  0  0  0  0  0  0
   26.2720   -3.4307  100.3012 O   0  0  0  0  0  0  0  0  0  0  0  0
   27.0520   -3.1274  101.4672 C   0  0  2  0  0  0  0  0  0  0  0  0
   26.9291   -9.1980  104.5571 N   0  0  0  0  0  0  0  0  0  0  0  0
   27.9805   -1.5410   99.9624 O   0  0  0  0  0  0  0  0  0  0  0  0
   27.6690   -1.8017  101.3488 C   0  0  2  0  0  0  0  0  0  0  0  0
   27.4323   -7.1365  103.2222 C   0  0  0  0  0  0  0  0  0  0  0  0
   28.1293   -6.9926  100.8120 N   0  0  0  0  0  0  0  0  0  0  0  0
   29.8828   -1.2565  104.1714 O   0  0  0  0  0  0  0  0  0  0  0  0
   28.6614   -1.4273  103.5196 C   0  0  0  0  0  0  0  0  0  0  0  0
   29.2293    0.6751  105.7505 O   0  0  0  0  0  0  0  0  0  0  0  0
   27.4962   -5.0187  103.7155 C   0  0  0  0  0  0  0  0  0  0  0  0
   27.4272   -9.3259  102.3381 O   0  0  0  0  0  0  0  0  0  0  0  0
   27.2630   -8.6198  103.3297 C   0  0  0  0  0  0  0  0  0  0  0  0
   27.8216   -6.4413  102.0864 C   0  0  0  0  0  0  0  0  0  0  0  0
   31.2332   -0.7918  106.2393 O   0  5  0  0  0  0  0  0  0  0  0  0
   29.1497   -1.7337  106.5350 O   0  0  0  0  0  0  0  0  0  0  0  0
  1 17  1  0  0  0  0
  1 20  1  0  0  0  0
  2 15  1  1  0  0  0
  2  3  1  0  0  0  0
  2 11  1  0  0  0  0
  3  5  1  0  0  0  0
  4 16  1  1  0  0  0
  4 21  1  0  0  0  0
  4 22  2  0  0  0  0
  4 14  1  0  0  0  0
  5  1  1  1  0  0  0
  5  8  1  0  0  0  0
  6 17  2  0  0  0  0
  6 12  1  0  0  0  0
  8  7  1  6  0  0  0
  8 11  1  0  0  0  0
  9 19  1  0  0  0  0
 11 10  1  6  0  0  0
 12 20  2  0  0  0  0
 12 19  1  0  0  0  0
 13 20  1  0  0  0  0
 14 15  1  0  0  0  0
 18 19  2  0  0  0  0
M  CHG  1  21  -1
M  END
>  <CHROM.1>
57.43962142,75.09899266,-62.80620044,-179.91962892,-2.93449882,28.36020091
-3.73713716,103.23700779,2.54173726,1.19499260,2.54441043

>  <Name>
ligand

>  <RI>
0

>  <Rbt.Current_Directory>
/home/itssahil/PROJECTS/Mol_Feturizer/New_Systems/rnas/4XW7

>  <Rbt.Executable>
rbdock ($Id: //depot/dev/client3/rdock/2013.1/src/exe/rbdock.cxx#4 $)

>  <Rbt.Library>
libRbt.so (2013.1, Build901 2013/11/27)

>  <Rbt.Parameter_File>
/export/apps/rDock/src/rDock_2013.1_src/data/scripts/dock_solv.prm

>  <Rbt.Receptor>
prm/pocket_docking_6.prm

>  <SCORE>
-4.16112

>  <SCORE.INTER>
-3.41816

>  <SCORE.INTER.CONST>
1

>  <SCORE.INTER.POLAR>
0

>  <SCORE.INTER.ROT>
5

>  <SCORE.INTER.SOLV>
12.412

>  <SCORE.INTER.VDW>
-13.3495

>  <SCORE.INTER.norm>
-0.155371

>  <SCORE.INTRA>
-0.742963

>  <SCORE.INTRA.DIHEDRAL>
-0.325147

>  <SCORE.INTRA.DIHEDRAL.0>
2.61549

>  <SCORE.INTRA.POLAR>
0

>  <SCORE.INTRA.POLAR.0>
0

>  <SCORE.INTRA.REPUL>
0

>  <SCORE.INTRA.REPUL.0>
0

>  <SCORE.INTRA.SOLV>
-0.664172

>  <SCORE.INTRA.SOLV.lig_0>
-73.766

>  <SCORE.INTRA.VDW>
-0.248304

>  <SCORE.INTRA.VDW.0>
-1.95055

>  <SCORE.INTRA.norm>
-0.0337711

>  <SCORE.RESTR>
0

>  <SCORE.RESTR.CAVITY>
0

>  <SCORE.RESTR.norm>
0

>  <SCORE.SYSTEM>
0

>  <SCORE.SYSTEM.CONST>
0

>  <SCORE.SYSTEM.DIHEDRAL>
0

>  <SCORE.SYSTEM.SOLV>
0

>  <SCORE.SYSTEM.norm>
0

>  <SCORE.heavy>
22

>  <SCORE.norm>
-0.189142

>  <RMSD>
7.241

$$$$
ligand
 OpenBabel11021811513D
libRbt.so/2013.1/901 2013/11/27
 22 23  0  0  0  0  0  0  0  0999 V2000
   30.6016   -3.0641  107.2741 N   0  0  0  0  0  0  0  0  0  0  0  0
   33.7975   -3.2346  108.4853 C   0  0  1  0  0  0  0  0  0  0  0  0
   32.9489   -3.0267  107.3029 O   0  0  0  0  0  0  0  0  0  0  0  0
   34.8821   -6.3150  110.4700 P   0  0  2  0  0  0  0  0  0  0  0  0
   31.7229   -2.3812  107.7569 C   0  0  2  0  0  0  0  0  0  0  0  0
   29.1274   -4.6498  106.9223 N   0  0  0  0  0  0  0  0  0  0  0  0
   31.1512   -1.2282  109.7720 O   0  0  0  0  0  0  0  0  0  0  0  0
   31.7486   -2.4164  109.2323 C   0  0  2  0  0  0  0  0  0  0  0  0
   26.7175   -4.6029  105.1624 N   0  0  0  0  0  0  0  0  0  0  0  0
   33.7171   -1.1531  109.6478 O   0  0  0  0  0  0  0  0  0  0  0  0
   33.1707   -2.4890  109.5855 C   0  0  2  0  0  0  0  0  0  0  0  0
   28.7372   -3.5653  106.2247 C   0  0  0  0  0  0  0  0  0  0  0  0
   29.6316   -1.2410  105.8877 N   0  0  0  0  0  0  0  0  0  0  0  0
   34.7071   -4.8685  109.9031 O   0  0  0  0  0  0  0  0  0  0  0  0
   33.8476   -4.6787  108.8210 C   0  0  0  0  0  0  0  0  0  0  0  0
   35.3962   -7.2856  109.3248 O   0  0  0  0  0  0  0  0  0  0  0  0
   30.2758   -4.3247  107.5621 C   0  0  0  0  0  0  0  0  0  0  0  0
   27.2238   -2.4070  104.8309 O   0  0  0  0  0  0  0  0  0  0  0  0
   27.5158   -3.4742  105.3645 C   0  0  0  0  0  0  0  0  0  0  0  0
   29.6620   -2.5529  106.4362 C   0  0  0  0  0  0  0  0  0  0  0  0
   33.6234   -6.8136  111.0685 O   0  5  0  0  0  0  0  0  0  0  0  0
   35.8052   -6.3314  111.6369 O   0  0  0  0  0  0  0  0  0  0  0  0
  1 17  1  0  0  0  0
  1 20  1  0  0  0  0
  2 15  1  1  0  0  0
  2  3  1  0  0  0  0
  2 11  1  0  0  0  0
  3  5  1  0  0  0  0
  4 16  1  6  0  0  0
  4 21  1  0  0  0  0
  4 22  2  0  0  0  0
  4 14  1  0  0  0  0
  5  1  1  6  0  0  0
  5  8  1  0  0  0  0
  6 17  2  0  0  0  0
  6 12  1  0  0  0  0
  8  7  1  1  0  0  0
  8 11  1  0  0  0  0
  9 19  1  0  0  0  0
 11 10  1  6  0  0  0
 12 20  2  0  0  0  0
 12 19  1  0  0  0  0
 13 20  1  0  0  0  0
 14 15  1  0  0  0  0
 18 19  2  0  0  0  0
M  CHG  1  21  -1
M  END
>  <CHROM.1>
62.61718398,177.12378280,57.91504620,177.93306955,-4.31979645,31.92491395
-3.90429347,108.32821333,-2.80744620,0.61024648,-3.13189943

>  <Name>
ligand

>  <RI>
0

>  <Rbt.Current_Directory>
/home/itssahil/PROJECTS/Mol_Feturizer/New_Systems/rnas/4XW7

>  <Rbt.Executable>
rbdock ($Id: //depot/dev/client3/rdock/2013.1/src/exe/rbdock.cxx#4 $)

>  <Rbt.Library>
libRbt.so (2013.1, Build901 2013/11/27)

>  <Rbt.Parameter_File>
/export/apps/rDock/src/rDock_2013.1_src/data/scripts/dock_solv.prm

>  <Rbt.Receptor>
prm/pocket_docking_7.prm

>  <SCORE>
-9.61435

>  <SCORE.INTER>
-8.81145

>  <SCORE.INTER.CONST>
1

>  <SCORE.INTER.POLAR>
0

>  <SCORE.INTER.ROT>
5

>  <SCORE.INTER.SOLV>
9.24747

>  <SCORE.INTER.VDW>
-15.8901

>  <SCORE.INTER.norm>
-0.40052

>  <SCORE.INTRA>
-0.802896

>  <SCORE.INTRA.DIHEDRAL>
-1.0607

>  <SCORE.INTRA.DIHEDRAL.0>
2.61549

>  <SCORE.INTRA.POLAR>
0

>  <SCORE.INTRA.POLAR.0>
0

>  <SCORE.INTRA.REPUL>
0

>  <SCORE.INTRA.REPUL.0>
0

>  <SCORE.INTRA.SOLV>
-0.598454

>  <SCORE.INTRA.SOLV.lig_0>
-73.766

>  <SCORE.INTRA.VDW>
0.026682

>  <SCORE.INTRA.VDW.0>
-1.95055

>  <SCORE.INTRA.norm>
-0.0364953

>  <SCORE.RESTR>
0

>  <SCORE.RESTR.CAVITY>
0

>  <SCORE.RESTR.norm>
0

>  <SCORE.SYSTEM>
0

>  <SCORE.SYSTEM.CONST>
0

>  <SCORE.SYSTEM.DIHEDRAL>
0

>  <SCORE.SYSTEM.SOLV>
0

>  <SCORE.SYSTEM.norm>
0

>  <SCORE.heavy>
22

>  <SCORE.norm>
-0.437016

>  <RMSD>
7.265

$$$$
ligand
 OpenBabel11021811513D
libRbt.so/2013.1/901 2013/11/27
 22 23  0  0  0  0  0  0  0  0999 V2000
   30.6040   -3.1000  107.2692 N   0  0  0  0  0  0  0  0  0  0  0  0
   33.8023   -3.2602  108.4755 C   0  0  1  0  0  0  0  0  0  0  0  0
   32.9514   -3.0638  107.2928 O   0  0  0  0  0  0  0  0  0  0  0  0
   34.8767   -6.3184  110.4992 P   0  0  2  0  0  0  0  0  0  0  0  0
   31.7267   -2.4129  107.7428 C   0  0  2  0  0  0  0  0  0  0  0  0
   29.1361   -4.6931  106.9246 N   0  0  0  0  0  0  0  0  0  0  0  0
   31.1598   -1.2393  109.7474 O   0  0  0  0  0  0  0  0  0  0  0  0
   31.7554   -2.4334  109.2185 C   0  0  2  0  0  0  0  0  0  0  0  0
   26.6702   -4.6337  105.2464 N   0  0  0  0  0  0  0  0  0  0  0  0
   33.7254   -1.1671  109.6171 O   0  0  0  0  0  0  0  0  0  0  0  0
   33.1782   -2.5032  109.5695 C   0  0  2  0  0  0  0  0  0  0  0  0
   28.7300   -3.6064  106.2396 C   0  0  0  0  0  0  0  0  0  0  0  0
   29.6047   -1.2739  105.9078 N   0  0  0  0  0  0  0  0  0  0  0  0
   34.7140   -4.8804  109.9077 O   0  0  0  0  0  0  0  0  0  0  0  0
   33.8522   -4.7009  108.8256 C   0  0  0  0  0  0  0  0  0  0  0  0
   35.3838   -7.3125  109.3711 O   0  0  0  0  0  0  0  0  0  0  0  0
   30.2901   -4.3647  107.5524 C   0  0  0  0  0  0  0  0  0  0  0  0
   27.2215   -2.4636  104.8277 O   0  0  0  0  0  0  0  0  0  0  0  0
   27.4974   -3.5175  105.3953 C   0  0  0  0  0  0  0  0  0  0  0  0
   29.6506   -2.5894  106.4466 C   0  0  0  0  0  0  0  0  0  0  0  0
   33.6136   -6.7965  111.1050 O   0  5  0  0  0  0  0  0  0  0  0  0
   35.7988   -6.3225  111.6671 O   0  0  0  0  0  0  0  0  0  0  0  0
  1 17  1  0  0  0  0
  1 20  1  0  0  0  0
  2 15  1  1  0  0  0
  2  3  1  0  0  0  0
  2 11  1  0  0  0  0
  3  5  1  0  0  0  0
  4 16  1  6  0  0  0
  4 21  1  0  0  0  0
  4 22  2  0  0  0  0
  4 14  1  0  0  0  0
  5  1  1  6  0  0  0
  5  8  1  0  0  0  0
  6 17  2  0  0  0  0
  6 12  1  0  0  0  0
  8  7  1  1  0  0  0
  8 11  1  0  0  0  0
  9 19  1  0  0  0  0
 11 10  1  6  0  0  0
 12 20  2  0  0  0  0
 12 19  1  0  0  0  0
 13 20  1  0  0  0  0
 14 15  1  0  0  0  0
 18 19  2  0  0  0  0
M  CHG  1  21  -1
M  END
>  <CHROM.1>
61.39976347,177.11526810,58.20239132,177.24128482,-1.30530780,31.92176669
-3.92741384,108.33744763,-2.80245945,0.60500999,3.13468130

>  <Name>
ligand

>  <RI>
0

>  <Rbt.Current_Directory>
/home/itssahil/PROJECTS/Mol_Feturizer/New_Systems/rnas/4XW7

>  <Rbt.Executable>
rbdock ($Id: //depot/dev/client3/rdock/2013.1/src/exe/rbdock.cxx#4 $)

>  <Rbt.Library>
libRbt.so (2013.1, Build901 2013/11/27)

>  <Rbt.Parameter_File>
/export/apps/rDock/src/rDock_2013.1_src/data/scripts/dock_solv.prm

>  <Rbt.Receptor>
prm/pocket_docking_7.prm

>  <SCORE>
-9.61078

>  <SCORE.INTER>
-8.80869

>  <SCORE.INTER.CONST>
1

>  <SCORE.INTER.POLAR>
0

>  <SCORE.INTER.ROT>
5

>  <SCORE.INTER.SOLV>
9.04749

>  <SCORE.INTER.VDW>
-15.8216

>  <SCORE.INTER.norm>
-0.400395

>  <SCORE.INTRA>
-0.802093

>  <SCORE.INTRA.DIHEDRAL>
-1.06495

>  <SCORE.INTRA.DIHEDRAL.0>
2.61549

>  <SCORE.INTRA.POLAR>
0

>  <SCORE.INTRA.POLAR.0>
0

>  <SCORE.INTRA.REPUL>
0

>  <SCORE.INTRA.REPUL.0>
0

>  <SCORE.INTRA.SOLV>
-0.556012

>  <SCORE.INTRA.SOLV.lig_0>
-73.766

>  <SCORE.INTRA.VDW>
0.00838641

>  <SCORE.INTRA.VDW.0>
-1.95055

>  <SCORE.INTRA.norm>
-0.0364588

>  <SCORE.RESTR>
0

>  <SCORE.RESTR.CAVITY>
0

>  <SCORE.RESTR.norm>
0

>  <SCORE.SYSTEM>
0

>  <SCORE.SYSTEM.CONST>
0

>  <SCORE.SYSTEM.DIHEDRAL>
0

>  <SCORE.SYSTEM.SOLV>
0

>  <SCORE.SYSTEM.norm>
0

>  <SCORE.heavy>
22

>  <SCORE.norm>
-0.436854

>  <RMSD>
7.266

$$$$
ligand
 OpenBabel11021811513D
libRbt.so/2013.1/901 2013/11/27
 22 23  0  0  0  0  0  0  0  0999 V2000
   30.4555   -3.1429  107.2618 N   0  0  0  0  0  0  0  0  0  0  0  0
   33.6764   -3.1582  108.4173 C   0  0  1  0  0  0  0  0  0  0  0  0
   32.7996   -3.0133  107.2461 O   0  0  0  0  0  0  0  0  0  0  0  0
   34.9738   -6.1493  110.4099 P   0  0  2  0  0  0  0  0  0  0  0  0
   31.5572   -2.4049  107.7069 C   0  0  2  0  0  0  0  0  0  0  0  0
   29.0308   -4.7882  106.9880 N   0  0  0  0  0  0  0  0  0  0  0  0
   30.9761   -1.2249  109.7037 O   0  0  0  0  0  0  0  0  0  0  0  0
   31.6103   -2.4022  109.1821 C   0  0  2  0  0  0  0  0  0  0  0  0
   27.4761   -3.4793  104.0248 N   0  0  0  0  0  0  0  0  0  0  0  0
   33.5344   -1.0530  109.5300 O   0  0  0  0  0  0  0  0  0  0  0  0
   33.0401   -2.4103  109.5105 C   0  0  2  0  0  0  0  0  0  0  0  0
   28.6014   -3.7469  106.2489 C   0  0  0  0  0  0  0  0  0  0  0  0
   29.4182   -1.4114  105.8083 N   0  0  0  0  0  0  0  0  0  0  0  0
   34.7391   -4.7294  109.7991 O   0  0  0  0  0  0  0  0  0  0  0  0
   33.7893   -4.5904  108.7870 C   0  0  0  0  0  0  0  0  0  0  0  0
   35.4220   -7.1598  109.2717 O   0  0  0  0  0  0  0  0  0  0  0  0
   30.1723   -4.4001  107.6047 C   0  0  0  0  0  0  0  0  0  0  0  0
   26.2726   -3.9310  105.9052 O   0  0  0  0  0  0  0  0  0  0  0  0
   27.3721   -3.7310  105.3952 C   0  0  0  0  0  0  0  0  0  0  0  0
   29.4944   -2.6976  106.4107 C   0  0  0  0  0  0  0  0  0  0  0  0
   33.7666   -6.6378  111.1138 O   0  5  0  0  0  0  0  0  0  0  0  0
   35.9750   -6.1070  111.5099 O   0  0  0  0  0  0  0  0  0  0  0  0
  1 17  1  0  0  0  0
  1 20  1  0  0  0  0
  2 15  1  1  0  0  0
  2  3  1  0  0  0  0
  2 11  1  0  0  0  0
  3  5  1  0  0  0  0
  4 16  1  6  0  0  0
  4 21  1  0  0  0  0
  4 22  2  0  0  0  0
  4 14  1  0  0  0  0
  5  1  1  1  0  0  0
  5  8  1  0  0  0  0
  6 17  2  0  0  0  0
  6 12  1  0  0  0  0
  8  7  1  6  0  0  0
  8 11  1  0  0  0  0
  9 19  1  0  0  0  0
 11 10  1  6  0  0  0
 12 20  2  0  0  0  0
 12 19  1  0  0  0  0
 13 20  1  0  0  0  0
 14 15  1  0  0  0  0
 18 19  2  0  0  0  0
M  CHG  1  21  -1
M  END
>  <CHROM.1>
63.85152979,173.31987743,58.91592528,176.65411420,-120.96309867,31.84899907
-3.90794593,108.29340786,-2.87067629,0.59240971,-3.10658896

>  <Name>
ligand

>  <RI>
0

>  <Rbt.Current_Directory>
/home/itssahil/PROJECTS/Mol_Feturizer/New_Systems/rnas/4XW7

>  <Rbt.Executable>
rbdock ($Id: //depot/dev/client3/rdock/2013.1/src/exe/rbdock.cxx#4 $)

>  <Rbt.Library>
libRbt.so (2013.1, Build901 2013/11/27)

>  <Rbt.Parameter_File>
/export/apps/rDock/src/rDock_2013.1_src/data/scripts/dock_solv.prm

>  <Rbt.Receptor>
prm/pocket_docking_7.prm

>  <SCORE>
-9.65386

>  <SCORE.INTER>
-8.73909

>  <SCORE.INTER.CONST>
1

>  <SCORE.INTER.POLAR>
0

>  <SCORE.INTER.ROT>
5

>  <SCORE.INTER.SOLV>
9.47728

>  <SCORE.INTER.VDW>
-15.9185

>  <SCORE.INTER.norm>
-0.397231

>  <SCORE.INTRA>
-0.914768

>  <SCORE.INTRA.DIHEDRAL>
-0.926337

>  <SCORE.INTRA.DIHEDRAL.0>
2.61549

>  <SCORE.INTRA.POLAR>
0

>  <SCORE.INTRA.POLAR.0>
0

>  <SCORE.INTRA.REPUL>
0

>  <SCORE.INTRA.REPUL.0>
0

>  <SCORE.INTRA.SOLV>
-0.615184

>  <SCORE.INTRA.SOLV.lig_0>
-73.766

>  <SCORE.INTRA.VDW>
-0.144008

>  <SCORE.INTRA.VDW.0>
-1.95055

>  <SCORE.INTRA.norm>
-0.0415804

>  <SCORE.RESTR>
0

>  <SCORE.RESTR.CAVITY>
0

>  <SCORE.RESTR.norm>
0

>  <SCORE.SYSTEM>
0

>  <SCORE.SYSTEM.CONST>
0

>  <SCORE.SYSTEM.DIHEDRAL>
0

>  <SCORE.SYSTEM.SOLV>
0

>  <SCORE.SYSTEM.norm>
0

>  <SCORE.heavy>
22

>  <SCORE.norm>
-0.438812

>  <RMSD>
7.285

$$$$
ligand
 OpenBabel11021811513D
libRbt.so/2013.1/901 2013/11/27
 22 23  0  0  0  0  0  0  0  0999 V2000
   30.5169   -3.1910  107.2692 N   0  0  0  0  0  0  0  0  0  0  0  0
   33.7491   -3.2438  108.3915 C   0  0  1  0  0  0  0  0  0  0  0  0
   32.8624   -3.0952  107.2283 O   0  0  0  0  0  0  0  0  0  0  0  0
   34.9366   -6.2248  110.4661 P   0  0  2  0  0  0  0  0  0  0  0  0
   31.6336   -2.4655  107.6972 C   0  0  2  0  0  0  0  0  0  0  0  0
   29.0828   -4.8284  106.9975 N   0  0  0  0  0  0  0  0  0  0  0  0
   31.0902   -1.2623  109.6907 O   0  0  0  0  0  0  0  0  0  0  0  0
   31.7021   -2.4524  109.1717 C   0  0  2  0  0  0  0  0  0  0  0  0
   27.4332   -3.4884  104.1176 N   0  0  0  0  0  0  0  0  0  0  0  0
   33.6488   -1.1284  109.4894 O   0  0  0  0  0  0  0  0  0  0  0  0
   33.1350   -2.4786  109.4854 C   0  0  2  0  0  0  0  0  0  0  0  0
   28.6290   -3.7666  106.3034 C   0  0  0  0  0  0  0  0  0  0  0  0
   29.4316   -1.4193  105.9017 N   0  0  0  0  0  0  0  0  0  0  0  0
   34.7325   -4.8071  109.8394 O   0  0  0  0  0  0  0  0  0  0  0  0
   33.8455   -4.6747  108.7710 C   0  0  0  0  0  0  0  0  0  0  0  0
   35.4102   -7.2466  109.3484 O   0  0  0  0  0  0  0  0  0  0  0  0
   30.2448   -4.4575  107.5857 C   0  0  0  0  0  0  0  0  0  0  0  0
   26.2858   -3.8958  106.0427 O   0  0  0  0  0  0  0  0  0  0  0  0
   27.3713   -3.7269  105.4929 C   0  0  0  0  0  0  0  0  0  0  0  0
   29.5276   -2.7220  106.4644 C   0  0  0  0  0  0  0  0  0  0  0  0
   33.7048   -6.6985  111.1364 O   0  5  0  0  0  0  0  0  0  0  0  0
   35.9047   -6.1834  111.5954 O   0  0  0  0  0  0  0  0  0  0  0  0
  1 17  1  0  0  0  0
  1 20  1  0  0  0  0
  2 15  1  1  0  0  0
  2  3  1  0  0  0  0
  2 11  1  0  0  0  0
  3  5  1  0  0  0  0
  4 16  1  6  0  0  0
  4 21  1  0  0  0  0
  4 22  2  0  0  0  0
  4 14  1  0  0  0  0
  5  1  1  1  0  0  0
  5  8  1  0  0  0  0
  6 17  2  0  0  0  0
  6 12  1  0  0  0  0
  8  7  1  6  0  0  0
  8 11  1  0  0  0  0
  9 19  1  0  0  0  0
 11 10  1  6  0  0  0
 12 20  2  0  0  0  0
 12 19  1  0  0  0  0
 13 20  1  0  0  0  0
 14 15  1  0  0  0  0
 18 19  2  0  0  0  0
M  CHG  1  21  -1
M  END
>  <CHROM.1>
61.24573123,177.54728649,56.96658706,176.70963691,-118.44385423,31.87706939
-3.95957639,108.32483112,-2.83674534,0.58079544,3.13138186

>  <Name>
ligand

>  <RI>
0

>  <Rbt.Current_Directory>
/home/itssahil/PROJECTS/Mol_Feturizer/New_Systems/rnas/4XW7

>  <Rbt.Executable>
rbdock ($Id: //depot/dev/client3/rdock/2013.1/src/exe/rbdock.cxx#4 $)

>  <Rbt.Library>
libRbt.so (2013.1, Build901 2013/11/27)

>  <Rbt.Parameter_File>
/export/apps/rDock/src/rDock_2013.1_src/data/scripts/dock_solv.prm

>  <Rbt.Receptor>
prm/pocket_docking_7.prm

>  <SCORE>
-9.71784

>  <SCORE.INTER>
-8.78567

>  <SCORE.INTER.CONST>
1

>  <SCORE.INTER.POLAR>
0

>  <SCORE.INTER.ROT>
5

>  <SCORE.INTER.SOLV>
9.11406

>  <SCORE.INTER.VDW>
-15.8285

>  <SCORE.INTER.norm>
-0.399349

>  <SCORE.INTRA>
-0.932168

>  <SCORE.INTRA.DIHEDRAL>
-1.0458

>  <SCORE.INTRA.DIHEDRAL.0>
2.61549

>  <SCORE.INTRA.POLAR>
0

>  <SCORE.INTRA.POLAR.0>
0

>  <SCORE.INTRA.REPUL>
0

>  <SCORE.INTRA.REPUL.0>
0

>  <SCORE.INTRA.SOLV>
-0.567396

>  <SCORE.INTRA.SOLV.lig_0>
-73.766

>  <SCORE.INTRA.VDW>
-0.125571

>  <SCORE.INTRA.VDW.0>
-1.95055

>  <SCORE.INTRA.norm>
-0.0423713

>  <SCORE.RESTR>
0

>  <SCORE.RESTR.CAVITY>
0

>  <SCORE.RESTR.norm>
0

>  <SCORE.SYSTEM>
0

>  <SCORE.SYSTEM.CONST>
0

>  <SCORE.SYSTEM.DIHEDRAL>
0

>  <SCORE.SYSTEM.SOLV>
0

>  <SCORE.SYSTEM.norm>
0

>  <SCORE.heavy>
22

>  <SCORE.norm>
-0.44172

>  <RMSD>
7.288

$$$$
ligand
 OpenBabel11021811513D
libRbt.so/2013.1/901 2013/11/27
 22 23  0  0  0  0  0  0  0  0999 V2000
   28.0065   -1.3384  103.1873 N   0  0  0  0  0  0  0  0  0  0  0  0
   29.3096   -0.1122  106.1043 C   0  0  1  0  0  0  0  0  0  0  0  0
   28.8773    0.1985  104.7339 O   0  0  0  0  0  0  0  0  0  0  0  0
   32.5490   -1.4972  107.5854 P   0  0  2  0  0  0  0  0  0  0  0  0
   27.7766   -0.7019  104.4115 C   0  0  2  0  0  0  0  0  0  0  0  0
   28.9713   -2.5125  101.6054 N   0  0  0  0  0  0  0  0  0  0  0  0
   26.3477   -2.0606  105.7640 O   0  0  0  0  0  0  0  0  0  0  0  0
   27.7107   -1.6952  105.5015 C   0  0  2  0  0  0  0  0  0  0  0  0
   27.9159   -3.2353   98.9085 N   0  0  0  0  0  0  0  0  0  0  0  0
   27.2795   -0.2639  107.3477 O   0  0  0  0  0  0  0  0  0  0  0  0
   28.3011   -1.0227  106.6640 C   0  0  2  0  0  0  0  0  0  0  0  0
   27.7789   -2.0955  101.1371 C   0  0  0  0  0  0  0  0  0  0  0  0
   25.8824   -0.7221  102.0496 N   0  0  0  0  0  0  0  0  0  0  0  0
   31.1440   -0.8461  107.3706 O   0  0  0  0  0  0  0  0  0  0  0  0
   30.6320   -0.7838  106.0746 C   0  0  0  0  0  0  0  0  0  0  0  0
   33.0344   -1.2554  109.0766 O   0  0  0  0  0  0  0  0  0  0  0  0
   29.0958   -2.0383  102.8678 C   0  0  0  0  0  0  0  0  0  0  0  0
   26.1691   -1.8677   99.4249 O   0  0  0  0  0  0  0  0  0  0  0  0
   27.2258   -2.3857   99.7769 C   0  0  0  0  0  0  0  0  0  0  0  0
   27.1566   -1.3490  102.1273 C   0  0  0  0  0  0  0  0  0  0  0  0
   33.5359   -0.9795  106.6111 O   0  5  0  0  0  0  0  0  0  0  0  0
   32.5286   -2.9491  107.2602 O   0  0  0  0  0  0  0  0  0  0  0  0
  1 17  1  0  0  0  0
  1 20  1  0  0  0  0
  2 15  1  6  0  0  0
  2  3  1  0  0  0  0
  2 11  1  0  0  0  0
  3  5  1  0  0  0  0
  4 16  1  1  0  0  0
  4 21  1  0  0  0  0
  4 22  2  0  0  0  0
  4 14  1  0  0  0  0
  5  1  1  6  0  0  0
  5  8  1  0  0  0  0
  6 17  2  0  0  0  0
  6 12  1  0  0  0  0
  8  7  1  1  0  0  0
  8 11  1  0  0  0  0
  9 19  1  0  0  0  0
 11 10  1  6  0  0  0
 12 20  2  0  0  0  0
 12 19  1  0  0  0  0
 13 20  1  0  0  0  0
 14 15  1  0  0  0  0
 18 19  2  0  0  0  0
M  CHG  1  21  -1
M  END
>  <CHROM.1>
54.33994830,168.93824574,170.94558379,-179.07426791,4.97049903,29.22957227
-1.42067119,104.64347301,2.21850944,0.22529034,-1.83726270

>  <Name>
ligand

>  <RI>
0

>  <Rbt.Current_Directory>
/home/itssahil/PROJECTS/Mol_Feturizer/New_Systems/rnas/4XW7

>  <Rbt.Executable>
rbdock ($Id: //depot/dev/client3/rdock/2013.1/src/exe/rbdock.cxx#4 $)

>  <Rbt.Library>
libRbt.so (2013.1, Build901 2013/11/27)

>  <Rbt.Parameter_File>
/export/apps/rDock/src/rDock_2013.1_src/data/scripts/dock_solv.prm

>  <Rbt.Receptor>
prm/pocket_docking_8.prm

>  <SCORE>
-4.7511

>  <SCORE.INTER>
-4.50838

>  <SCORE.INTER.CONST>
1

>  <SCORE.INTER.POLAR>
0

>  <SCORE.INTER.ROT>
5

>  <SCORE.INTER.SOLV>
17.7247

>  <SCORE.INTER.VDW>
-15.8472

>  <SCORE.INTER.norm>
-0.204926

>  <SCORE.INTRA>
-0.242725

>  <SCORE.INTRA.DIHEDRAL>
-0.557271

>  <SCORE.INTRA.DIHEDRAL.0>
2.61549

>  <SCORE.INTRA.POLAR>
0

>  <SCORE.INTRA.POLAR.0>
0

>  <SCORE.INTRA.REPUL>
0

>  <SCORE.INTRA.REPUL.0>
0

>  <SCORE.INTRA.SOLV>
0.14971

>  <SCORE.INTRA.SOLV.lig_0>
-73.766

>  <SCORE.INTRA.VDW>
-0.0389449

>  <SCORE.INTRA.VDW.0>
-1.95055

>  <SCORE.INTRA.norm>
-0.011033

>  <SCORE.RESTR>
0

>  <SCORE.RESTR.CAVITY>
0

>  <SCORE.RESTR.norm>
0

>  <SCORE.SYSTEM>
0

>  <SCORE.SYSTEM.CONST>
0

>  <SCORE.SYSTEM.DIHEDRAL>
0

>  <SCORE.SYSTEM.SOLV>
0

>  <SCORE.SYSTEM.norm>
0

>  <SCORE.heavy>
22

>  <SCORE.norm>
-0.215959

>  <RMSD>
7.331

$$$$
ligand
 OpenBabel11021811513D
libRbt.so/2013.1/901 2013/11/27
 22 23  0  0  0  0  0  0  0  0999 V2000
   30.6250   -3.2495  107.3725 N   0  0  0  0  0  0  0  0  0  0  0  0
   33.8539   -3.2830  108.5051 C   0  0  1  0  0  0  0  0  0  0  0  0
   32.9680   -3.1035  107.3456 O   0  0  0  0  0  0  0  0  0  0  0  0
   35.0576   -6.3159  110.4903 P   0  0  2  0  0  0  0  0  0  0  0  0
   31.7249   -2.5199  107.8356 C   0  0  2  0  0  0  0  0  0  0  0  0
   29.1984   -4.8875  107.0671 N   0  0  0  0  0  0  0  0  0  0  0  0
   31.1499   -1.4139  109.8760 O   0  0  0  0  0  0  0  0  0  0  0  0
   31.7882   -2.5680  109.3096 C   0  0  2  0  0  0  0  0  0  0  0  0
   26.6854   -4.8996  105.4564 N   0  0  0  0  0  0  0  0  0  0  0  0
   33.7058   -1.2186  109.6913 O   0  0  0  0  0  0  0  0  0  0  0  0
   33.2203   -2.5778  109.6279 C   0  0  2  0  0  0  0  0  0  0  0  0
   28.7778   -3.8362  106.3371 C   0  0  0  0  0  0  0  0  0  0  0  0
   29.6043   -1.4978  105.9315 N   0  0  0  0  0  0  0  0  0  0  0  0
   34.8665   -4.8858  109.8882 O   0  0  0  0  0  0  0  0  0  0  0  0
   33.9788   -4.7263  108.8241 C   0  0  0  0  0  0  0  0  0  0  0  0
   35.4310   -7.3417  109.3387 O   0  0  0  0  0  0  0  0  0  0  0  0
   30.3357   -4.5100  107.6979 C   0  0  0  0  0  0  0  0  0  0  0  0
   27.3264   -2.8229  104.7746 O   0  0  0  0  0  0  0  0  0  0  0  0
   27.5557   -3.8067  105.4735 C   0  0  0  0  0  0  0  0  0  0  0  0
   29.6722   -2.7913  106.5190 C   0  0  0  0  0  0  0  0  0  0  0  0
   33.8507   -6.7546  111.2266 O   0  5  0  0  0  0  0  0  0  0  0  0
   36.0898   -6.3188  111.5621 O   0  0  0  0  0  0  0  0  0  0  0  0
  1 17  1  0  0  0  0
  1 20  1  0  0  0  0
  2 15  1  1  0  0  0
  2  3  1  0  0  0  0
  2 11  1  0  0  0  0
  3  5  1  0  0  0  0
  4 16  1  6  0  0  0
  4 21  1  0  0  0  0
  4 22  2  0  0  0  0
  4 14  1  0  0  0  0
  5  1  1  6  0  0  0
  5  8  1  0  0  0  0
  6 17  2  0  0  0  0
  6 12  1  0  0  0  0
  8  7  1  1  0  0  0
  8 11  1  0  0  0  0
  9 19  1  0  0  0  0
 11 10  1  6  0  0  0
 12 20  2  0  0  0  0
 12 19  1  0  0  0  0
 13 20  1  0  0  0  0
 14 15  1  0  0  0  0
 18 19  2  0  0  0  0
M  CHG  1  21  -1
M  END
>  <CHROM.1>
65.50183528,177.45243846,53.47129126,174.42603741,4.96600435,31.99946481
-4.03860176,108.39018608,-2.85186726,0.59576266,-3.11978730

>  <Name>
ligand

>  <RI>
0

>  <Rbt.Current_Directory>
/home/itssahil/PROJECTS/Mol_Feturizer/New_Systems/rnas/4XW7

>  <Rbt.Executable>
rbdock ($Id: //depot/dev/client3/rdock/2013.1/src/exe/rbdock.cxx#4 $)

>  <Rbt.Library>
libRbt.so (2013.1, Build901 2013/11/27)

>  <Rbt.Parameter_File>
/export/apps/rDock/src/rDock_2013.1_src/data/scripts/dock_solv.prm

>  <Rbt.Receptor>
prm/pocket_docking_7.prm

>  <SCORE>
-9.49818

>  <SCORE.INTER>
-8.83058

>  <SCORE.INTER.CONST>
1

>  <SCORE.INTER.POLAR>
0

>  <SCORE.INTER.ROT>
5

>  <SCORE.INTER.SOLV>
10.2838

>  <SCORE.INTER.VDW>
-16.2483

>  <SCORE.INTER.norm>
-0.40139

>  <SCORE.INTRA>
-0.667607

>  <SCORE.INTRA.DIHEDRAL>
-0.864286

>  <SCORE.INTRA.DIHEDRAL.0>
2.61549

>  <SCORE.INTRA.POLAR>
0

>  <SCORE.INTRA.POLAR.0>
0

>  <SCORE.INTRA.REPUL>
0

>  <SCORE.INTRA.REPUL.0>
0

>  <SCORE.INTRA.SOLV>
-0.63145

>  <SCORE.INTRA.SOLV.lig_0>
-73.766

>  <SCORE.INTRA.VDW>
0.0802604

>  <SCORE.INTRA.VDW.0>
-1.95055

>  <SCORE.INTRA.norm>
-0.0303458

>  <SCORE.RESTR>
0

>  <SCORE.RESTR.CAVITY>
0

>  <SCORE.RESTR.norm>
0

>  <SCORE.SYSTEM>
0

>  <SCORE.SYSTEM.CONST>
0

>  <SCORE.SYSTEM.DIHEDRAL>
0

>  <SCORE.SYSTEM.SOLV>
0

>  <SCORE.SYSTEM.norm>
0

>  <SCORE.heavy>
22

>  <SCORE.norm>
-0.431736

>  <RMSD>
7.337

$$$$
ligand
 OpenBabel11021811513D
libRbt.so/2013.1/901 2013/11/27
 22 23  0  0  0  0  0  0  0  0999 V2000
   30.1985   -4.3118  108.5545 N   0  0  0  0  0  0  0  0  0  0  0  0
   33.4985   -3.5864  108.0123 C   0  0  1  0  0  0  0  0  0  0  0  0
   32.3542   -4.4274  107.6317 O   0  0  0  0  0  0  0  0  0  0  0  0
   35.0092   -6.1244  110.4357 P   0  0  2  0  0  0  0  0  0  0  0  0
   31.1500   -3.6219  107.7961 C   0  0  2  0  0  0  0  0  0  0  0  0
   29.2989   -5.6008  110.0845 N   0  0  0  0  0  0  0  0  0  0  0  0
   30.7952   -1.2676  108.0169 O   0  0  0  0  0  0  0  0  0  0  0  0
   31.5607   -2.3857  108.4904 C   0  0  2  0  0  0  0  0  0  0  0  0
   25.9638   -4.3427  109.8377 N   0  0  0  0  0  0  0  0  0  0  0  0
   33.1017   -1.5088  106.9093 O   0  0  0  0  0  0  0  0  0  0  0  0
   32.9807   -2.2193  108.1613 C   0  0  2  0  0  0  0  0  0  0  0  0
   28.3001   -5.0985  109.3328 C   0  0  0  0  0  0  0  0  0  0  0  0
   28.1553   -3.5544  107.3553 N   0  0  0  0  0  0  0  0  0  0  0  0
   34.4712   -5.3812  109.1698 O   0  0  0  0  0  0  0  0  0  0  0  0
   34.0599   -4.0550  109.3030 C   0  0  0  0  0  0  0  0  0  0  0  0
   33.8659   -6.2220  111.5317 O   0  0  0  0  0  0  0  0  0  0  0  0
   30.4600   -5.1070  109.5926 C   0  0  0  0  0  0  0  0  0  0  0  0
   26.4230   -6.5294  109.3954 O   0  0  0  0  0  0  0  0  0  0  0  0
   26.8420   -5.3812  109.5176 C   0  0  0  0  0  0  0  0  0  0  0  0
   28.8543   -4.2813  108.3582 C   0  0  0  0  0  0  0  0  0  0  0  0
   36.2146   -5.4583  110.9782 O   0  5  0  0  0  0  0  0  0  0  0  0
   35.5328   -7.4736  110.0899 O   0  0  0  0  0  0  0  0  0  0  0  0
  1 17  1  0  0  0  0
  1 20  1  0  0  0  0
  2 15  1  1  0  0  0
  2  3  1  0  0  0  0
  2 11  1  0  0  0  0
  3  5  1  0  0  0  0
  4 16  1  1  0  0  0
  4 21  1  0  0  0  0
  4 22  2  0  0  0  0
  4 14  1  0  0  0  0
  5  1  1  1  0  0  0
  5  8  1  0  0  0  0
  6 17  2  0  0  0  0
  6 12  1  0  0  0  0
  8  7  1  6  0  0  0
  8 11  1  0  0  0  0
  9 19  1  0  0  0  0
 11 10  1  6  0  0  0
 12 20  2  0  0  0  0
 12 19  1  0  0  0  0
 13 20  1  0  0  0  0
 14 15  1  0  0  0  0
 18 19  2  0  0  0  0
M  CHG  1  21  -1
M  END
>  <CHROM.1>
37.00025505,59.52398763,62.47717996,-175.85520543,117.38725351,31.64025634
-4.55953205,109.11383148,-2.95792269,0.04964787,2.55399977

>  <Name>
ligand

>  <RI>
0

>  <Rbt.Current_Directory>
/home/itssahil/PROJECTS/Mol_Feturizer/New_Systems/rnas/4XW7

>  <Rbt.Executable>
rbdock ($Id: //depot/dev/client3/rdock/2013.1/src/exe/rbdock.cxx#4 $)

>  <Rbt.Library>
libRbt.so (2013.1, Build901 2013/11/27)

>  <Rbt.Parameter_File>
/export/apps/rDock/src/rDock_2013.1_src/data/scripts/dock_solv.prm

>  <Rbt.Receptor>
prm/pocket_docking_7.prm

>  <SCORE>
-5.37984

>  <SCORE.INTER>
-4.20103

>  <SCORE.INTER.CONST>
1

>  <SCORE.INTER.POLAR>
0

>  <SCORE.INTER.ROT>
5

>  <SCORE.INTER.SOLV>
13.4225

>  <SCORE.INTER.VDW>
-14.2082

>  <SCORE.INTER.norm>
-0.190956

>  <SCORE.INTRA>
-1.17881

>  <SCORE.INTRA.DIHEDRAL>
-1.03974

>  <SCORE.INTRA.DIHEDRAL.0>
2.61549

>  <SCORE.INTRA.POLAR>
0

>  <SCORE.INTRA.POLAR.0>
0

>  <SCORE.INTRA.REPUL>
0

>  <SCORE.INTRA.REPUL.0>
0

>  <SCORE.INTRA.SOLV>
-0.0447744

>  <SCORE.INTRA.SOLV.lig_0>
-73.766

>  <SCORE.INTRA.VDW>
-0.636557

>  <SCORE.INTRA.VDW.0>
-1.95055

>  <SCORE.INTRA.norm>
-0.0535824

>  <SCORE.RESTR>
0

>  <SCORE.RESTR.CAVITY>
0

>  <SCORE.RESTR.norm>
0

>  <SCORE.SYSTEM>
0

>  <SCORE.SYSTEM.CONST>
0

>  <SCORE.SYSTEM.DIHEDRAL>
0

>  <SCORE.SYSTEM.SOLV>
0

>  <SCORE.SYSTEM.norm>
0

>  <SCORE.heavy>
22

>  <SCORE.norm>
-0.244538

>  <RMSD>
7.354

$$$$
ligand
 OpenBabel11021811513D
libRbt.so/2013.1/901 2013/11/27
 22 23  0  0  0  0  0  0  0  0999 V2000
   27.9890   -1.4340  103.0174 N   0  0  0  0  0  0  0  0  0  0  0  0
   29.2365   -0.1981  105.9544 C   0  0  1  0  0  0  0  0  0  0  0  0
   28.8079    0.1123  104.5828 O   0  0  0  0  0  0  0  0  0  0  0  0
   32.4982   -1.5106  107.4524 P   0  0  2  0  0  0  0  0  0  0  0  0
   27.7330   -0.8129  104.2443 C   0  0  2  0  0  0  0  0  0  0  0  0
   28.9400   -2.6648  101.4706 N   0  0  0  0  0  0  0  0  0  0  0  0
   26.3276   -2.2175  105.5743 O   0  0  0  0  0  0  0  0  0  0  0  0
   27.6831   -1.8159  105.3262 C   0  0  2  0  0  0  0  0  0  0  0  0
   28.1747   -2.9676   98.5994 N   0  0  0  0  0  0  0  0  0  0  0  0
   27.2006   -0.4102  107.1794 O   0  0  0  0  0  0  0  0  0  0  0  0
   28.2466   -1.1379  106.4987 C   0  0  2  0  0  0  0  0  0  0  0  0
   27.8472   -2.0949  100.9266 C   0  0  0  0  0  0  0  0  0  0  0  0
   26.0528   -0.5351  101.7409 N   0  0  0  0  0  0  0  0  0  0  0  0
   31.0772   -0.8975  107.2310 O   0  0  0  0  0  0  0  0  0  0  0  0
   30.5756   -0.8360  105.9309 C   0  0  0  0  0  0  0  0  0  0  0  0
   33.5370   -0.8403  106.4576 O   0  0  0  0  0  0  0  0  0  0  0  0
   29.0128   -2.2480  102.7570 C   0  0  0  0  0  0  0  0  0  0  0  0
   26.2999   -1.8049   99.1667 O   0  0  0  0  0  0  0  0  0  0  0  0
   27.3796   -2.2752   99.5162 C   0  0  0  0  0  0  0  0  0  0  0  0
   27.2350   -1.3109  101.8938 C   0  0  0  0  0  0  0  0  0  0  0  0
   32.4792   -2.9823  107.2939 O   0  5  0  0  0  0  0  0  0  0  0  0
   32.9394   -1.3592  108.8654 O   0  0  0  0  0  0  0  0  0  0  0  0
  1 17  1  0  0  0  0
  1 20  1  0  0  0  0
  2 15  1  6  0  0  0
  2  3  1  0  0  0  0
  2 11  1  0  0  0  0
  3  5  1  0  0  0  0
  4 16  1  6  0  0  0
  4 21  1  0  0  0  0
  4 22  2  0  0  0  0
  4 14  1  0  0  0  0
  5  1  1  6  0  0  0
  5  8  1  0  0  0  0
  6 17  2  0  0  0  0
  6 12  1  0  0  0  0
  8  7  1  1  0  0  0
  8 11  1  0  0  0  0
  9 19  1  0  0  0  0
 11 10  1  6  0  0  0
 12 20  2  0  0  0  0
 12 19  1  0  0  0  0
 13 20  1  0  0  0  0
 14 15  1  0  0  0  0
 18 19  2  0  0  0  0
M  CHG  1  21  -1
M  END
>  <CHROM.1>
63.67375283,169.04050126,50.16036264,-178.86412781,-7.26569799,29.22661226
-1.45295232,104.46964471,2.18867496,0.19830893,-1.79253964

>  <Name>
ligand

>  <RI>
0

>  <Rbt.Current_Directory>
/home/itssahil/PROJECTS/Mol_Feturizer/New_Systems/rnas/4XW7

>  <Rbt.Executable>
rbdock ($Id: //depot/dev/client3/rdock/2013.1/src/exe/rbdock.cxx#4 $)

>  <Rbt.Library>
libRbt.so (2013.1, Build901 2013/11/27)

>  <Rbt.Parameter_File>
/export/apps/rDock/src/rDock_2013.1_src/data/scripts/dock_solv.prm

>  <Rbt.Receptor>
prm/pocket_docking_6.prm

>  <SCORE>
-7.02329

>  <SCORE.INTER>
-6.36324

>  <SCORE.INTER.CONST>
1

>  <SCORE.INTER.POLAR>
0

>  <SCORE.INTER.ROT>
5

>  <SCORE.INTER.SOLV>
14.648

>  <SCORE.INTER.VDW>
-16.0581

>  <SCORE.INTER.norm>
-0.289238

>  <SCORE.INTRA>
-0.660048

>  <SCORE.INTRA.DIHEDRAL>
-0.507641

>  <SCORE.INTRA.DIHEDRAL.0>
2.61549

>  <SCORE.INTRA.POLAR>
0

>  <SCORE.INTRA.POLAR.0>
0

>  <SCORE.INTRA.REPUL>
0

>  <SCORE.INTRA.REPUL.0>
0

>  <SCORE.INTRA.SOLV>
-0.777545

>  <SCORE.INTRA.SOLV.lig_0>
-73.766

>  <SCORE.INTRA.VDW>
-0.0174551

>  <SCORE.INTRA.VDW.0>
-1.95055

>  <SCORE.INTRA.norm>
-0.0300022

>  <SCORE.RESTR>
0

>  <SCORE.RESTR.CAVITY>
0

>  <SCORE.RESTR.norm>
0

>  <SCORE.SYSTEM>
0

>  <SCORE.SYSTEM.CONST>
0

>  <SCORE.SYSTEM.DIHEDRAL>
0

>  <SCORE.SYSTEM.SOLV>
0

>  <SCORE.SYSTEM.norm>
0

>  <SCORE.heavy>
22

>  <SCORE.norm>
-0.31924

>  <RMSD>
7.360

$$$$
ligand
 OpenBabel11021811513D
libRbt.so/2013.1/901 2013/11/27
 22 23  0  0  0  0  0  0  0  0999 V2000
   31.1269   -5.9449  108.9638 N   0  0  0  0  0  0  0  0  0  0  0  0
   32.4617   -2.8056  108.6948 C   0  0  1  0  0  0  0  0  0  0  0  0
   31.4860   -3.6630  109.3833 O   0  0  0  0  0  0  0  0  0  0  0  0
   30.0464   -1.2216  106.1945 P   0  0  2  0  0  0  0  0  0  0  0  0
   32.0503   -5.0065  109.4363 C   0  0  2  0  0  0  0  0  0  0  0  0
   29.4067   -6.8264  107.9266 N   0  0  0  0  0  0  0  0  0  0  0  0
   34.2692   -5.8433  109.1306 O   0  0  0  0  0  0  0  0  0  0  0  0
   33.2522   -4.9935  108.5793 C   0  0  2  0  0  0  0  0  0  0  0  0
   30.5432  -10.2188  107.9886 N   0  0  0  0  0  0  0  0  0  0  0  0
   34.5520   -3.3543  109.7048 O   0  0  0  0  0  0  0  0  0  0  0  0
   33.6946   -3.5948  108.5672 C   0  0  2  0  0  0  0  0  0  0  0  0
   30.0639   -7.8232  108.5507 C   0  0  0  0  0  0  0  0  0  0  0  0
   32.1137   -7.9813  109.9961 N   0  0  0  0  0  0  0  0  0  0  0  0
   30.8246   -1.6379  107.4850 O   0  0  0  0  0  0  0  0  0  0  0  0
   31.9534   -2.4458  107.3483 C   0  0  0  0  0  0  0  0  0  0  0  0
   31.0606   -0.6675  105.1071 O   0  0  0  0  0  0  0  0  0  0  0  0
   30.0736   -5.6778  108.1907 C   0  0  0  0  0  0  0  0  0  0  0  0
   28.5902   -9.6142  108.9929 O   0  0  0  0  0  0  0  0  0  0  0  0
   29.6760   -9.2687  108.5340 C   0  0  0  0  0  0  0  0  0  0  0  0
   31.1551   -7.2802  109.2135 C   0  0  0  0  0  0  0  0  0  0  0  0
   28.9932   -0.2272  106.4992 O   0  5  0  0  0  0  0  0  0  0  0  0
   29.2507   -2.3560  105.6522 O   0  0  0  0  0  0  0  0  0  0  0  0
  1 17  1  0  0  0  0
  1 20  1  0  0  0  0
  2 15  1  6  0  0  0
  2  3  1  0  0  0  0
  2 11  1  0  0  0  0
  3  5  1  0  0  0  0
  4 16  1  6  0  0  0
  4 21  1  0  0  0  0
  4 22  2  0  0  0  0
  4 14  1  0  0  0  0
  5  1  1  6  0  0  0
  5  8  1  0  0  0  0
  6 17  2  0  0  0  0
  6 12  1  0  0  0  0
  8  7  1  1  0  0  0
  8 11  1  0  0  0  0
  9 19  1  0  0  0  0
 11 10  1  1  0  0  0
 12 20  2  0  0  0  0
 12 19  1  0  0  0  0
 13 20  1  0  0  0  0
 14 15  1  0  0  0  0
 18 19  2  0  0  0  0
M  CHG  1  21  -1
M  END
>  <CHROM.1>
19.93302161,66.33023116,-48.83315562,-175.36549807,118.29350615,31.15074617
-4.61258381,108.04573530,-1.57373048,-0.47005976,-0.31827253

>  <Name>
ligand

>  <RI>
0

>  <Rbt.Current_Directory>
/home/itssahil/PROJECTS/Mol_Feturizer/New_Systems/rnas/4XW7

>  <Rbt.Executable>
rbdock ($Id: //depot/dev/client3/rdock/2013.1/src/exe/rbdock.cxx#4 $)

>  <Rbt.Library>
libRbt.so (2013.1, Build901 2013/11/27)

>  <Rbt.Parameter_File>
/export/apps/rDock/src/rDock_2013.1_src/data/scripts/dock_solv.prm

>  <Rbt.Receptor>
prm/pocket_docking_7.prm

>  <SCORE>
-8.13211

>  <SCORE.INTER>
-7.50102

>  <SCORE.INTER.CONST>
1

>  <SCORE.INTER.POLAR>
0

>  <SCORE.INTER.ROT>
5

>  <SCORE.INTER.SOLV>
12.2642

>  <SCORE.INTER.VDW>
-16.0221

>  <SCORE.INTER.norm>
-0.340956

>  <SCORE.INTRA>
-0.631086

>  <SCORE.INTRA.DIHEDRAL>
-0.688709

>  <SCORE.INTRA.DIHEDRAL.0>
2.61549

>  <SCORE.INTRA.POLAR>
0

>  <SCORE.INTRA.POLAR.0>
0

>  <SCORE.INTRA.REPUL>
0

>  <SCORE.INTRA.REPUL.0>
0

>  <SCORE.INTRA.SOLV>
0.504019

>  <SCORE.INTRA.SOLV.lig_0>
-73.766

>  <SCORE.INTRA.VDW>
-0.538741

>  <SCORE.INTRA.VDW.0>
-1.95055

>  <SCORE.INTRA.norm>
-0.0286857

>  <SCORE.RESTR>
0

>  <SCORE.RESTR.CAVITY>
0

>  <SCORE.RESTR.norm>
0

>  <SCORE.SYSTEM>
0

>  <SCORE.SYSTEM.CONST>
0

>  <SCORE.SYSTEM.DIHEDRAL>
0

>  <SCORE.SYSTEM.SOLV>
0

>  <SCORE.SYSTEM.norm>
0

>  <SCORE.heavy>
22

>  <SCORE.norm>
-0.369641

>  <RMSD>
7.363

$$$$
ligand
 OpenBabel11021811513D
libRbt.so/2013.1/901 2013/11/27
 22 23  0  0  0  0  0  0  0  0999 V2000
   30.6980   -4.6373  107.8612 N   0  0  0  0  0  0  0  0  0  0  0  0
   33.7233   -3.2169  108.5960 C   0  0  1  0  0  0  0  0  0  0  0  0
   32.9635   -4.0558  107.6577 O   0  0  0  0  0  0  0  0  0  0  0  0
   35.0025   -6.2515  110.5319 P   0  0  2  0  0  0  0  0  0  0  0  0
   31.5868   -3.5755  107.6633 C   0  0  2  0  0  0  0  0  0  0  0  0
   29.8888   -6.5828  108.4712 N   0  0  0  0  0  0  0  0  0  0  0  0
   30.5852   -1.5415  108.4228 O   0  0  0  0  0  0  0  0  0  0  0  0
   31.4824   -2.6062  108.7717 C   0  0  2  0  0  0  0  0  0  0  0  0
   26.4236   -5.6867  108.2515 N   0  0  0  0  0  0  0  0  0  0  0  0
   33.0684   -0.9859  108.0626 O   0  0  0  0  0  0  0  0  0  0  0  0
   32.8451   -2.0962  108.9595 C   0  0  2  0  0  0  0  0  0  0  0  0
   28.8944   -5.8923  107.8803 C   0  0  0  0  0  0  0  0  0  0  0  0
   28.6775   -3.6213  106.8260 N   0  0  0  0  0  0  0  0  0  0  0  0
   34.6579   -5.2041  109.4236 O   0  0  0  0  0  0  0  0  0  0  0  0
   34.0658   -4.0009  109.8078 C   0  0  0  0  0  0  0  0  0  0  0  0
   33.7076   -6.5770  111.3893 O   0  0  0  0  0  0  0  0  0  0  0  0
   30.9913   -5.7967  108.4514 C   0  0  0  0  0  0  0  0  0  0  0  0
   27.2897   -7.3942  107.0175 O   0  0  0  0  0  0  0  0  0  0  0  0
   27.4935   -6.3795  107.6792 C   0  0  0  0  0  0  0  0  0  0  0  0
   29.3920   -4.6584  107.4869 C   0  0  0  0  0  0  0  0  0  0  0  0
   36.1092   -5.7779  111.3935 O   0  5  0  0  0  0  0  0  0  0  0  0
   35.5788   -7.4914  109.9449 O   0  0  0  0  0  0  0  0  0  0  0  0
  1 17  1  0  0  0  0
  1 20  1  0  0  0  0
  2 15  1  1  0  0  0
  2  3  1  0  0  0  0
  2 11  1  0  0  0  0
  3  5  1  0  0  0  0
  4 16  1  1  0  0  0
  4 21  1  0  0  0  0
  4 22  2  0  0  0  0
  4 14  1  0  0  0  0
  5  1  1  1  0  0  0
  5  8  1  0  0  0  0
  6 17  2  0  0  0  0
  6 12  1  0  0  0  0
  8  7  1  6  0  0  0
  8 11  1  0  0  0  0
  9 19  1  0  0  0  0
 11 10  1  6  0  0  0
 12 20  2  0  0  0  0
 12 19  1  0  0  0  0
 13 20  1  0  0  0  0
 14 15  1  0  0  0  0
 18 19  2  0  0  0  0
M  CHG  1  21  -1
M  END
>  <CHROM.1>
23.76774340,50.91516648,54.47278663,-175.19037969,119.65466234,31.88860801
-4.81350643,108.80325179,-3.02180302,0.36190532,2.88500394

>  <Name>
ligand

>  <RI>
0

>  <Rbt.Current_Directory>
/home/itssahil/PROJECTS/Mol_Feturizer/New_Systems/rnas/4XW7

>  <Rbt.Executable>
rbdock ($Id: //depot/dev/client3/rdock/2013.1/src/exe/rbdock.cxx#4 $)

>  <Rbt.Library>
libRbt.so (2013.1, Build901 2013/11/27)

>  <Rbt.Parameter_File>
/export/apps/rDock/src/rDock_2013.1_src/data/scripts/dock_solv.prm

>  <Rbt.Receptor>
prm/pocket_docking_7.prm

>  <SCORE>
-6.24624

>  <SCORE.INTER>
-5.50289

>  <SCORE.INTER.CONST>
1

>  <SCORE.INTER.POLAR>
0

>  <SCORE.INTER.ROT>
5

>  <SCORE.INTER.SOLV>
15.4346

>  <SCORE.INTER.VDW>
-15.7468

>  <SCORE.INTER.norm>
-0.250131

>  <SCORE.INTRA>
-0.743346

>  <SCORE.INTRA.DIHEDRAL>
-0.696045

>  <SCORE.INTRA.DIHEDRAL.0>
2.61549

>  <SCORE.INTRA.POLAR>
0

>  <SCORE.INTRA.POLAR.0>
0

>  <SCORE.INTRA.REPUL>
0

>  <SCORE.INTRA.REPUL.0>
0

>  <SCORE.INTRA.SOLV>
0.426476

>  <SCORE.INTRA.SOLV.lig_0>
-73.766

>  <SCORE.INTRA.VDW>
-0.608562

>  <SCORE.INTRA.VDW.0>
-1.95055

>  <SCORE.INTRA.norm>
-0.0337885

>  <SCORE.RESTR>
0

>  <SCORE.RESTR.CAVITY>
0

>  <SCORE.RESTR.norm>
0

>  <SCORE.SYSTEM>
0

>  <SCORE.SYSTEM.CONST>
0

>  <SCORE.SYSTEM.DIHEDRAL>
0

>  <SCORE.SYSTEM.SOLV>
0

>  <SCORE.SYSTEM.norm>
0

>  <SCORE.heavy>
22

>  <SCORE.norm>
-0.28392

>  <RMSD>
7.372

$$$$
ligand
 OpenBabel11021811513D
libRbt.so/2013.1/901 2013/11/27
 22 23  0  0  0  0  0  0  0  0999 V2000
   31.1375   -5.9646  108.9858 N   0  0  0  0  0  0  0  0  0  0  0  0
   32.4547   -2.8189  108.7040 C   0  0  1  0  0  0  0  0  0  0  0  0
   31.4828   -3.6787  109.3951 O   0  0  0  0  0  0  0  0  0  0  0  0
   30.0483   -1.2368  106.1946 P   0  0  2  0  0  0  0  0  0  0  0  0
   32.0547   -5.0186  109.4552 C   0  0  2  0  0  0  0  0  0  0  0  0
   29.4346   -6.8638  107.9354 N   0  0  0  0  0  0  0  0  0  0  0  0
   34.2788   -5.8441  109.1569 O   0  0  0  0  0  0  0  0  0  0  0  0
   33.2578   -5.0028  108.6001 C   0  0  2  0  0  0  0  0  0  0  0  0
   29.2475   -9.8924  109.7853 N   0  0  0  0  0  0  0  0  0  0  0  0
   34.5465   -3.3508  109.7198 O   0  0  0  0  0  0  0  0  0  0  0  0
   33.6923   -3.6017  108.5820 C   0  0  2  0  0  0  0  0  0  0  0  0
   30.0765   -7.8484  108.5937 C   0  0  0  0  0  0  0  0  0  0  0  0
   32.0976   -7.9806  110.0814 N   0  0  0  0  0  0  0  0  0  0  0  0
   30.8329   -1.6387  107.4858 O   0  0  0  0  0  0  0  0  0  0  0  0
   31.9464   -2.4685  107.3551 C   0  0  0  0  0  0  0  0  0  0  0  0
   31.0563   -0.6887  105.0984 O   0  0  0  0  0  0  0  0  0  0  0  0
   30.1001   -5.7115  108.1870 C   0  0  0  0  0  0  0  0  0  0  0  0
   29.7562   -9.9498  107.5658 O   0  0  0  0  0  0  0  0  0  0  0  0
   29.6842   -9.2928  108.6012 C   0  0  0  0  0  0  0  0  0  0  0  0
   31.1565   -7.2941  109.2653 C   0  0  0  0  0  0  0  0  0  0  0  0
   28.9926   -0.2435  106.4945 O   0  5  0  0  0  0  0  0  0  0  0  0
   29.2547   -2.3788  105.6655 O   0  0  0  0  0  0  0  0  0  0  0  0
  1 17  1  0  0  0  0
  1 20  1  0  0  0  0
  2 15  1  6  0  0  0
  2  3  1  0  0  0  0
  2 11  1  0  0  0  0
  3  5  1  0  0  0  0
  4 16  1  6  0  0  0
  4 21  1  0  0  0  0
  4 22  2  0  0  0  0
  4 14  1  0  0  0  0
  5  1  1  6  0  0  0
  5  8  1  0  0  0  0
  6 17  2  0  0  0  0
  6 12  1  0  0  0  0
  8  7  1  1  0  0  0
  8 11  1  0  0  0  0
  9 19  1  0  0  0  0
 11 10  1  1  0  0  0
 12 20  2  0  0  0  0
 12 19  1  0  0  0  0
 13 20  1  0  0  0  0
 14 15  1  0  0  0  0
 18 19  2  0  0  0  0
M  CHG  1  21  -1
M  END
>  <CHROM.1>
21.43497465,67.82224114,-50.26411020,-174.81214541,-114.09720814,31.15532865
-4.62856540,108.06897385,-1.57442671,-0.49780775,-0.33017865

>  <Name>
ligand

>  <RI>
0

>  <Rbt.Current_Directory>
/home/itssahil/PROJECTS/Mol_Feturizer/New_Systems/rnas/4XW7

>  <Rbt.Executable>
rbdock ($Id: //depot/dev/client3/rdock/2013.1/src/exe/rbdock.cxx#4 $)

>  <Rbt.Library>
libRbt.so (2013.1, Build901 2013/11/27)

>  <Rbt.Parameter_File>
/export/apps/rDock/src/rDock_2013.1_src/data/scripts/dock_solv.prm

>  <Rbt.Receptor>
prm/pocket_docking_7.prm

>  <SCORE>
-8.07132

>  <SCORE.INTER>
-7.43619

>  <SCORE.INTER.CONST>
1

>  <SCORE.INTER.POLAR>
0

>  <SCORE.INTER.ROT>
5

>  <SCORE.INTER.SOLV>
11.8824

>  <SCORE.INTER.VDW>
-15.8516

>  <SCORE.INTER.norm>
-0.338009

>  <SCORE.INTRA>
-0.635135

>  <SCORE.INTRA.DIHEDRAL>
-0.595992

>  <SCORE.INTRA.DIHEDRAL.0>
2.61549

>  <SCORE.INTRA.POLAR>
0

>  <SCORE.INTRA.POLAR.0>
0

>  <SCORE.INTRA.REPUL>
0

>  <SCORE.INTRA.REPUL.0>
0

>  <SCORE.INTRA.SOLV>
0.44417

>  <SCORE.INTRA.SOLV.lig_0>
-73.766

>  <SCORE.INTRA.VDW>
-0.559224

>  <SCORE.INTRA.VDW.0>
-1.95055

>  <SCORE.INTRA.norm>
-0.0288698

>  <SCORE.RESTR>
0

>  <SCORE.RESTR.CAVITY>
0

>  <SCORE.RESTR.norm>
0

>  <SCORE.SYSTEM>
0

>  <SCORE.SYSTEM.CONST>
0

>  <SCORE.SYSTEM.DIHEDRAL>
0

>  <SCORE.SYSTEM.SOLV>
0

>  <SCORE.SYSTEM.norm>
0

>  <SCORE.heavy>
22

>  <SCORE.norm>
-0.366878

>  <RMSD>
7.382

$$$$
ligand
 OpenBabel11021811513D
libRbt.so/2013.1/901 2013/11/27
 22 23  0  0  0  0  0  0  0  0999 V2000
   30.2325   -4.1836  108.7221 N   0  0  0  0  0  0  0  0  0  0  0  0
   33.5135   -3.5910  107.9516 C   0  0  1  0  0  0  0  0  0  0  0  0
   32.3162   -4.3931  107.6609 O   0  0  0  0  0  0  0  0  0  0  0  0
   35.1430   -6.1354  110.2915 P   0  0  2  0  0  0  0  0  0  0  0  0
   31.1562   -3.5404  107.8917 C   0  0  2  0  0  0  0  0  0  0  0  0
   29.3856   -5.3498  110.3757 N   0  0  0  0  0  0  0  0  0  0  0  0
   30.9039   -1.1717  108.0980 O   0  0  0  0  0  0  0  0  0  0  0  0
   31.6575   -2.3114  108.5376 C   0  0  2  0  0  0  0  0  0  0  0  0
   26.2101   -6.0179  108.8891 N   0  0  0  0  0  0  0  0  0  0  0  0
   33.1210   -1.5147  106.8445 O   0  0  0  0  0  0  0  0  0  0  0  0
   33.0576   -2.2033  108.1128 C   0  0  2  0  0  0  0  0  0  0  0  0
   28.3655   -4.9483  109.5927 C   0  0  0  0  0  0  0  0  0  0  0  0
   28.1568   -3.5996  107.4824 N   0  0  0  0  0  0  0  0  0  0  0  0
   34.4997   -5.4039  109.0686 O   0  0  0  0  0  0  0  0  0  0  0  0
   34.1420   -4.0631  109.2097 C   0  0  0  0  0  0  0  0  0  0  0  0
   35.5266   -7.6221  109.8913 O   0  0  0  0  0  0  0  0  0  0  0  0
   30.5270   -4.8711  109.8263 C   0  0  0  0  0  0  0  0  0  0  0  0
   26.3542   -4.8236  110.8233 O   0  0  0  0  0  0  0  0  0  0  0  0
   26.9181   -5.2539  109.8204 C   0  0  0  0  0  0  0  0  0  0  0  0
   28.8863   -4.2098  108.5400 C   0  0  0  0  0  0  0  0  0  0  0  0
   34.2419   -6.1132  111.4658 O   0  5  0  0  0  0  0  0  0  0  0  0
   36.3302   -5.3972  110.8010 O   0  0  0  0  0  0  0  0  0  0  0  0
  1 17  1  0  0  0  0
  1 20  1  0  0  0  0
  2 15  1  1  0  0  0
  2  3  1  0  0  0  0
  2 11  1  0  0  0  0
  3  5  1  0  0  0  0
  4 16  1  6  0  0  0
  4 21  1  0  0  0  0
  4 22  2  0  0  0  0
  4 14  1  0  0  0  0
  5  1  1  1  0  0  0
  5  8  1  0  0  0  0
  6 17  2  0  0  0  0
  6 12  1  0  0  0  0
  8  7  1  6  0  0  0
  8 11  1  0  0  0  0
  9 19  1  0  0  0  0
 11 10  1  6  0  0  0
 12 20  2  0  0  0  0
 12 19  1  0  0  0  0
 13 20  1  0  0  0  0
 14 15  1  0  0  0  0
 18 19  2  0  0  0  0
M  CHG  1  21  -1
M  END
>  <CHROM.1>
43.69563186,59.78461277,-177.51869955,-178.07546982,-116.73345440,31.71451112
-4.50111488,109.16311407,-2.97809108,-0.00314754,2.53087729

>  <Name>
ligand

>  <RI>
0

>  <Rbt.Current_Directory>
/home/itssahil/PROJECTS/Mol_Feturizer/New_Systems/rnas/4XW7

>  <Rbt.Executable>
rbdock ($Id: //depot/dev/client3/rdock/2013.1/src/exe/rbdock.cxx#4 $)

>  <Rbt.Library>
libRbt.so (2013.1, Build901 2013/11/27)

>  <Rbt.Parameter_File>
/export/apps/rDock/src/rDock_2013.1_src/data/scripts/dock_solv.prm

>  <Rbt.Receptor>
prm/pocket_docking_8.prm

>  <SCORE>
-7.58829

>  <SCORE.INTER>
-6.7282

>  <SCORE.INTER.CONST>
1

>  <SCORE.INTER.POLAR>
0

>  <SCORE.INTER.ROT>
5

>  <SCORE.INTER.SOLV>
9.87981

>  <SCORE.INTER.VDW>
-14.7121

>  <SCORE.INTER.norm>
-0.305827

>  <SCORE.INTRA>
-0.86009

>  <SCORE.INTRA.DIHEDRAL>
-1.10023

>  <SCORE.INTRA.DIHEDRAL.0>
2.61549

>  <SCORE.INTRA.POLAR>
0

>  <SCORE.INTRA.POLAR.0>
0

>  <SCORE.INTRA.REPUL>
0

>  <SCORE.INTRA.REPUL.0>
0

>  <SCORE.INTRA.SOLV>
0.365102

>  <SCORE.INTRA.SOLV.lig_0>
-73.766

>  <SCORE.INTRA.VDW>
-0.492527

>  <SCORE.INTRA.VDW.0>
-1.95055

>  <SCORE.INTRA.norm>
-0.039095

>  <SCORE.RESTR>
0

>  <SCORE.RESTR.CAVITY>
0

>  <SCORE.RESTR.norm>
0

>  <SCORE.SYSTEM>
0

>  <SCORE.SYSTEM.CONST>
0

>  <SCORE.SYSTEM.DIHEDRAL>
0

>  <SCORE.SYSTEM.SOLV>
0

>  <SCORE.SYSTEM.norm>
0

>  <SCORE.heavy>
22

>  <SCORE.norm>
-0.344922

>  <RMSD>
7.399

$$$$
ligand
 OpenBabel11021811513D
libRbt.so/2013.1/901 2013/11/27
 22 23  0  0  0  0  0  0  0  0999 V2000
   28.0955   -1.7753  102.6461 N   0  0  0  0  0  0  0  0  0  0  0  0
   29.1535   -0.2759  105.5344 C   0  0  1  0  0  0  0  0  0  0  0  0
   28.7974   -0.0884  104.1204 O   0  0  0  0  0  0  0  0  0  0  0  0
   32.3383   -1.4105  107.3164 P   0  0  2  0  0  0  0  0  0  0  0  0
   27.7598   -1.0619  103.8015 C   0  0  2  0  0  0  0  0  0  0  0  0
   29.1253   -3.1434  101.2752 N   0  0  0  0  0  0  0  0  0  0  0  0
   26.3069   -2.3841  105.1645 O   0  0  0  0  0  0  0  0  0  0  0  0
   27.6669   -1.9740  104.9584 C   0  0  2  0  0  0  0  0  0  0  0  0
   28.0228   -1.8664   98.1956 N   0  0  0  0  0  0  0  0  0  0  0  0
   27.0560   -0.4327  106.6597 O   0  0  0  0  0  0  0  0  0  0  0  0
   28.1514   -1.1900  106.0998 C   0  0  2  0  0  0  0  0  0  0  0  0
   28.1087   -2.5740  100.5991 C   0  0  0  0  0  0  0  0  0  0  0  0
   26.3169   -0.8985  101.1447 N   0  0  0  0  0  0  0  0  0  0  0  0
   30.9229   -0.8461  106.9667 O   0  0  0  0  0  0  0  0  0  0  0  0
   30.5029   -0.8835  105.6370 C   0  0  0  0  0  0  0  0  0  0  0  0
   33.4348   -0.7299  106.3932 O   0  0  0  0  0  0  0  0  0  0  0  0
   29.1032   -2.6414  102.5327 C   0  0  0  0  0  0  0  0  0  0  0  0
   27.2306   -3.8984   98.8526 O   0  0  0  0  0  0  0  0  0  0  0  0
   27.7585   -2.8348   99.1675 C   0  0  0  0  0  0  0  0  0  0  0  0
   27.4479   -1.7035  101.4538 C   0  0  0  0  0  0  0  0  0  0  0  0
   32.3747   -2.8851  107.1917 O   0  5  0  0  0  0  0  0  0  0  0  0
   32.6584   -1.2158  108.7564 O   0  0  0  0  0  0  0  0  0  0  0  0
  1 17  1  0  0  0  0
  1 20  1  0  0  0  0
  2 15  1  6  0  0  0
  2  3  1  0  0  0  0
  2 11  1  0  0  0  0
  3  5  1  0  0  0  0
  4 16  1  6  0  0  0
  4 21  1  0  0  0  0
  4 22  2  0  0  0  0
  4 14  1  0  0  0  0
  5  1  1  6  0  0  0
  5  8  1  0  0  0  0
  6 17  2  0  0  0  0
  6 12  1  0  0  0  0
  8  7  1  1  0  0  0
  8 11  1  0  0  0  0
  9 19  1  0  0  0  0
 11 10  1  6  0  0  0
 12 20  2  0  0  0  0
 12 19  1  0  0  0  0
 13 20  1  0  0  0  0
 14 15  1  0  0  0  0
 18 19  2  0  0  0  0
M  CHG  1  21  -1
M  END
>  <CHROM.1>
67.62703237,169.94823915,53.03598687,-178.85689258,-107.16747278,29.25895496
-1.63802370,104.15510153,2.11656069,0.17373958,-1.83901254

>  <Name>
ligand

>  <RI>
0

>  <Rbt.Current_Directory>
/home/itssahil/PROJECTS/Mol_Feturizer/New_Systems/rnas/4XW7

>  <Rbt.Executable>
rbdock ($Id: //depot/dev/client3/rdock/2013.1/src/exe/rbdock.cxx#4 $)

>  <Rbt.Library>
libRbt.so (2013.1, Build901 2013/11/27)

>  <Rbt.Parameter_File>
/export/apps/rDock/src/rDock_2013.1_src/data/scripts/dock_solv.prm

>  <Rbt.Receptor>
prm/pocket_docking_8.prm

>  <SCORE>
-8.02326

>  <SCORE.INTER>
-7.21764

>  <SCORE.INTER.CONST>
1

>  <SCORE.INTER.POLAR>
0

>  <SCORE.INTER.ROT>
5

>  <SCORE.INTER.SOLV>
15.1073

>  <SCORE.INTER.VDW>
-16.7809

>  <SCORE.INTER.norm>
-0.328074

>  <SCORE.INTRA>
-0.805622

>  <SCORE.INTRA.DIHEDRAL>
-0.524058

>  <SCORE.INTRA.DIHEDRAL.0>
2.61549

>  <SCORE.INTRA.POLAR>
0

>  <SCORE.INTRA.POLAR.0>
0

>  <SCORE.INTRA.REPUL>
0

>  <SCORE.INTRA.REPUL.0>
0

>  <SCORE.INTRA.SOLV>
-0.905249

>  <SCORE.INTRA.SOLV.lig_0>
-73.766

>  <SCORE.INTRA.VDW>
-0.0909684

>  <SCORE.INTRA.VDW.0>
-1.95055

>  <SCORE.INTRA.norm>
-0.0366192

>  <SCORE.RESTR>
0

>  <SCORE.RESTR.CAVITY>
0

>  <SCORE.RESTR.norm>
0

>  <SCORE.SYSTEM>
0

>  <SCORE.SYSTEM.CONST>
0

>  <SCORE.SYSTEM.DIHEDRAL>
0

>  <SCORE.SYSTEM.SOLV>
0

>  <SCORE.SYSTEM.norm>
0

>  <SCORE.heavy>
22

>  <SCORE.norm>
-0.364694

>  <RMSD>
7.405

$$$$
ligand
 OpenBabel11021811513D
libRbt.so/2013.1/901 2013/11/27
 22 23  0  0  0  0  0  0  0  0999 V2000
   26.0953    0.3916  105.1036 N   0  0  0  0  0  0  0  0  0  0  0  0
   28.5048   -1.9682  104.5243 C   0  0  1  0  0  0  0  0  0  0  0  0
   27.3098   -1.6078  105.3013 O   0  0  0  0  0  0  0  0  0  0  0  0
   31.1826   -1.0677  107.0953 P   0  0  2  0  0  0  0  0  0  0  0  0
   26.4664   -0.7842  104.4431 C   0  0  2  0  0  0  0  0  0  0  0  0
   26.2072    2.3721  106.0401 N   0  0  0  0  0  0  0  0  0  0  0  0
   26.4269   -0.4213  102.0801 O   0  0  0  0  0  0  0  0  0  0  0  0
   27.2663   -0.4679  103.2435 C   0  0  2  0  0  0  0  0  0  0  0  0
   23.4118    2.4165  108.0650 N   0  0  0  0  0  0  0  0  0  0  0  0
   27.6508   -2.6575  102.4063 O   0  0  0  0  0  0  0  0  0  0  0  0
   28.2402   -1.5599  103.1377 C   0  0  2  0  0  0  0  0  0  0  0  0
   24.9309    1.9494  106.1262 C   0  0  0  0  0  0  0  0  0  0  0  0
   23.6790   -0.1101  105.4143 N   0  0  0  0  0  0  0  0  0  0  0  0
   30.0349   -1.7612  106.2915 O   0  0  0  0  0  0  0  0  0  0  0  0
   29.6845   -1.2366  105.0475 C   0  0  0  0  0  0  0  0  0  0  0  0
   32.4011   -0.7476  106.1306 O   0  0  0  0  0  0  0  0  0  0  0  0
   26.9102    1.4023  105.4084 C   0  0  0  0  0  0  0  0  0  0  0  0
   23.2159    3.5722  106.1120 O   0  0  0  0  0  0  0  0  0  0  0  0
   23.8021    2.7050  106.7549 C   0  0  0  0  0  0  0  0  0  0  0  0
   24.8445    0.6956  105.5388 C   0  0  0  0  0  0  0  0  0  0  0  0
   31.6128   -1.8980  108.2428 O   0  5  0  0  0  0  0  0  0  0  0  0
   30.7004    0.1664  107.7725 O   0  0  0  0  0  0  0  0  0  0  0  0
  1 17  1  0  0  0  0
  1 20  1  0  0  0  0
  2 15  1  1  0  0  0
  2  3  1  0  0  0  0
  2 11  1  0  0  0  0
  3  5  1  0  0  0  0
  4 16  1  6  0  0  0
  4 21  1  0  0  0  0
  4 22  2  0  0  0  0
  4 14  1  0  0  0  0
  5  1  1  1  0  0  0
  5  8  1  0  0  0  0
  6 17  2  0  0  0  0
  6 12  1  0  0  0  0
  8  7  1  6  0  0  0
  8 11  1  0  0  0  0
  9 19  1  0  0  0  0
 11 10  1  6  0  0  0
 12 20  2  0  0  0  0
 12 19  1  0  0  0  0
 13 20  1  0  0  0  0
 14 15  1  0  0  0  0
 18 19  2  0  0  0  0
M  CHG  1  21  -1
M  END
>  <CHROM.1>
69.69315123,71.19133988,-44.73413736,-174.98819315,-97.99224806,27.61468107
-0.14039845,105.56248990,2.97113735,-0.42224193,1.00691455

>  <Name>
ligand

>  <RI>
0

>  <Rbt.Current_Directory>
/home/itssahil/PROJECTS/Mol_Feturizer/New_Systems/rnas/4XW7

>  <Rbt.Executable>
rbdock ($Id: //depot/dev/client3/rdock/2013.1/src/exe/rbdock.cxx#4 $)

>  <Rbt.Library>
libRbt.so (2013.1, Build901 2013/11/27)

>  <Rbt.Parameter_File>
/export/apps/rDock/src/rDock_2013.1_src/data/scripts/dock_solv.prm

>  <Rbt.Receptor>
prm/pocket_docking_8.prm

>  <SCORE>
-3.5754

>  <SCORE.INTER>
-3.01162

>  <SCORE.INTER.CONST>
1

>  <SCORE.INTER.POLAR>
0

>  <SCORE.INTER.ROT>
5

>  <SCORE.INTER.SOLV>
12.6424

>  <SCORE.INTER.VDW>
-13.1552

>  <SCORE.INTER.norm>
-0.136892

>  <SCORE.INTRA>
-0.563783

>  <SCORE.INTRA.DIHEDRAL>
0.285202

>  <SCORE.INTRA.DIHEDRAL.0>
2.61549

>  <SCORE.INTRA.POLAR>
0

>  <SCORE.INTRA.POLAR.0>
0

>  <SCORE.INTRA.REPUL>
0

>  <SCORE.INTRA.REPUL.0>
0

>  <SCORE.INTRA.SOLV>
-1.1197

>  <SCORE.INTRA.SOLV.lig_0>
-73.766

>  <SCORE.INTRA.VDW>
-0.146534

>  <SCORE.INTRA.VDW.0>
-1.95055

>  <SCORE.INTRA.norm>
-0.0256265

>  <SCORE.RESTR>
0

>  <SCORE.RESTR.CAVITY>
0

>  <SCORE.RESTR.norm>
0

>  <SCORE.SYSTEM>
0

>  <SCORE.SYSTEM.CONST>
0

>  <SCORE.SYSTEM.DIHEDRAL>
0

>  <SCORE.SYSTEM.SOLV>
0

>  <SCORE.SYSTEM.norm>
0

>  <SCORE.heavy>
22

>  <SCORE.norm>
-0.162518

>  <RMSD>
7.442

$$$$
ligand
 OpenBabel11021811513D
libRbt.so/2013.1/901 2013/11/27
 22 23  0  0  0  0  0  0  0  0999 V2000
   32.9305   -4.4975  108.4151 N   0  0  0  0  0  0  0  0  0  0  0  0
   35.0915   -6.7165  109.8697 C   0  0  1  0  0  0  0  0  0  0  0  0
   34.6246   -6.1107  108.6142 O   0  0  0  0  0  0  0  0  0  0  0  0
   32.9558   -9.8701  109.5888 P   0  0  2  0  0  0  0  0  0  0  0  0
   34.2118   -4.7457  108.9183 C   0  0  2  0  0  0  0  0  0  0  0  0
   30.8195   -4.7668  107.8832 N   0  0  0  0  0  0  0  0  0  0  0  0
   34.6346   -3.3031  110.7777 O   0  0  0  0  0  0  0  0  0  0  0  0
   34.2181   -4.6206  110.3891 C   0  0  2  0  0  0  0  0  0  0  0  0
   29.0065   -2.8968  106.4263 N   0  0  0  0  0  0  0  0  0  0  0  0
   36.5092   -5.0601  110.8375 O   0  0  0  0  0  0  0  0  0  0  0  0
   35.1805   -5.6268  110.8515 C   0  0  2  0  0  0  0  0  0  0  0  0
   31.1922   -3.5389  107.4729 C   0  0  0  0  0  0  0  0  0  0  0  0
   33.3165   -2.1982  107.5486 N   0  0  0  0  0  0  0  0  0  0  0  0
   34.0324   -8.7544  109.3875 O   0  0  0  0  0  0  0  0  0  0  0  0
   34.1138   -7.7317  110.3325 C   0  0  0  0  0  0  0  0  0  0  0  0
   33.0600  -10.9387  108.4204 O   0  0  0  0  0  0  0  0  0  0  0  0
   31.9003   -5.3431  108.4607 C   0  0  0  0  0  0  0  0  0  0  0  0
   30.7481   -1.4308  106.5065 O   0  0  0  0  0  0  0  0  0  0  0  0
   30.3133   -2.5476  106.7764 C   0  0  0  0  0  0  0  0  0  0  0  0
   32.5274   -3.3542  107.8014 C   0  0  0  0  0  0  0  0  0  0  0  0
   31.5941   -9.2950  109.6676 O   0  5  0  0  0  0  0  0  0  0  0  0
   33.0924  -10.5206  110.9201 O   0  0  0  0  0  0  0  0  0  0  0  0
  1 17  1  0  0  0  0
  1 20  1  0  0  0  0
  2 15  1  1  0  0  0
  2  3  1  0  0  0  0
  2 11  1  0  0  0  0
  3  5  1  0  0  0  0
  4 16  1  6  0  0  0
  4 21  1  0  0  0  0
  4 22  2  0  0  0  0
  4 14  1  0  0  0  0
  5  1  1  1  0  0  0
  5  8  1  0  0  0  0
  6 17  2  0  0  0  0
  6 12  1  0  0  0  0
  8  7  1  6  0  0  0
  8 11  1  0  0  0  0
  9 19  1  0  0  0  0
 11 10  1  6  0  0  0
 12 20  2  0  0  0  0
 12 19  1  0  0  0  0
 13 20  1  0  0  0  0
 14 15  1  0  0  0  0
 18 19  2  0  0  0  0
M  CHG  1  21  -1
M  END
>  <CHROM.1>
41.27393746,62.77127386,-178.88267361,-173.91411954,-3.97740287,33.04358529
-5.96117919,108.97977343,-1.89815386,0.55615039,2.97100005

>  <Name>
ligand

>  <RI>
0

>  <Rbt.Current_Directory>
/home/itssahil/PROJECTS/Mol_Feturizer/New_Systems/rnas/4XW7

>  <Rbt.Executable>
rbdock ($Id: //depot/dev/client3/rdock/2013.1/src/exe/rbdock.cxx#4 $)

>  <Rbt.Library>
libRbt.so (2013.1, Build901 2013/11/27)

>  <Rbt.Parameter_File>
/export/apps/rDock/src/rDock_2013.1_src/data/scripts/dock_solv.prm

>  <Rbt.Receptor>
prm/pocket_docking_8.prm

>  <SCORE>
-10.4633

>  <SCORE.INTER>
-9.84588

>  <SCORE.INTER.CONST>
1

>  <SCORE.INTER.POLAR>
0

>  <SCORE.INTER.ROT>
5

>  <SCORE.INTER.SOLV>
17.3585

>  <SCORE.INTER.VDW>
-19.2834

>  <SCORE.INTER.norm>
-0.44754

>  <SCORE.INTRA>
-0.617405

>  <SCORE.INTRA.DIHEDRAL>
-0.910139

>  <SCORE.INTRA.DIHEDRAL.0>
2.61549

>  <SCORE.INTRA.POLAR>
0

>  <SCORE.INTRA.POLAR.0>
0

>  <SCORE.INTRA.REPUL>
0

>  <SCORE.INTRA.REPUL.0>
0

>  <SCORE.INTRA.SOLV>
0.472187

>  <SCORE.INTRA.SOLV.lig_0>
-73.766

>  <SCORE.INTRA.VDW>
-0.398429

>  <SCORE.INTRA.VDW.0>
-1.95055

>  <SCORE.INTRA.norm>
-0.0280639

>  <SCORE.RESTR>
0

>  <SCORE.RESTR.CAVITY>
0

>  <SCORE.RESTR.norm>
0

>  <SCORE.SYSTEM>
0

>  <SCORE.SYSTEM.CONST>
0

>  <SCORE.SYSTEM.DIHEDRAL>
0

>  <SCORE.SYSTEM.SOLV>
0

>  <SCORE.SYSTEM.norm>
0

>  <SCORE.heavy>
22

>  <SCORE.norm>
-0.475604

>  <RMSD>
7.451

$$$$
ligand
 OpenBabel11021811513D
libRbt.so/2013.1/901 2013/11/27
 22 23  0  0  0  0  0  0  0  0999 V2000
   32.9616   -4.5233  108.4406 N   0  0  0  0  0  0  0  0  0  0  0  0
   35.1010   -6.7419  109.9275 C   0  0  1  0  0  0  0  0  0  0  0  0
   34.6370   -6.1530  108.6629 O   0  0  0  0  0  0  0  0  0  0  0  0
   32.9452   -9.8845  109.7111 P   0  0  2  0  0  0  0  0  0  0  0  0
   34.2416   -4.7779  108.9439 C   0  0  2  0  0  0  0  0  0  0  0  0
   30.8503   -4.7833  107.9054 N   0  0  0  0  0  0  0  0  0  0  0  0
   34.6883   -3.3076  110.7757 O   0  0  0  0  0  0  0  0  0  0  0  0
   34.2547   -4.6267  110.4122 C   0  0  2  0  0  0  0  0  0  0  0  0
   29.0485   -2.9045  106.4453 N   0  0  0  0  0  0  0  0  0  0  0  0
   36.5419   -5.0857  110.8608 O   0  0  0  0  0  0  0  0  0  0  0  0
   35.2065   -5.6360  110.8893 C   0  0  2  0  0  0  0  0  0  0  0  0
   31.2274   -3.5548  107.5010 C   0  0  0  0  0  0  0  0  0  0  0  0
   33.3560   -2.2215  107.5847 N   0  0  0  0  0  0  0  0  0  0  0  0
   34.0535   -8.8002  109.5108 O   0  0  0  0  0  0  0  0  0  0  0  0
   34.1128   -7.7368  110.4116 C   0  0  0  0  0  0  0  0  0  0  0  0
   31.5134   -9.2451  109.4682 O   0  0  0  0  0  0  0  0  0  0  0  0
   31.9287   -5.3658  108.4814 C   0  0  0  0  0  0  0  0  0  0  0  0
   30.7880   -1.4378  106.5522 O   0  0  0  0  0  0  0  0  0  0  0  0
   30.3525   -2.5576  106.8080 C   0  0  0  0  0  0  0  0  0  0  0  0
   32.5629   -3.3760  107.8315 C   0  0  0  0  0  0  0  0  0  0  0  0
   33.0342  -10.5024  111.0533 O   0  5  0  0  0  0  0  0  0  0  0  0
   33.1648  -11.0548  108.8187 O   0  0  0  0  0  0  0  0  0  0  0  0
  1 17  1  0  0  0  0
  1 20  1  0  0  0  0
  2 15  1  1  0  0  0
  2  3  1  0  0  0  0
  2 11  1  0  0  0  0
  3  5  1  0  0  0  0
  4 16  1  6  0  0  0
  4 21  1  0  0  0  0
  4 22  2  0  0  0  0
  4 14  1  0  0  0  0
  5  1  1  1  0  0  0
  5  8  1  0  0  0  0
  6 17  2  0  0  0  0
  6 12  1  0  0  0  0
  8  7  1  6  0  0  0
  8 11  1  0  0  0  0
  9 19  1  0  0  0  0
 11 10  1  6  0  0  0
 12 20  2  0  0  0  0
 12 19  1  0  0  0  0
 13 20  1  0  0  0  0
 14 15  1  0  0  0  0
 18 19  2  0  0  0  0
M  CHG  1  21  -1
M  END
>  <CHROM.1>
39.87640489,65.03081830,66.31441630,-172.11148244,-4.50239027,33.06381782
-5.97976106,109.03652679,-1.88916468,0.54564847,2.95259476

>  <Name>
ligand

>  <RI>
0

>  <Rbt.Current_Directory>
/home/itssahil/PROJECTS/Mol_Feturizer/New_Systems/rnas/4XW7

>  <Rbt.Executable>
rbdock ($Id: //depot/dev/client3/rdock/2013.1/src/exe/rbdock.cxx#4 $)

>  <Rbt.Library>
libRbt.so (2013.1, Build901 2013/11/27)

>  <Rbt.Parameter_File>
/export/apps/rDock/src/rDock_2013.1_src/data/scripts/dock_solv.prm

>  <Rbt.Receptor>
prm/pocket_docking_8.prm

>  <SCORE>
-9.80251

>  <SCORE.INTER>
-8.92945

>  <SCORE.INTER.CONST>
1

>  <SCORE.INTER.POLAR>
0

>  <SCORE.INTER.ROT>
5

>  <SCORE.INTER.SOLV>
18.8367

>  <SCORE.INTER.VDW>
-19.1652

>  <SCORE.INTER.norm>
-0.405884

>  <SCORE.INTRA>
-0.873063

>  <SCORE.INTRA.DIHEDRAL>
-0.657692

>  <SCORE.INTRA.DIHEDRAL.0>
2.61549

>  <SCORE.INTRA.POLAR>
0

>  <SCORE.INTRA.POLAR.0>
0

>  <SCORE.INTRA.REPUL>
0

>  <SCORE.INTRA.REPUL.0>
0

>  <SCORE.INTRA.SOLV>
-0.0886939

>  <SCORE.INTRA.SOLV.lig_0>
-73.766

>  <SCORE.INTRA.VDW>
-0.49987

>  <SCORE.INTRA.VDW.0>
-1.95055

>  <SCORE.INTRA.norm>
-0.0396847

>  <SCORE.RESTR>
0

>  <SCORE.RESTR.CAVITY>
0

>  <SCORE.RESTR.norm>
0

>  <SCORE.SYSTEM>
0

>  <SCORE.SYSTEM.CONST>
0

>  <SCORE.SYSTEM.DIHEDRAL>
0

>  <SCORE.SYSTEM.SOLV>
0

>  <SCORE.SYSTEM.norm>
0

>  <SCORE.heavy>
22

>  <SCORE.norm>
-0.445569

>  <RMSD>
7.451

$$$$
ligand
 OpenBabel11021811513D
libRbt.so/2013.1/901 2013/11/27
 22 23  0  0  0  0  0  0  0  0999 V2000
   32.9551   -4.4862  108.5433 N   0  0  0  0  0  0  0  0  0  0  0  0
   35.1192   -6.7682  109.8918 C   0  0  1  0  0  0  0  0  0  0  0  0
   34.6427   -6.1138  108.6646 O   0  0  0  0  0  0  0  0  0  0  0  0
   32.9394   -9.8780  109.4992 P   0  0  2  0  0  0  0  0  0  0  0  0
   34.2402   -4.7591  109.0236 C   0  0  2  0  0  0  0  0  0  0  0  0
   30.8753   -4.7605  107.9023 N   0  0  0  0  0  0  0  0  0  0  0  0
   34.6894   -3.3888  110.9308 O   0  0  0  0  0  0  0  0  0  0  0  0
   34.2622   -4.6889  110.4979 C   0  0  2  0  0  0  0  0  0  0  0  0
   30.6582   -1.5389  106.2350 N   0  0  0  0  0  0  0  0  0  0  0  0
   36.5554   -5.1558  110.9058 O   0  0  0  0  0  0  0  0  0  0  0  0
   35.2239   -5.7162  110.9125 C   0  0  2  0  0  0  0  0  0  0  0  0
   31.1772   -3.4546  107.7665 C   0  0  0  0  0  0  0  0  0  0  0  0
   33.2111   -2.0384  108.1832 N   0  0  0  0  0  0  0  0  0  0  0  0
   34.0381   -8.7770  109.3412 O   0  0  0  0  0  0  0  0  0  0  0  0
   34.1410   -7.7952  110.3267 C   0  0  0  0  0  0  0  0  0  0  0  0
   33.0415  -10.9185  108.3056 O   0  0  0  0  0  0  0  0  0  0  0  0
   31.9796   -5.3809  108.3812 C   0  0  0  0  0  0  0  0  0  0  0  0
   29.1351   -2.2693  107.7631 O   0  0  0  0  0  0  0  0  0  0  0  0
   30.2504   -2.3925  107.2632 C   0  0  0  0  0  0  0  0  0  0  0  0
   32.4920   -3.2654  108.1670 C   0  0  0  0  0  0  0  0  0  0  0  0
   31.5870   -9.2808  109.5738 O   0  5  0  0  0  0  0  0  0  0  0  0
   33.0456  -10.5642  110.8153 O   0  0  0  0  0  0  0  0  0  0  0  0
  1 17  1  0  0  0  0
  1 20  1  0  0  0  0
  2 15  1  1  0  0  0
  2  3  1  0  0  0  0
  2 11  1  0  0  0  0
  3  5  1  0  0  0  0
  4 16  1  6  0  0  0
  4 21  1  0  0  0  0
  4 22  2  0  0  0  0
  4 14  1  0  0  0  0
  5  1  1  1  0  0  0
  5  8  1  0  0  0  0
  6 17  2  0  0  0  0
  6 12  1  0  0  0  0
  8  7  1  6  0  0  0
  8 11  1  0  0  0  0
  9 19  1  0  0  0  0
 11 10  1  6  0  0  0
 12 20  2  0  0  0  0
 12 19  1  0  0  0  0
 13 20  1  0  0  0  0
 14 15  1  0  0  0  0
 18 19  2  0  0  0  0
M  CHG  1  21  -1
M  END
>  <CHROM.1>
30.53164239,62.38301898,-177.63907354,-172.82938610,-128.73470298,33.04099832
-5.94879930,109.10372280,-1.89721794,0.51645012,3.03244111

>  <Name>
ligand

>  <RI>
0

>  <Rbt.Current_Directory>
/home/itssahil/PROJECTS/Mol_Feturizer/New_Systems/rnas/4XW7

>  <Rbt.Executable>
rbdock ($Id: //depot/dev/client3/rdock/2013.1/src/exe/rbdock.cxx#4 $)

>  <Rbt.Library>
libRbt.so (2013.1, Build901 2013/11/27)

>  <Rbt.Parameter_File>
/export/apps/rDock/src/rDock_2013.1_src/data/scripts/dock_solv.prm

>  <Rbt.Receptor>
prm/pocket_docking_8.prm

>  <SCORE>
-9.82577

>  <SCORE.INTER>
-9.33734

>  <SCORE.INTER.CONST>
1

>  <SCORE.INTER.POLAR>
0

>  <SCORE.INTER.ROT>
5

>  <SCORE.INTER.SOLV>
14.367

>  <SCORE.INTER.VDW>
-17.9472

>  <SCORE.INTER.norm>
-0.424424

>  <SCORE.INTRA>
-0.488433

>  <SCORE.INTRA.DIHEDRAL>
-0.775793

>  <SCORE.INTRA.DIHEDRAL.0>
2.61549

>  <SCORE.INTRA.POLAR>
0

>  <SCORE.INTRA.POLAR.0>
0

>  <SCORE.INTRA.REPUL>
0

>  <SCORE.INTRA.REPUL.0>
0

>  <SCORE.INTRA.SOLV>
0.898681

>  <SCORE.INTRA.SOLV.lig_0>
-73.766

>  <SCORE.INTRA.VDW>
-0.549876

>  <SCORE.INTRA.VDW.0>
-1.95055

>  <SCORE.INTRA.norm>
-0.0222015

>  <SCORE.RESTR>
0

>  <SCORE.RESTR.CAVITY>
0

>  <SCORE.RESTR.norm>
0

>  <SCORE.SYSTEM>
0

>  <SCORE.SYSTEM.CONST>
0

>  <SCORE.SYSTEM.DIHEDRAL>
0

>  <SCORE.SYSTEM.SOLV>
0

>  <SCORE.SYSTEM.norm>
0

>  <SCORE.heavy>
22

>  <SCORE.norm>
-0.446626

>  <RMSD>
7.485

$$$$
ligand
 OpenBabel11021811513D
libRbt.so/2013.1/901 2013/11/27
 22 23  0  0  0  0  0  0  0  0999 V2000
   30.6569   -3.5551  107.5999 N   0  0  0  0  0  0  0  0  0  0  0  0
   33.9279   -3.5911  108.6045 C   0  0  1  0  0  0  0  0  0  0  0  0
   32.9971   -3.4098  107.4810 O   0  0  0  0  0  0  0  0  0  0  0  0
   35.4033   -6.6458  110.3586 P   0  0  2  0  0  0  0  0  0  0  0  0
   31.7744   -2.8265  108.0204 C   0  0  2  0  0  0  0  0  0  0  0  0
   29.2221   -5.1945  107.3436 N   0  0  0  0  0  0  0  0  0  0  0  0
   31.2805   -1.7232  110.0833 O   0  0  0  0  0  0  0  0  0  0  0  0
   31.8957   -2.8767  109.4907 C   0  0  2  0  0  0  0  0  0  0  0  0
   26.4938   -3.1999  106.1563 N   0  0  0  0  0  0  0  0  0  0  0  0
   33.8272   -1.5284  109.7984 O   0  0  0  0  0  0  0  0  0  0  0  0
   33.3392   -2.8873  109.7523 C   0  0  2  0  0  0  0  0  0  0  0  0
   28.7673   -4.1382  106.6418 C   0  0  0  0  0  0  0  0  0  0  0  0
   29.5697   -1.7942  106.2202 N   0  0  0  0  0  0  0  0  0  0  0  0
   35.1491   -5.2181  109.7745 O   0  0  0  0  0  0  0  0  0  0  0  0
   34.0648   -5.0349  108.9164 C   0  0  0  0  0  0  0  0  0  0  0  0
   36.9107   -6.7731  110.8378 O   0  0  0  0  0  0  0  0  0  0  0  0
   30.3852   -4.8191  107.9269 C   0  0  0  0  0  0  0  0  0  0  0  0
   27.3674   -4.8807  104.8914 O   0  0  0  0  0  0  0  0  0  0  0  0
   27.5083   -4.1047  105.8331 C   0  0  0  0  0  0  0  0  0  0  0  0
   29.6664   -3.0924  106.7931 C   0  0  0  0  0  0  0  0  0  0  0  0
   35.0647   -7.6976  109.3736 O   0  5  0  0  0  0  0  0  0  0  0  0
   34.4628   -6.9515  111.4704 O   0  0  0  0  0  0  0  0  0  0  0  0
  1 17  1  0  0  0  0
  1 20  1  0  0  0  0
  2 15  1  1  0  0  0
  2  3  1  0  0  0  0
  2 11  1  0  0  0  0
  3  5  1  0  0  0  0
  4 16  1  1  0  0  0
  4 21  1  0  0  0  0
  4 22  2  0  0  0  0
  4 14  1  0  0  0  0
  5  1  1  1  0  0  0
  5  8  1  0  0  0  0
  6 17  2  0  0  0  0
  6 12  1  0  0  0  0
  8  7  1  1  0  0  0
  8 11  1  0  0  0  0
  9 19  1  0  0  0  0
 11 10  1  6  0  0  0
 12 20  2  0  0  0  0
 12 19  1  0  0  0  0
 13 20  1  0  0  0  0
 14 15  1  0  0  0  0
 18 19  2  0  0  0  0
M  CHG  1  21  -1
M  END
>  <CHROM.1>
64.98746221,167.37723224,159.13748425,173.92692891,118.96666413,32.12297610
-4.35219940,108.51152489,-2.90160977,0.54656041,-3.01397585

>  <Name>
ligand

>  <RI>
0

>  <Rbt.Current_Directory>
/home/itssahil/PROJECTS/Mol_Feturizer/New_Systems/rnas/4XW7

>  <Rbt.Executable>
rbdock ($Id: //depot/dev/client3/rdock/2013.1/src/exe/rbdock.cxx#4 $)

>  <Rbt.Library>
libRbt.so (2013.1, Build901 2013/11/27)

>  <Rbt.Parameter_File>
/export/apps/rDock/src/rDock_2013.1_src/data/scripts/dock_solv.prm

>  <Rbt.Receptor>
prm/pocket_docking_7.prm

>  <SCORE>
-8.52325

>  <SCORE.INTER>
-8.65208

>  <SCORE.INTER.CONST>
1

>  <SCORE.INTER.POLAR>
0

>  <SCORE.INTER.ROT>
5

>  <SCORE.INTER.SOLV>
15.7981

>  <SCORE.INTER.VDW>
-17.9674

>  <SCORE.INTER.norm>
-0.393276

>  <SCORE.INTRA>
0.128829

>  <SCORE.INTRA.DIHEDRAL>
0.228027

>  <SCORE.INTRA.DIHEDRAL.0>
2.61549

>  <SCORE.INTRA.POLAR>
0

>  <SCORE.INTRA.POLAR.0>
0

>  <SCORE.INTRA.REPUL>
0

>  <SCORE.INTRA.REPUL.0>
0

>  <SCORE.INTRA.SOLV>
-0.0571612

>  <SCORE.INTRA.SOLV.lig_0>
-73.766

>  <SCORE.INTRA.VDW>
0.0433966

>  <SCORE.INTRA.VDW.0>
-1.95055

>  <SCORE.INTRA.norm>
0.00585587

>  <SCORE.RESTR>
0

>  <SCORE.RESTR.CAVITY>
0

>  <SCORE.RESTR.norm>
0

>  <SCORE.SYSTEM>
0

>  <SCORE.SYSTEM.CONST>
0

>  <SCORE.SYSTEM.DIHEDRAL>
0

>  <SCORE.SYSTEM.SOLV>
0

>  <SCORE.SYSTEM.norm>
0

>  <SCORE.heavy>
22

>  <SCORE.norm>
-0.38742

>  <RMSD>
7.490

$$$$
ligand
 OpenBabel11021811513D
libRbt.so/2013.1/901 2013/11/27
 22 23  0  0  0  0  0  0  0  0999 V2000
   30.3353   -4.4296  109.0300 N   0  0  0  0  0  0  0  0  0  0  0  0
   33.5644   -3.8974  108.0303 C   0  0  1  0  0  0  0  0  0  0  0  0
   32.3240   -4.6527  107.8022 O   0  0  0  0  0  0  0  0  0  0  0  0
   35.1727   -6.6085  110.1909 P   0  0  2  0  0  0  0  0  0  0  0  0
   31.2122   -3.7783  108.1562 C   0  0  2  0  0  0  0  0  0  0  0  0
   29.5784   -5.5937  110.7282 N   0  0  0  0  0  0  0  0  0  0  0  0
   31.0504   -1.4142  108.4752 O   0  0  0  0  0  0  0  0  0  0  0  0
   31.7997   -2.5920  108.8093 C   0  0  2  0  0  0  0  0  0  0  0  0
   26.1802   -4.5272  110.5594 N   0  0  0  0  0  0  0  0  0  0  0  0
   33.1532   -1.7664  107.0402 O   0  0  0  0  0  0  0  0  0  0  0  0
   33.1657   -2.5055  108.2814 C   0  0  2  0  0  0  0  0  0  0  0  0
   28.5199   -5.2193  109.9835 C   0  0  0  0  0  0  0  0  0  0  0  0
   28.2003   -3.8971  107.8704 N   0  0  0  0  0  0  0  0  0  0  0  0
   34.4745   -5.8086  109.0434 O   0  0  0  0  0  0  0  0  0  0  0  0
   34.2725   -4.4392  109.2159 C   0  0  0  0  0  0  0  0  0  0  0  0
   36.6933   -6.1703  110.3074 O   0  0  0  0  0  0  0  0  0  0  0  0
   30.6873   -5.0998  110.1279 C   0  0  0  0  0  0  0  0  0  0  0  0
   26.7198   -6.7207  110.2667 O   0  0  0  0  0  0  0  0  0  0  0  0
   27.0890   -5.5491  110.2731 C   0  0  0  0  0  0  0  0  0  0  0  0
   28.9835   -4.4825  108.9032 C   0  0  0  0  0  0  0  0  0  0  0  0
   35.0516   -8.0685  109.9791 O   0  5  0  0  0  0  0  0  0  0  0  0
   34.4646   -6.4260  111.4869 O   0  0  0  0  0  0  0  0  0  0  0  0
  1 17  1  0  0  0  0
  1 20  1  0  0  0  0
  2 15  1  1  0  0  0
  2  3  1  0  0  0  0
  2 11  1  0  0  0  0
  3  5  1  0  0  0  0
  4 16  1  1  0  0  0
  4 21  1  0  0  0  0
  4 22  2  0  0  0  0
  4 14  1  0  0  0  0
  5  1  1  1  0  0  0
  5  8  1  0  0  0  0
  6 17  2  0  0  0  0
  6 12  1  0  0  0  0
  8  7  1  6  0  0  0
  8 11  1  0  0  0  0
  9 19  1  0  0  0  0
 11 10  1  6  0  0  0
 12 20  2  0  0  0  0
 12 19  1  0  0  0  0
 13 20  1  0  0  0  0
 14 15  1  0  0  0  0
 18 19  2  0  0  0  0
M  CHG  1  21  -1
M  END
>  <CHROM.1>
48.23505452,54.73529414,-68.45875125,-178.34551968,116.09065369,31.80242863
-4.83829235,109.34338126,-2.99568255,-0.06896622,2.58861176

>  <Name>
ligand

>  <RI>
0

>  <Rbt.Current_Directory>
/home/itssahil/PROJECTS/Mol_Feturizer/New_Systems/rnas/4XW7

>  <Rbt.Executable>
rbdock ($Id: //depot/dev/client3/rdock/2013.1/src/exe/rbdock.cxx#4 $)

>  <Rbt.Library>
libRbt.so (2013.1, Build901 2013/11/27)

>  <Rbt.Parameter_File>
/export/apps/rDock/src/rDock_2013.1_src/data/scripts/dock_solv.prm

>  <Rbt.Receptor>
prm/pocket_docking_8.prm

>  <SCORE>
-7.51583

>  <SCORE.INTER>
-6.3575

>  <SCORE.INTER.CONST>
1

>  <SCORE.INTER.POLAR>
0

>  <SCORE.INTER.ROT>
5

>  <SCORE.INTER.SOLV>
11.8951

>  <SCORE.INTER.VDW>
-15.1367

>  <SCORE.INTER.norm>
-0.288977

>  <SCORE.INTRA>
-1.15832

>  <SCORE.INTRA.DIHEDRAL>
-0.899956

>  <SCORE.INTRA.DIHEDRAL.0>
2.61549

>  <SCORE.INTRA.POLAR>
0

>  <SCORE.INTRA.POLAR.0>
0

>  <SCORE.INTRA.REPUL>
0

>  <SCORE.INTRA.REPUL.0>
0

>  <SCORE.INTRA.SOLV>
-0.320856

>  <SCORE.INTRA.SOLV.lig_0>
-73.766

>  <SCORE.INTRA.VDW>
-0.547917

>  <SCORE.INTRA.VDW.0>
-1.95055

>  <SCORE.INTRA.norm>
-0.0526511

>  <SCORE.RESTR>
0

>  <SCORE.RESTR.CAVITY>
0

>  <SCORE.RESTR.norm>
0

>  <SCORE.SYSTEM>
0

>  <SCORE.SYSTEM.CONST>
0

>  <SCORE.SYSTEM.DIHEDRAL>
0

>  <SCORE.SYSTEM.SOLV>
0

>  <SCORE.SYSTEM.norm>
0

>  <SCORE.heavy>
22

>  <SCORE.norm>
-0.341628

>  <RMSD>
7.507

$$$$
ligand
 OpenBabel11021811513D
libRbt.so/2013.1/901 2013/11/27
 22 23  0  0  0  0  0  0  0  0999 V2000
   32.9115   -4.6027  108.5601 N   0  0  0  0  0  0  0  0  0  0  0  0
   35.1801   -6.7935  109.8882 C   0  0  1  0  0  0  0  0  0  0  0  0
   34.6413   -6.1868  108.6622 O   0  0  0  0  0  0  0  0  0  0  0  0
   32.9441   -9.8714  109.6113 P   0  0  2  0  0  0  0  0  0  0  0  0
   34.2202   -4.8317  108.9976 C   0  0  2  0  0  0  0  0  0  0  0  0
   30.8162   -4.9439  108.0079 N   0  0  0  0  0  0  0  0  0  0  0  0
   34.7089   -3.3957  110.8458 O   0  0  0  0  0  0  0  0  0  0  0  0
   34.2969   -4.7175  110.4673 C   0  0  2  0  0  0  0  0  0  0  0  0
   30.4672   -1.7582  106.2808 N   0  0  0  0  0  0  0  0  0  0  0  0
   36.6147   -5.1193  110.7988 O   0  0  0  0  0  0  0  0  0  0  0  0
   35.2983   -5.7097  110.8734 C   0  0  2  0  0  0  0  0  0  0  0  0
   31.0806   -3.6356  107.8247 C   0  0  0  0  0  0  0  0  0  0  0  0
   33.0935   -2.1609  108.1234 N   0  0  0  0  0  0  0  0  0  0  0  0
   34.0658   -8.8018  109.4061 O   0  0  0  0  0  0  0  0  0  0  0  0
   34.2443   -7.8294  110.3901 C   0  0  0  0  0  0  0  0  0  0  0  0
   32.9932  -10.9380  108.4374 O   0  0  0  0  0  0  0  0  0  0  0  0
   31.9528   -5.5244  108.4606 C   0  0  0  0  0  0  0  0  0  0  0  0
   29.0022   -2.5155  107.8519 O   0  0  0  0  0  0  0  0  0  0  0  0
   30.1095   -2.6103  107.3287 C   0  0  0  0  0  0  0  0  0  0  0  0
   32.4046   -3.4044  108.1687 C   0  0  0  0  0  0  0  0  0  0  0  0
   31.6089   -9.2391  109.7038 O   0  5  0  0  0  0  0  0  0  0  0  0
   33.0634  -10.5335  110.9385 O   0  0  0  0  0  0  0  0  0  0  0  0
  1 17  1  0  0  0  0
  1 20  1  0  0  0  0
  2 15  1  1  0  0  0
  2  3  1  0  0  0  0
  2 11  1  0  0  0  0
  3  5  1  0  0  0  0
  4 16  1  6  0  0  0
  4 21  1  0  0  0  0
  4 22  2  0  0  0  0
  4 14  1  0  0  0  0
  5  1  1  1  0  0  0
  5  8  1  0  0  0  0
  6 17  2  0  0  0  0
  6 12  1  0  0  0  0
  8  7  1  6  0  0  0
  8 11  1  0  0  0  0
  9 19  1  0  0  0  0
 11 10  1  6  0  0  0
 12 20  2  0  0  0  0
 12 19  1  0  0  0  0
 13 20  1  0  0  0  0
 14 15  1  0  0  0  0
 18 19  2  0  0  0  0
M  CHG  1  21  -1
M  END
>  <CHROM.1>
30.45597245,58.89122580,-175.55685413,-170.11786170,-130.06350453,33.01967422
-6.01925795,109.14186585,-1.92168892,0.47877254,3.01623370

>  <Name>
ligand

>  <RI>
0

>  <Rbt.Current_Directory>
/home/itssahil/PROJECTS/Mol_Feturizer/New_Systems/rnas/4XW7

>  <Rbt.Executable>
rbdock ($Id: //depot/dev/client3/rdock/2013.1/src/exe/rbdock.cxx#4 $)

>  <Rbt.Library>
libRbt.so (2013.1, Build901 2013/11/27)

>  <Rbt.Parameter_File>
/export/apps/rDock/src/rDock_2013.1_src/data/scripts/dock_solv.prm

>  <Rbt.Receptor>
prm/pocket_docking_8.prm

>  <SCORE>
-9.86712

>  <SCORE.INTER>
-9.50516

>  <SCORE.INTER.CONST>
1

>  <SCORE.INTER.POLAR>
0

>  <SCORE.INTER.ROT>
5

>  <SCORE.INTER.SOLV>
14.0479

>  <SCORE.INTER.VDW>
-17.9527

>  <SCORE.INTER.norm>
-0.432053

>  <SCORE.INTRA>
-0.361964

>  <SCORE.INTRA.DIHEDRAL>
-0.525414

>  <SCORE.INTRA.DIHEDRAL.0>
2.61549

>  <SCORE.INTRA.POLAR>
0

>  <SCORE.INTRA.POLAR.0>
0

>  <SCORE.INTRA.REPUL>
0

>  <SCORE.INTRA.REPUL.0>
0

>  <SCORE.INTRA.SOLV>
0.998182

>  <SCORE.INTRA.SOLV.lig_0>
-73.766

>  <SCORE.INTRA.VDW>
-0.598348

>  <SCORE.INTRA.VDW.0>
-1.95055

>  <SCORE.INTRA.norm>
-0.0164529

>  <SCORE.RESTR>
0

>  <SCORE.RESTR.CAVITY>
0

>  <SCORE.RESTR.norm>
0

>  <SCORE.SYSTEM>
0

>  <SCORE.SYSTEM.CONST>
0

>  <SCORE.SYSTEM.DIHEDRAL>
0

>  <SCORE.SYSTEM.SOLV>
0

>  <SCORE.SYSTEM.norm>
0

>  <SCORE.heavy>
22

>  <SCORE.norm>
-0.448506

>  <RMSD>
7.511

$$$$
ligand
 OpenBabel11021811513D
libRbt.so/2013.1/901 2013/11/27
 22 23  0  0  0  0  0  0  0  0999 V2000
   33.9632   -4.6322  108.9427 N   0  0  0  0  0  0  0  0  0  0  0  0
   32.2331   -1.8719  107.8952 C   0  0  1  0  0  0  0  0  0  0  0  0
   33.4421   -2.6916  107.7284 O   0  0  0  0  0  0  0  0  0  0  0  0
   31.2587    0.9116  110.3259 P   0  0  2  0  0  0  0  0  0  0  0  0
   33.0739   -4.0721  108.0197 C   0  0  2  0  0  0  0  0  0  0  0  0
   35.2575   -6.0771  109.9669 N   0  0  0  0  0  0  0  0  0  0  0  0
   30.9647   -5.1893  108.1612 O   0  0  0  0  0  0  0  0  0  0  0  0
   31.7088   -4.0356  108.5801 C   0  0  2  0  0  0  0  0  0  0  0  0
   35.5251   -4.3492  113.0742 N   0  0  0  0  0  0  0  0  0  0  0  0
   30.5292   -3.0863  106.7496 O   0  0  0  0  0  0  0  0  0  0  0  0
   31.1105   -2.8086  108.0426 C   0  0  2  0  0  0  0  0  0  0  0  0
   35.3319   -4.9117  110.6388 C   0  0  0  0  0  0  0  0  0  0  0  0
   34.3028   -2.6333  110.3833 N   0  0  0  0  0  0  0  0  0  0  0  0
   31.3209   -0.1021  109.1373 O   0  0  0  0  0  0  0  0  0  0  0  0
   32.3554   -1.0376  109.1157 C   0  0  0  0  0  0  0  0  0  0  0  0
   30.1113    1.9769  110.0681 O   0  0  0  0  0  0  0  0  0  0  0  0
   34.4115   -5.8881  108.9265 C   0  0  0  0  0  0  0  0  0  0  0  0
   37.3775   -4.7268  111.8036 O   0  0  0  0  0  0  0  0  0  0  0  0
   36.1523   -4.6629  111.8657 C   0  0  0  0  0  0  0  0  0  0  0  0
   34.5161   -3.9871  110.0030 C   0  0  0  0  0  0  0  0  0  0  0  0
   32.5658    1.5738  110.5365 O   0  5  0  0  0  0  0  0  0  0  0  0
   31.0555    0.2127  111.6237 O   0  0  0  0  0  0  0  0  0  0  0  0
  1 17  1  0  0  0  0
  1 20  1  0  0  0  0
  2 15  1  1  0  0  0
  2  3  1  0  0  0  0
  2 11  1  0  0  0  0
  3  5  1  0  0  0  0
  4 16  1  6  0  0  0
  4 21  1  0  0  0  0
  4 22  2  0  0  0  0
  4 14  1  0  0  0  0
  5  1  1  1  0  0  0
  5  8  1  0  0  0  0
  6 17  2  0  0  0  0
  6 12  1  0  0  0  0
  8  7  1  6  0  0  0
  8 11  1  0  0  0  0
  9 19  1  0  0  0  0
 11 10  1  6  0  0  0
 12 20  2  0  0  0  0
 12 19  1  0  0  0  0
 13 20  1  0  0  0  0
 14 15  1  0  0  0  0
 18 19  2  0  0  0  0
M  CHG  1  21  -1
M  END
>  <CHROM.1>
-142.03380304,169.67067828,173.72029524,-178.91962165,-116.06774468,32.93992052
-2.51178092,109.64713542,0.66171091,0.71369005,-2.56482973

>  <Name>
ligand

>  <RI>
0

>  <Rbt.Current_Directory>
/home/itssahil/PROJECTS/Mol_Feturizer/New_Systems/rnas/4XW7

>  <Rbt.Executable>
rbdock ($Id: //depot/dev/client3/rdock/2013.1/src/exe/rbdock.cxx#4 $)

>  <Rbt.Library>
libRbt.so (2013.1, Build901 2013/11/27)

>  <Rbt.Parameter_File>
/export/apps/rDock/src/rDock_2013.1_src/data/scripts/dock_solv.prm

>  <Rbt.Receptor>
prm/pocket_docking_7.prm

>  <SCORE>
-6.17708

>  <SCORE.INTER>
-8.13791

>  <SCORE.INTER.CONST>
1

>  <SCORE.INTER.POLAR>
0

>  <SCORE.INTER.ROT>
5

>  <SCORE.INTER.SOLV>
14.2489

>  <SCORE.INTER.VDW>
-17.1082

>  <SCORE.INTER.norm>
-0.369905

>  <SCORE.INTRA>
1.96083

>  <SCORE.INTRA.DIHEDRAL>
-0.681032

>  <SCORE.INTRA.DIHEDRAL.0>
2.61549

>  <SCORE.INTRA.POLAR>
0

>  <SCORE.INTRA.POLAR.0>
0

>  <SCORE.INTRA.REPUL>
0

>  <SCORE.INTRA.REPUL.0>
0

>  <SCORE.INTRA.SOLV>
4.8186

>  <SCORE.INTRA.SOLV.lig_0>
-73.766

>  <SCORE.INTRA.VDW>
-0.107954

>  <SCORE.INTRA.VDW.0>
-1.95055

>  <SCORE.INTRA.norm>
0.0891285

>  <SCORE.RESTR>
0

>  <SCORE.RESTR.CAVITY>
0

>  <SCORE.RESTR.norm>
0

>  <SCORE.SYSTEM>
0

>  <SCORE.SYSTEM.CONST>
0

>  <SCORE.SYSTEM.DIHEDRAL>
0

>  <SCORE.SYSTEM.SOLV>
0

>  <SCORE.SYSTEM.norm>
0

>  <SCORE.heavy>
22

>  <SCORE.norm>
-0.280777

>  <RMSD>
7.516

$$$$
ligand
 OpenBabel11021811513D
libRbt.so/2013.1/901 2013/11/27
 22 23  0  0  0  0  0  0  0  0999 V2000
   31.2285   -2.0174  106.9040 N   0  0  0  0  0  0  0  0  0  0  0  0
   32.1817   -2.1618  110.1873 C   0  0  1  0  0  0  0  0  0  0  0  0
   31.1103   -2.4190  109.2141 O   0  0  0  0  0  0  0  0  0  0  0  0
   30.8935    1.2206  111.4103 P   0  0  2  0  0  0  0  0  0  0  0  0
   31.7470   -2.7827  107.9538 C   0  0  2  0  0  0  0  0  0  0  0  0
   31.0953   -0.5995  105.2355 N   0  0  0  0  0  0  0  0  0  0  0  0
   33.9627   -3.4953  107.4062 O   0  0  0  0  0  0  0  0  0  0  0  0
   33.1898   -2.5173  108.1178 C   0  0  2  0  0  0  0  0  0  0  0  0
   28.1543   -1.7196  103.6899 N   0  0  0  0  0  0  0  0  0  0  0  0
   33.6862   -3.9925  109.9125 O   0  0  0  0  0  0  0  0  0  0  0  0
   33.4319   -2.6144  109.5615 C   0  0  2  0  0  0  0  0  0  0  0  0
   29.8717   -1.1325  105.4192 C   0  0  0  0  0  0  0  0  0  0  0  0
   28.8740   -2.8135  106.9987 N   0  0  0  0  0  0  0  0  0  0  0  0
   31.0827   -0.2999  111.1000 O   0  0  0  0  0  0  0  0  0  0  0  0
   32.2612   -0.7088  110.4757 C   0  0  0  0  0  0  0  0  0  0  0  0
   30.5867    2.0117  110.0695 O   0  0  0  0  0  0  0  0  0  0  0  0
   31.9182   -1.1545  106.1568 C   0  0  0  0  0  0  0  0  0  0  0  0
   28.0863    0.2765  104.7850 O   0  0  0  0  0  0  0  0  0  0  0  0
   28.6482   -0.8037  104.6223 C   0  0  0  0  0  0  0  0  0  0  0  0
   29.9397   -2.0314  106.4738 C   0  0  0  0  0  0  0  0  0  0  0  0
   32.0771    1.7793  112.1019 O   0  5  0  0  0  0  0  0  0  0  0  0
   29.8185    1.4386  112.4158 O   0  0  0  0  0  0  0  0  0  0  0  0
  1 17  1  0  0  0  0
  1 20  1  0  0  0  0
  2 15  1  6  0  0  0
  2  3  1  0  0  0  0
  2 11  1  0  0  0  0
  3  5  1  0  0  0  0
  4 16  1  6  0  0  0
  4 21  1  0  0  0  0
  4 22  2  0  0  0  0
  4 14  1  0  0  0  0
  5  1  1  6  0  0  0
  5  8  1  0  0  0  0
  6 17  2  0  0  0  0
  6 12  1  0  0  0  0
  8  7  1  6  0  0  0
  8 11  1  0  0  0  0
  9 19  1  0  0  0  0
 11 10  1  6  0  0  0
 12 20  2  0  0  0  0
 12 19  1  0  0  0  0
 13 20  1  0  0  0  0
 14 15  1  0  0  0  0
 18 19  2  0  0  0  0
M  CHG  1  21  -1
M  END
>  <CHROM.1>
116.91176110,64.69683252,73.78832020,-175.72814609,106.32370917,31.09002062
-1.03356297,108.47901340,-1.95427776,-0.75895141,0.99303538

>  <Name>
ligand

>  <RI>
0

>  <Rbt.Current_Directory>
/home/itssahil/PROJECTS/Mol_Feturizer/New_Systems/rnas/4XW7

>  <Rbt.Executable>
rbdock ($Id: //depot/dev/client3/rdock/2013.1/src/exe/rbdock.cxx#4 $)

>  <Rbt.Library>
libRbt.so (2013.1, Build901 2013/11/27)

>  <Rbt.Parameter_File>
/export/apps/rDock/src/rDock_2013.1_src/data/scripts/dock_solv.prm

>  <Rbt.Receptor>
prm/pocket_docking_7.prm

>  <SCORE>
-6.44513

>  <SCORE.INTER>
-6.83919

>  <SCORE.INTER.CONST>
1

>  <SCORE.INTER.POLAR>
0

>  <SCORE.INTER.ROT>
5

>  <SCORE.INTER.SOLV>
8.54168

>  <SCORE.INTER.VDW>
-14.34

>  <SCORE.INTER.norm>
-0.310872

>  <SCORE.INTRA>
0.394064

>  <SCORE.INTRA.DIHEDRAL>
-0.46851

>  <SCORE.INTRA.DIHEDRAL.0>
2.61549

>  <SCORE.INTRA.POLAR>
0

>  <SCORE.INTRA.POLAR.0>
0

>  <SCORE.INTRA.REPUL>
0

>  <SCORE.INTRA.REPUL.0>
0

>  <SCORE.INTRA.SOLV>
-0.375884

>  <SCORE.INTRA.SOLV.lig_0>
-73.766

>  <SCORE.INTRA.VDW>
0.816261

>  <SCORE.INTRA.VDW.0>
-1.95055

>  <SCORE.INTRA.norm>
0.017912

>  <SCORE.RESTR>
0

>  <SCORE.RESTR.CAVITY>
0

>  <SCORE.RESTR.norm>
0

>  <SCORE.SYSTEM>
0

>  <SCORE.SYSTEM.CONST>
0

>  <SCORE.SYSTEM.DIHEDRAL>
0

>  <SCORE.SYSTEM.SOLV>
0

>  <SCORE.SYSTEM.norm>
0

>  <SCORE.heavy>
22

>  <SCORE.norm>
-0.29296

>  <RMSD>
7.572

$$$$
ligand
 OpenBabel11021811513D
libRbt.so/2013.1/901 2013/11/27
 22 23  0  0  0  0  0  0  0  0999 V2000
   32.2042   -4.5799  108.1423 N   0  0  0  0  0  0  0  0  0  0  0  0
   31.9565   -1.1687  108.0300 C   0  0  1  0  0  0  0  0  0  0  0  0
   32.7035   -2.3544  107.5855 O   0  0  0  0  0  0  0  0  0  0  0  0
   34.2409   -0.1537  110.9200 P   0  0  2  0  0  0  0  0  0  0  0  0
   31.7471   -3.4478  107.4597 C   0  0  2  0  0  0  0  0  0  0  0  0
   32.2377   -6.5417  109.1230 N   0  0  0  0  0  0  0  0  0  0  0  0
   29.3604   -3.5032  107.3265 O   0  0  0  0  0  0  0  0  0  0  0  0
   30.4805   -2.9706  108.0488 C   0  0  2  0  0  0  0  0  0  0  0  0
   35.4626   -5.9812  110.7241 N   0  0  0  0  0  0  0  0  0  0  0  0
   30.0273   -1.1217  106.6277 O   0  0  0  0  0  0  0  0  0  0  0  0
   30.5309   -1.5096  107.9249 C   0  0  2  0  0  0  0  0  0  0  0  0
   33.4821   -6.0297  109.1879 C   0  0  0  0  0  0  0  0  0  0  0  0
   34.5821   -3.9049  108.4193 N   0  0  0  0  0  0  0  0  0  0  0  0
   33.6608   -0.5826  109.5330 O   0  0  0  0  0  0  0  0  0  0  0  0
   32.2968   -0.8593  109.4404 C   0  0  0  0  0  0  0  0  0  0  0  0
   35.8118    0.0420  110.8116 O   0  0  0  0  0  0  0  0  0  0  0  0
   31.4640   -5.6375  108.4767 C   0  0  0  0  0  0  0  0  0  0  0  0
   34.9376   -7.8552  109.5405 O   0  0  0  0  0  0  0  0  0  0  0  0
   34.6656   -6.6909  109.8223 C   0  0  0  0  0  0  0  0  0  0  0  0
   33.4765   -4.7864  108.5723 C   0  0  0  0  0  0  0  0  0  0  0  0
   33.8956   -1.1346  111.9734 O   0  5  0  0  0  0  0  0  0  0  0  0
   33.5832    1.0825  111.4234 O   0  0  0  0  0  0  0  0  0  0  0  0
  1 17  1  0  0  0  0
  1 20  1  0  0  0  0
  2 15  1  1  0  0  0
  2  3  1  0  0  0  0
  2 11  1  0  0  0  0
  3  5  1  0  0  0  0
  4 16  1  6  0  0  0
  4 21  1  0  0  0  0
  4 22  2  0  0  0  0
  4 14  1  0  0  0  0
  5  1  1  1  0  0  0
  5  8  1  0  0  0  0
  6 17  2  0  0  0  0
  6 12  1  0  0  0  0
  8  7  1  6  0  0  0
  8 11  1  0  0  0  0
  9 19  1  0  0  0  0
 11 10  1  6  0  0  0
 12 20  2  0  0  0  0
 12 19  1  0  0  0  0
 13 20  1  0  0  0  0
 14 15  1  0  0  0  0
 18 19  2  0  0  0  0
M  CHG  1  21  -1
M  END
>  <CHROM.1>
164.37113716,61.17600165,177.29816953,176.86636157,-130.77470726,32.94322351
-2.89935918,109.17671502,1.63991918,0.64439733,-2.95324068

>  <Name>
ligand

>  <RI>
0

>  <Rbt.Current_Directory>
/home/itssahil/PROJECTS/Mol_Feturizer/New_Systems/rnas/4XW7

>  <Rbt.Executable>
rbdock ($Id: //depot/dev/client3/rdock/2013.1/src/exe/rbdock.cxx#4 $)

>  <Rbt.Library>
libRbt.so (2013.1, Build901 2013/11/27)

>  <Rbt.Parameter_File>
/export/apps/rDock/src/rDock_2013.1_src/data/scripts/dock_solv.prm

>  <Rbt.Receptor>
prm/pocket_docking_8.prm

>  <SCORE>
-5.81552

>  <SCORE.INTER>
-7.07799

>  <SCORE.INTER.CONST>
1

>  <SCORE.INTER.POLAR>
0

>  <SCORE.INTER.ROT>
5

>  <SCORE.INTER.SOLV>
17.9029

>  <SCORE.INTER.VDW>
-17.6196

>  <SCORE.INTER.norm>
-0.321727

>  <SCORE.INTRA>
1.26247

>  <SCORE.INTRA.DIHEDRAL>
-0.946885

>  <SCORE.INTRA.DIHEDRAL.0>
2.61549

>  <SCORE.INTRA.POLAR>
0

>  <SCORE.INTRA.POLAR.0>
0

>  <SCORE.INTRA.REPUL>
0

>  <SCORE.INTRA.REPUL.0>
0

>  <SCORE.INTRA.SOLV>
2.99669

>  <SCORE.INTRA.SOLV.lig_0>
-73.766

>  <SCORE.INTRA.VDW>
0.237569

>  <SCORE.INTRA.VDW.0>
-1.95055

>  <SCORE.INTRA.norm>
0.0573851

>  <SCORE.RESTR>
0

>  <SCORE.RESTR.CAVITY>
0

>  <SCORE.RESTR.norm>
0

>  <SCORE.SYSTEM>
0

>  <SCORE.SYSTEM.CONST>
0

>  <SCORE.SYSTEM.DIHEDRAL>
0

>  <SCORE.SYSTEM.SOLV>
0

>  <SCORE.SYSTEM.norm>
0

>  <SCORE.heavy>
22

>  <SCORE.norm>
-0.264342

>  <RMSD>
7.579

$$$$
ligand
 OpenBabel11021811513D
libRbt.so/2013.1/901 2013/11/27
 22 23  0  0  0  0  0  0  0  0999 V2000
   32.9977   -1.0186  110.1403 N   0  0  0  0  0  0  0  0  0  0  0  0
   32.4100   -4.0947  108.7611 C   0  0  1  0  0  0  0  0  0  0  0  0
   32.1460   -3.1923  109.8912 O   0  0  0  0  0  0  0  0  0  0  0  0
   35.1841   -6.1328  110.4179 P   0  0  2  0  0  0  0  0  0  0  0  0
   32.1576   -1.8303  109.3708 C   0  0  2  0  0  0  0  0  0  0  0  0
   34.7397   -0.3153  111.2728 N   0  0  0  0  0  0  0  0  0  0  0  0
   31.9952   -0.9422  107.1568 O   0  0  0  0  0  0  0  0  0  0  0  0
   32.6546   -1.9128  107.9833 C   0  0  2  0  0  0  0  0  0  0  0  0
   32.8474    2.5950  112.5680 N   0  0  0  0  0  0  0  0  0  0  0  0
   30.9840   -3.3009  107.0213 O   0  0  0  0  0  0  0  0  0  0  0  0
   32.3304   -3.2746  107.5443 C   0  0  2  0  0  0  0  0  0  0  0  0
   33.8134    0.6627  111.2962 C   0  0  0  0  0  0  0  0  0  0  0  0
   31.4988    0.9539  110.3615 N   0  0  0  0  0  0  0  0  0  0  0  0
   33.8700   -5.3448  110.1075 O   0  0  0  0  0  0  0  0  0  0  0  0
   33.7691   -4.6755  108.8879 C   0  0  0  0  0  0  0  0  0  0  0  0
   35.4430   -7.2177  109.2892 O   0  0  0  0  0  0  0  0  0  0  0  0
   34.2222   -1.3423  110.5577 C   0  0  0  0  0  0  0  0  0  0  0  0
   35.0561    2.5376  112.0143 O   0  0  0  0  0  0  0  0  0  0  0  0
   33.9590    1.9861  111.9801 C   0  0  0  0  0  0  0  0  0  0  0  0
   32.7034    0.2313  110.5844 C   0  0  0  0  0  0  0  0  0  0  0  0
   35.1321   -6.7579  111.7586 O   0  5  0  0  0  0  0  0  0  0  0  0
   36.3474   -5.2146  110.5516 O   0  0  0  0  0  0  0  0  0  0  0  0
  1 17  1  0  0  0  0
  1 20  1  0  0  0  0
  2 15  1  1  0  0  0
  2  3  1  0  0  0  0
  2 11  1  0  0  0  0
  3  5  1  0  0  0  0
  4 16  1  6  0  0  0
  4 21  1  0  0  0  0
  4 22  2  0  0  0  0
  4 14  1  0  0  0  0
  5  1  1  1  0  0  0
  5  8  1  0  0  0  0
  6 17  2  0  0  0  0
  6 12  1  0  0  0  0
  8  7  1  6  0  0  0
  8 11  1  0  0  0  0
  9 19  1  0  0  0  0
 11 10  1  1  0  0  0
 12 20  2  0  0  0  0
 12 19  1  0  0  0  0
 13 20  1  0  0  0  0
 14 15  1  0  0  0  0
 18 19  2  0  0  0  0
M  CHG  1  21  -1
M  END
>  <CHROM.1>
45.29787799,57.58759634,-57.49836212,175.46039553,-145.39798519,33.58251214
-2.49626196,109.97976932,1.84112133,-0.80016281,0.36244193

>  <Name>
ligand

>  <RI>
0

>  <Rbt.Current_Directory>
/home/itssahil/PROJECTS/Mol_Feturizer/New_Systems/rnas/4XW7

>  <Rbt.Executable>
rbdock ($Id: //depot/dev/client3/rdock/2013.1/src/exe/rbdock.cxx#4 $)

>  <Rbt.Library>
libRbt.so (2013.1, Build901 2013/11/27)

>  <Rbt.Parameter_File>
/export/apps/rDock/src/rDock_2013.1_src/data/scripts/dock_solv.prm

>  <Rbt.Receptor>
prm/pocket_docking_7.prm

>  <SCORE>
-6.75063

>  <SCORE.INTER>
-5.93717

>  <SCORE.INTER.CONST>
1

>  <SCORE.INTER.POLAR>
0

>  <SCORE.INTER.ROT>
5

>  <SCORE.INTER.SOLV>
12.7185

>  <SCORE.INTER.VDW>
-15.1309

>  <SCORE.INTER.norm>
-0.269871

>  <SCORE.INTRA>
-0.816829

>  <SCORE.INTRA.DIHEDRAL>
-0.384854

>  <SCORE.INTRA.DIHEDRAL.0>
2.61549

>  <SCORE.INTRA.POLAR>
0

>  <SCORE.INTRA.POLAR.0>
0

>  <SCORE.INTRA.REPUL>
0

>  <SCORE.INTRA.REPUL.0>
0

>  <SCORE.INTRA.SOLV>
-0.184436

>  <SCORE.INTRA.SOLV.lig_0>
-73.766

>  <SCORE.INTRA.VDW>
-0.532184

>  <SCORE.INTRA.VDW.0>
-1.95055

>  <SCORE.INTRA.norm>
-0.0371286

>  <SCORE.RESTR>
0.00336942

>  <SCORE.RESTR.CAVITY>
0.00336942

>  <SCORE.RESTR.norm>
0.000153156

>  <SCORE.SYSTEM>
0

>  <SCORE.SYSTEM.CONST>
0

>  <SCORE.SYSTEM.DIHEDRAL>
0

>  <SCORE.SYSTEM.SOLV>
0

>  <SCORE.SYSTEM.norm>
0

>  <SCORE.heavy>
22

>  <SCORE.norm>
-0.306847

>  <RMSD>
7.596

$$$$
ligand
 OpenBabel11021811513D
libRbt.so/2013.1/901 2013/11/27
 22 23  0  0  0  0  0  0  0  0999 V2000
   33.1116   -0.9128  110.1035 N   0  0  0  0  0  0  0  0  0  0  0  0
   32.4986   -4.0073  108.7776 C   0  0  1  0  0  0  0  0  0  0  0  0
   32.2331   -3.0791  109.8863 O   0  0  0  0  0  0  0  0  0  0  0  0
   35.1972   -6.1230  110.4624 P   0  0  2  0  0  0  0  0  0  0  0  0
   32.2701   -1.7280  109.3394 C   0  0  2  0  0  0  0  0  0  0  0  0
   34.8556   -0.2043  111.2296 N   0  0  0  0  0  0  0  0  0  0  0  0
   32.1478   -0.8819  107.1064 O   0  0  0  0  0  0  0  0  0  0  0  0
   32.7832   -1.8448  107.9603 C   0  0  2  0  0  0  0  0  0  0  0  0
   34.1594    3.2690  111.1646 N   0  0  0  0  0  0  0  0  0  0  0  0
   31.1057   -3.2289  107.0044 O   0  0  0  0  0  0  0  0  0  0  0  0
   32.4456   -3.2105  107.5440 C   0  0  2  0  0  0  0  0  0  0  0  0
   33.9296    0.7741  111.2496 C   0  0  0  0  0  0  0  0  0  0  0  0
   31.6136    1.0613  110.3172 N   0  0  0  0  0  0  0  0  0  0  0  0
   33.8970   -5.3217  110.1283 O   0  0  0  0  0  0  0  0  0  0  0  0
   33.8479   -4.6040  108.9332 C   0  0  0  0  0  0  0  0  0  0  0  0
   35.4738   -7.2004  109.3308 O   0  0  0  0  0  0  0  0  0  0  0  0
   34.3367   -1.2347  110.5205 C   0  0  0  0  0  0  0  0  0  0  0  0
   34.1331    2.1572  113.1524 O   0  0  0  0  0  0  0  0  0  0  0  0
   34.0767    2.1008  111.9266 C   0  0  0  0  0  0  0  0  0  0  0  0
   32.8184    0.3395  110.5418 C   0  0  0  0  0  0  0  0  0  0  0  0
   35.1086   -6.7590  111.7962 O   0  5  0  0  0  0  0  0  0  0  0  0
   36.3643   -5.2156  110.6314 O   0  0  0  0  0  0  0  0  0  0  0  0
  1 17  1  0  0  0  0
  1 20  1  0  0  0  0
  2 15  1  1  0  0  0
  2  3  1  0  0  0  0
  2 11  1  0  0  0  0
  3  5  1  0  0  0  0
  4 16  1  6  0  0  0
  4 21  1  0  0  0  0
  4 22  2  0  0  0  0
  4 14  1  0  0  0  0
  5  1  1  1  0  0  0
  5  8  1  0  0  0  0
  6 17  2  0  0  0  0
  6 12  1  0  0  0  0
  8  7  1  6  0  0  0
  8 11  1  0  0  0  0
  9 19  1  0  0  0  0
 11 10  1  1  0  0  0
 12 20  2  0  0  0  0
 12 19  1  0  0  0  0
 13 20  1  0  0  0  0
 14 15  1  0  0  0  0
 18 19  2  0  0  0  0
M  CHG  1  21  -1
M  END
>  <CHROM.1>
46.70376434,61.31550497,-59.65782016,175.93745671,112.28086466,33.66728407
-2.42564967,109.97335452,1.83162038,-0.85224275,0.34431843

>  <Name>
ligand

>  <RI>
0

>  <Rbt.Current_Directory>
/home/itssahil/PROJECTS/Mol_Feturizer/New_Systems/rnas/4XW7

>  <Rbt.Executable>
rbdock ($Id: //depot/dev/client3/rdock/2013.1/src/exe/rbdock.cxx#4 $)

>  <Rbt.Library>
libRbt.so (2013.1, Build901 2013/11/27)

>  <Rbt.Parameter_File>
/export/apps/rDock/src/rDock_2013.1_src/data/scripts/dock_solv.prm

>  <Rbt.Receptor>
prm/pocket_docking_8.prm

>  <SCORE>
-7.64296

>  <SCORE.INTER>
-6.37561

>  <SCORE.INTER.CONST>
1

>  <SCORE.INTER.POLAR>
0

>  <SCORE.INTER.ROT>
5

>  <SCORE.INTER.SOLV>
13.2006

>  <SCORE.INTER.VDW>
-15.5839

>  <SCORE.INTER.norm>
-0.2898

>  <SCORE.INTRA>
-1.26735

>  <SCORE.INTRA.DIHEDRAL>
-0.98564

>  <SCORE.INTRA.DIHEDRAL.0>
2.61549

>  <SCORE.INTRA.POLAR>
0

>  <SCORE.INTRA.POLAR.0>
0

>  <SCORE.INTRA.REPUL>
0

>  <SCORE.INTRA.REPUL.0>
0

>  <SCORE.INTRA.SOLV>
-0.430463

>  <SCORE.INTRA.SOLV.lig_0>
-73.766

>  <SCORE.INTRA.VDW>
-0.559298

>  <SCORE.INTRA.VDW.0>
-1.95055

>  <SCORE.INTRA.norm>
-0.0576068

>  <SCORE.RESTR>
0

>  <SCORE.RESTR.CAVITY>
0

>  <SCORE.RESTR.norm>
0

>  <SCORE.SYSTEM>
0

>  <SCORE.SYSTEM.CONST>
0

>  <SCORE.SYSTEM.DIHEDRAL>
0

>  <SCORE.SYSTEM.SOLV>
0

>  <SCORE.SYSTEM.norm>
0

>  <SCORE.heavy>
22

>  <SCORE.norm>
-0.347407

>  <RMSD>
7.663

$$$$
ligand
 OpenBabel11021811513D
libRbt.so/2013.1/901 2013/11/27
 22 23  0  0  0  0  0  0  0  0999 V2000
   31.1549   -4.7176  108.5984 N   0  0  0  0  0  0  0  0  0  0  0  0
   32.3988   -6.5463  111.2096 C   0  0  1  0  0  0  0  0  0  0  0  0
   31.5272   -5.4344  110.8028 O   0  0  0  0  0  0  0  0  0  0  0  0
   36.1738   -6.9266  111.6666 P   0  0  2  0  0  0  0  0  0  0  0  0
   30.9723   -5.7732  109.4977 C   0  0  2  0  0  0  0  0  0  0  0  0
   32.1228   -3.2542  107.2817 N   0  0  0  0  0  0  0  0  0  0  0  0
   30.8106   -7.8321  108.2926 O   0  0  0  0  0  0  0  0  0  0  0  0
   31.6928   -6.9743  109.0316 C   0  0  2  0  0  0  0  0  0  0  0  0
   30.7400   -0.7640  106.1798 N   0  0  0  0  0  0  0  0  0  0  0  0
   31.1153   -8.5048  110.7542 O   0  0  0  0  0  0  0  0  0  0  0  0
   32.1571   -7.6372  110.2552 C   0  0  2  0  0  0  0  0  0  0  0  0
   30.7935   -3.0436  107.2215 C   0  0  0  0  0  0  0  0  0  0  0  0
   28.7693   -4.0888  108.2825 N   0  0  0  0  0  0  0  0  0  0  0  0
   34.6298   -7.1624  111.5975 O   0  0  0  0  0  0  0  0  0  0  0  0
   33.8190   -6.1233  111.1406 C   0  0  0  0  0  0  0  0  0  0  0  0
   36.5079   -5.8625  112.7952 O   0  0  0  0  0  0  0  0  0  0  0  0
   32.3282   -4.2873  108.1328 C   0  0  0  0  0  0  0  0  0  0  0  0
   28.9987   -2.2115  105.9325 O   0  0  0  0  0  0  0  0  0  0  0  0
   30.1128   -1.9927  106.4014 C   0  0  0  0  0  0  0  0  0  0  0  0
   30.1669   -3.9618  108.0516 C   0  0  0  0  0  0  0  0  0  0  0  0
   36.7118   -6.5016  110.3547 O   0  5  0  0  0  0  0  0  0  0  0  0
   36.9062   -8.2004  111.9012 O   0  0  0  0  0  0  0  0  0  0  0  0
  1 17  1  0  0  0  0
  1 20  1  0  0  0  0
  2 15  1  6  0  0  0
  2  3  1  0  0  0  0
  2 11  1  0  0  0  0
  3  5  1  0  0  0  0
  4 16  1  1  0  0  0
  4 21  1  0  0  0  0
  4 22  2  0  0  0  0
  4 14  1  0  0  0  0
  5  1  1  6  0  0  0
  5  8  1  0  0  0  0
  6 17  2  0  0  0  0
  6 12  1  0  0  0  0
  8  7  1  1  0  0  0
  8 11  1  0  0  0  0
  9 19  1  0  0  0  0
 11 10  1  1  0  0  0
 12 20  2  0  0  0  0
 12 19  1  0  0  0  0
 13 20  1  0  0  0  0
 14 15  1  0  0  0  0
 18 19  2  0  0  0  0
M  CHG  1  21  -1
M  END
>  <CHROM.1>
66.65876419,176.81996585,68.25526509,-177.77699051,-33.01181406,32.59463004
-5.52215328,109.54043631,2.35346350,-0.33162074,-0.52291284

>  <Name>
ligand

>  <RI>
0

>  <Rbt.Current_Directory>
/home/itssahil/PROJECTS/Mol_Feturizer/New_Systems/rnas/4XW7

>  <Rbt.Executable>
rbdock ($Id: //depot/dev/client3/rdock/2013.1/src/exe/rbdock.cxx#4 $)

>  <Rbt.Library>
libRbt.so (2013.1, Build901 2013/11/27)

>  <Rbt.Parameter_File>
/export/apps/rDock/src/rDock_2013.1_src/data/scripts/dock_solv.prm

>  <Rbt.Receptor>
prm/pocket_docking_8.prm

>  <SCORE>
-2.08205

>  <SCORE.INTER>
-1.70668

>  <SCORE.INTER.CONST>
1

>  <SCORE.INTER.POLAR>
0

>  <SCORE.INTER.ROT>
5

>  <SCORE.INTER.SOLV>
14.6955

>  <SCORE.INTER.VDW>
-12.9696

>  <SCORE.INTER.norm>
-0.0775762

>  <SCORE.INTRA>
-0.375369

>  <SCORE.INTRA.DIHEDRAL>
-0.0177307

>  <SCORE.INTRA.DIHEDRAL.0>
2.61549

>  <SCORE.INTRA.POLAR>
0

>  <SCORE.INTRA.POLAR.0>
0

>  <SCORE.INTRA.REPUL>
0

>  <SCORE.INTRA.REPUL.0>
0

>  <SCORE.INTRA.SOLV>
-0.817428

>  <SCORE.INTRA.SOLV.lig_0>
-73.766

>  <SCORE.INTRA.VDW>
0.0422098

>  <SCORE.INTRA.VDW.0>
-1.95055

>  <SCORE.INTRA.norm>
-0.0170622

>  <SCORE.RESTR>
0

>  <SCORE.RESTR.CAVITY>
0

>  <SCORE.RESTR.norm>
0

>  <SCORE.SYSTEM>
0

>  <SCORE.SYSTEM.CONST>
0

>  <SCORE.SYSTEM.DIHEDRAL>
0

>  <SCORE.SYSTEM.SOLV>
0

>  <SCORE.SYSTEM.norm>
0

>  <SCORE.heavy>
22

>  <SCORE.norm>
-0.0946384

>  <RMSD>
7.674

$$$$
ligand
 OpenBabel11021811513D
libRbt.so/2013.1/901 2013/11/27
 22 23  0  0  0  0  0  0  0  0999 V2000
   30.5418   -4.3639  107.7327 N   0  0  0  0  0  0  0  0  0  0  0  0
   33.5551   -2.9279  108.4862 C   0  0  1  0  0  0  0  0  0  0  0  0
   32.8612   -4.0009  107.7592 O   0  0  0  0  0  0  0  0  0  0  0  0
   34.6149   -2.4495  112.1266 P   0  0  2  0  0  0  0  0  0  0  0  0
   31.5597   -3.4811  107.3569 C   0  0  2  0  0  0  0  0  0  0  0  0
   29.5042   -6.0832  108.6153 N   0  0  0  0  0  0  0  0  0  0  0  0
   30.6793   -1.2632  107.2044 O   0  0  0  0  0  0  0  0  0  0  0  0
   31.3927   -2.1845  108.0425 C   0  0  2  0  0  0  0  0  0  0  0  0
   26.4826   -5.7950  106.7241 N   0  0  0  0  0  0  0  0  0  0  0  0
   33.2337   -0.9894  107.1336 O   0  0  0  0  0  0  0  0  0  0  0  0
   32.7578   -1.7088  108.2925 C   0  0  2  0  0  0  0  0  0  0  0  0
   28.5793   -5.3123  108.0109 C   0  0  0  0  0  0  0  0  0  0  0  0
   28.6184   -3.1600  106.7141 N   0  0  0  0  0  0  0  0  0  0  0  0
   34.3695   -2.2856  110.5913 O   0  0  0  0  0  0  0  0  0  0  0  0
   33.6223   -3.2605  109.9303 C   0  0  0  0  0  0  0  0  0  0  0  0
   35.5777   -1.3000  112.6458 O   0  0  0  0  0  0  0  0  0  0  0  0
   30.7060   -5.4857  108.4349 C   0  0  0  0  0  0  0  0  0  0  0  0
   26.4582   -5.6364  108.9963 O   0  0  0  0  0  0  0  0  0  0  0  0
   27.1101   -5.5931  107.9561 C   0  0  0  0  0  0  0  0  0  0  0  0
   29.2215   -4.2201  107.4457 C   0  0  0  0  0  0  0  0  0  0  0  0
   35.1612   -3.7883  112.4436 O   0  5  0  0  0  0  0  0  0  0  0  0
   33.3333   -2.4535  112.8826 O   0  0  0  0  0  0  0  0  0  0  0  0
  1 17  1  0  0  0  0
  1 20  1  0  0  0  0
  2 15  1  1  0  0  0
  2  3  1  0  0  0  0
  2 11  1  0  0  0  0
  3  5  1  0  0  0  0
  4 16  1  1  0  0  0
  4 21  1  0  0  0  0
  4 22  2  0  0  0  0
  4 14  1  0  0  0  0
  5  1  1  1  0  0  0
  5  8  1  0  0  0  0
  6 17  2  0  0  0  0
  6 12  1  0  0  0  0
  8  7  1  6  0  0  0
  8 11  1  0  0  0  0
  9 19  1  0  0  0  0
 11 10  1  6  0  0  0
 12 20  2  0  0  0  0
 12 19  1  0  0  0  0
 13 20  1  0  0  0  0
 14 15  1  0  0  0  0
 18 19  2  0  0  0  0
M  CHG  1  21  -1
M  END
>  <CHROM.1>
3.99640762,175.56584080,175.48340295,-178.14542602,-117.93329259,31.64224729
-3.41042023,109.13895962,-2.86358544,0.57592152,2.06853328

>  <Name>
ligand

>  <RI>
0

>  <Rbt.Current_Directory>
/home/itssahil/PROJECTS/Mol_Feturizer/New_Systems/rnas/4XW7

>  <Rbt.Executable>
rbdock ($Id: //depot/dev/client3/rdock/2013.1/src/exe/rbdock.cxx#4 $)

>  <Rbt.Library>
libRbt.so (2013.1, Build901 2013/11/27)

>  <Rbt.Parameter_File>
/export/apps/rDock/src/rDock_2013.1_src/data/scripts/dock_solv.prm

>  <Rbt.Receptor>
prm/pocket_docking_8.prm

>  <SCORE>
-3.30469

>  <SCORE.INTER>
-3.77341

>  <SCORE.INTER.CONST>
1

>  <SCORE.INTER.POLAR>
0

>  <SCORE.INTER.ROT>
5

>  <SCORE.INTER.SOLV>
9.33815

>  <SCORE.INTER.VDW>
-12.5617

>  <SCORE.INTER.norm>
-0.171519

>  <SCORE.INTRA>
0.468721

>  <SCORE.INTRA.DIHEDRAL>
-1.01622

>  <SCORE.INTRA.DIHEDRAL.0>
2.61549

>  <SCORE.INTRA.POLAR>
0

>  <SCORE.INTRA.POLAR.0>
0

>  <SCORE.INTRA.REPUL>
0

>  <SCORE.INTRA.REPUL.0>
0

>  <SCORE.INTRA.SOLV>
1.86681

>  <SCORE.INTRA.SOLV.lig_0>
-73.766

>  <SCORE.INTRA.VDW>
0.0434281

>  <SCORE.INTRA.VDW.0>
-1.95055

>  <SCORE.INTRA.norm>
0.0213055

>  <SCORE.RESTR>
0

>  <SCORE.RESTR.CAVITY>
0

>  <SCORE.RESTR.norm>
0

>  <SCORE.SYSTEM>
0

>  <SCORE.SYSTEM.CONST>
0

>  <SCORE.SYSTEM.DIHEDRAL>
0

>  <SCORE.SYSTEM.SOLV>
0

>  <SCORE.SYSTEM.norm>
0

>  <SCORE.heavy>
22

>  <SCORE.norm>
-0.150213

>  <RMSD>
7.697

$$$$
ligand
 OpenBabel11021811513D
libRbt.so/2013.1/901 2013/11/27
 22 23  0  0  0  0  0  0  0  0999 V2000
   30.7427   -1.5190  107.8437 N   0  0  0  0  0  0  0  0  0  0  0  0
   32.2595   -2.9383  110.5631 C   0  0  1  0  0  0  0  0  0  0  0  0
   31.0358   -2.8541  109.7526 O   0  0  0  0  0  0  0  0  0  0  0  0
   32.2615    0.8029  111.3432 P   0  0  2  0  0  0  0  0  0  0  0  0
   31.4442   -2.6064  108.3749 C   0  0  2  0  0  0  0  0  0  0  0  0
   30.0399    0.5294  107.4950 N   0  0  0  0  0  0  0  0  0  0  0  0
   33.5351   -2.8416  107.2393 O   0  0  0  0  0  0  0  0  0  0  0  0
   32.8910   -2.3158  108.4093 C   0  0  2  0  0  0  0  0  0  0  0  0
   28.5424   -0.1476  104.2807 N   0  0  0  0  0  0  0  0  0  0  0  0
   33.7078   -4.3579  109.3070 O   0  0  0  0  0  0  0  0  0  0  0  0
   33.3840   -2.9848  109.6182 C   0  0  2  0  0  0  0  0  0  0  0  0
   29.3881   -0.2792  106.6370 C   0  0  0  0  0  0  0  0  0  0  0  0
   29.3896   -2.7457  106.1553 N   0  0  0  0  0  0  0  0  0  0  0  0
   32.2145   -0.5933  110.6413 O   0  0  0  0  0  0  0  0  0  0  0  0
   32.3760   -1.7362  111.4245 C   0  0  0  0  0  0  0  0  0  0  0  0
   31.9451    1.9477  110.2909 O   0  0  0  0  0  0  0  0  0  0  0  0
   30.8693   -0.2489  108.2300 C   0  0  0  0  0  0  0  0  0  0  0  0
   27.3793    0.7869  106.0018 O   0  0  0  0  0  0  0  0  0  0  0  0
   28.3666    0.1557  105.6332 C   0  0  0  0  0  0  0  0  0  0  0  0
   29.8214   -1.5803  106.8469 C   0  0  0  0  0  0  0  0  0  0  0  0
   33.5672    1.0290  112.0030 O   0  5  0  0  0  0  0  0  0  0  0  0
   31.3208    0.8623  112.4945 O   0  0  0  0  0  0  0  0  0  0  0  0
  1 17  1  0  0  0  0
  1 20  1  0  0  0  0
  2 15  1  1  0  0  0
  2  3  1  0  0  0  0
  2 11  1  0  0  0  0
  3  5  1  0  0  0  0
  4 16  1  6  0  0  0
  4 21  1  0  0  0  0
  4 22  2  0  0  0  0
  4 14  1  0  0  0  0
  5  1  1  1  0  0  0
  5  8  1  0  0  0  0
  6 17  2  0  0  0  0
  6 12  1  0  0  0  0
  8  7  1  6  0  0  0
  8 11  1  0  0  0  0
  9 19  1  0  0  0  0
 11 10  1  6  0  0  0
 12 20  2  0  0  0  0
 12 19  1  0  0  0  0
 13 20  1  0  0  0  0
 14 15  1  0  0  0  0
 18 19  2  0  0  0  0
M  CHG  1  21  -1
M  END
>  <CHROM.1>
67.64426327,-50.56469276,-175.62201411,178.45734552,124.09194777,31.31217001
-0.95658216,108.88966907,-2.61723297,-0.82862259,0.68144667

>  <Name>
ligand

>  <RI>
0

>  <Rbt.Current_Directory>
/home/itssahil/PROJECTS/Mol_Feturizer/New_Systems/rnas/4XW7

>  <Rbt.Executable>
rbdock ($Id: //depot/dev/client3/rdock/2013.1/src/exe/rbdock.cxx#4 $)

>  <Rbt.Library>
libRbt.so (2013.1, Build901 2013/11/27)

>  <Rbt.Parameter_File>
/export/apps/rDock/src/rDock_2013.1_src/data/scripts/dock_solv.prm

>  <Rbt.Receptor>
prm/pocket_docking_6.prm

>  <SCORE>
-2.0459

>  <SCORE.INTER>
-1.28099

>  <SCORE.INTER.CONST>
1

>  <SCORE.INTER.POLAR>
0

>  <SCORE.INTER.ROT>
5

>  <SCORE.INTER.SOLV>
12.1977

>  <SCORE.INTER.VDW>
-11.8532

>  <SCORE.INTER.norm>
-0.0582267

>  <SCORE.INTRA>
-0.765055

>  <SCORE.INTRA.DIHEDRAL>
-0.751602

>  <SCORE.INTRA.DIHEDRAL.0>
2.61549

>  <SCORE.INTRA.POLAR>
0

>  <SCORE.INTRA.POLAR.0>
0

>  <SCORE.INTRA.REPUL>
0

>  <SCORE.INTRA.REPUL.0>
0

>  <SCORE.INTRA.SOLV>
0.448232

>  <SCORE.INTRA.SOLV.lig_0>
-73.766

>  <SCORE.INTRA.VDW>
-0.61337

>  <SCORE.INTRA.VDW.0>
-1.95055

>  <SCORE.INTRA.norm>
-0.0347752

>  <SCORE.RESTR>
0.000141853

>  <SCORE.RESTR.CAVITY>
0.000141853

>  <SCORE.RESTR.norm>
6.44787e-06

>  <SCORE.SYSTEM>
0

>  <SCORE.SYSTEM.CONST>
0

>  <SCORE.SYSTEM.DIHEDRAL>
0

>  <SCORE.SYSTEM.SOLV>
0

>  <SCORE.SYSTEM.norm>
0

>  <SCORE.heavy>
22

>  <SCORE.norm>
-0.0929955

>  <RMSD>
7.731

$$$$
ligand
 OpenBabel11021811513D
libRbt.so/2013.1/901 2013/11/27
 22 23  0  0  0  0  0  0  0  0999 V2000
   34.0194   -4.8881  108.9225 N   0  0  0  0  0  0  0  0  0  0  0  0
   34.9396   -7.9294  110.1929 C   0  0  1  0  0  0  0  0  0  0  0  0
   35.0618   -6.9865  109.0716 O   0  0  0  0  0  0  0  0  0  0  0  0
   32.2122  -10.0868  108.6085 P   0  0  2  0  0  0  0  0  0  0  0  0
   34.9671   -5.6405  109.6242 C   0  0  2  0  0  0  0  0  0  0  0  0
   33.1303   -3.4266  107.5495 N   0  0  0  0  0  0  0  0  0  0  0  0
   35.1827   -4.7843  111.8462 O   0  0  0  0  0  0  0  0  0  0  0  0
   34.5597   -5.7912  111.0350 C   0  0  2  0  0  0  0  0  0  0  0  0
   29.8043   -4.9139  107.7028 N   0  0  0  0  0  0  0  0  0  0  0  0
   36.3927   -7.0515  111.8686 O   0  0  0  0  0  0  0  0  0  0  0  0
   35.0209   -7.1289  111.4225 C   0  0  2  0  0  0  0  0  0  0  0  0
   32.1232   -4.0793  108.1618 C   0  0  0  0  0  0  0  0  0  0  0  0
   31.9619   -5.9060  109.8803 N   0  0  0  0  0  0  0  0  0  0  0  0
   33.5383   -9.3223  108.9265 O   0  0  0  0  0  0  0  0  0  0  0  0
   33.6284   -8.6203  110.1286 C   0  0  0  0  0  0  0  0  0  0  0  0
   32.2513  -10.6414  107.1223 O   0  0  0  0  0  0  0  0  0  0  0  0
   34.2899   -3.9362  108.0286 C   0  0  0  0  0  0  0  0  0  0  0  0
   30.2258   -2.6896  107.9538 O   0  0  0  0  0  0  0  0  0  0  0  0
   30.6632   -3.8374  107.9382 C   0  0  0  0  0  0  0  0  0  0  0  0
   32.6706   -5.0073  109.0359 C   0  0  0  0  0  0  0  0  0  0  0  0
   31.0291   -9.2243  108.8265 O   0  5  0  0  0  0  0  0  0  0  0  0
   31.9744  -11.1868  109.5819 O   0  0  0  0  0  0  0  0  0  0  0  0
  1 17  1  0  0  0  0
  1 20  1  0  0  0  0
  2 15  1  6  0  0  0
  2  3  1  0  0  0  0
  2 11  1  0  0  0  0
  3  5  1  0  0  0  0
  4 16  1  6  0  0  0
  4 21  1  0  0  0  0
  4 22  2  0  0  0  0
  4 14  1  0  0  0  0
  5  1  1  6  0  0  0
  5  8  1  0  0  0  0
  6 17  2  0  0  0  0
  6 12  1  0  0  0  0
  8  7  1  1  0  0  0
  8 11  1  0  0  0  0
  9 19  1  0  0  0  0
 11 10  1  6  0  0  0
 12 20  2  0  0  0  0
 12 19  1  0  0  0  0
 13 20  1  0  0  0  0
 14 15  1  0  0  0  0
 18 19  2  0  0  0  0
M  CHG  1  21  -1
M  END
>  <CHROM.1>
-104.26365440,60.26508856,172.24934938,-177.57130787,131.33047254,33.11583808
-6.80217708,109.22863642,-1.63540598,0.60101875,3.10840946

>  <Name>
ligand

>  <RI>
0

>  <Rbt.Current_Directory>
/home/itssahil/PROJECTS/Mol_Feturizer/New_Systems/rnas/4XW7

>  <Rbt.Executable>
rbdock ($Id: //depot/dev/client3/rdock/2013.1/src/exe/rbdock.cxx#4 $)

>  <Rbt.Library>
libRbt.so (2013.1, Build901 2013/11/27)

>  <Rbt.Parameter_File>
/export/apps/rDock/src/rDock_2013.1_src/data/scripts/dock_solv.prm

>  <Rbt.Receptor>
prm/pocket_docking_8.prm

>  <SCORE>
-9.33

>  <SCORE.INTER>
-11.652

>  <SCORE.INTER.CONST>
1

>  <SCORE.INTER.POLAR>
0

>  <SCORE.INTER.ROT>
5

>  <SCORE.INTER.SOLV>
10.7949

>  <SCORE.INTER.VDW>
-18.2996

>  <SCORE.INTER.norm>
-0.529635

>  <SCORE.INTRA>
2.32196

>  <SCORE.INTRA.DIHEDRAL>
-0.870053

>  <SCORE.INTRA.DIHEDRAL.0>
2.61549

>  <SCORE.INTRA.POLAR>
0

>  <SCORE.INTRA.POLAR.0>
0

>  <SCORE.INTRA.REPUL>
0

>  <SCORE.INTRA.REPUL.0>
0

>  <SCORE.INTRA.SOLV>
6.16393

>  <SCORE.INTRA.SOLV.lig_0>
-73.766

>  <SCORE.INTRA.VDW>
-0.324977

>  <SCORE.INTRA.VDW.0>
-1.95055

>  <SCORE.INTRA.norm>
0.105544

>  <SCORE.RESTR>
0

>  <SCORE.RESTR.CAVITY>
0

>  <SCORE.RESTR.norm>
0

>  <SCORE.SYSTEM>
0

>  <SCORE.SYSTEM.CONST>
0

>  <SCORE.SYSTEM.DIHEDRAL>
0

>  <SCORE.SYSTEM.SOLV>
0

>  <SCORE.SYSTEM.norm>
0

>  <SCORE.heavy>
22

>  <SCORE.norm>
-0.424091

>  <RMSD>
7.794

$$$$
ligand
 OpenBabel11021811513D
libRbt.so/2013.1/901 2013/11/27
 22 23  0  0  0  0  0  0  0  0999 V2000
   31.1982   -1.8594  106.9464 N   0  0  0  0  0  0  0  0  0  0  0  0
   32.3374   -1.6948  110.1690 C   0  0  1  0  0  0  0  0  0  0  0  0
   31.1856   -1.9522  109.2923 O   0  0  0  0  0  0  0  0  0  0  0  0
   31.4778    1.9419  110.9696 P   0  0  2  0  0  0  0  0  0  0  0  0
   31.7004   -2.5393  108.0609 C   0  0  2  0  0  0  0  0  0  0  0  0
   31.0987   -0.6088  105.1470 N   0  0  0  0  0  0  0  0  0  0  0  0
   33.7917   -3.5553  107.5030 O   0  0  0  0  0  0  0  0  0  0  0  0
   33.1703   -2.4164  108.1170 C   0  0  2  0  0  0  0  0  0  0  0  0
   27.5980   -0.0095  105.1394 N   0  0  0  0  0  0  0  0  0  0  0  0
   33.6246   -3.7004  110.0634 O   0  0  0  0  0  0  0  0  0  0  0  0
   33.4920   -2.3576  109.5472 C   0  0  2  0  0  0  0  0  0  0  0  0
   29.8566   -1.0665  105.3973 C   0  0  0  0  0  0  0  0  0  0  0  0
   28.8137   -2.5375  107.1477 N   0  0  0  0  0  0  0  0  0  0  0  0
   31.4647    0.3864  110.8130 O   0  0  0  0  0  0  0  0  0  0  0  0
   32.5843   -0.2348  110.2594 C   0  0  0  0  0  0  0  0  0  0  0  0
   30.2144    2.5688  110.2425 O   0  0  0  0  0  0  0  0  0  0  0  0
   31.9119   -1.1058  106.1091 C   0  0  0  0  0  0  0  0  0  0  0  0
   28.5459   -1.1896  103.4372 O   0  0  0  0  0  0  0  0  0  0  0  0
   28.6355   -0.7643  104.5862 C   0  0  0  0  0  0  0  0  0  0  0  0
   29.9032   -1.8589  106.5351 C   0  0  0  0  0  0  0  0  0  0  0  0
   32.7364    2.5237  110.4514 O   0  5  0  0  0  0  0  0  0  0  0  0
   31.5212    2.3416  112.4023 O   0  0  0  0  0  0  0  0  0  0  0  0
  1 17  1  0  0  0  0
  1 20  1  0  0  0  0
  2 15  1  6  0  0  0
  2  3  1  0  0  0  0
  2 11  1  0  0  0  0
  3  5  1  0  0  0  0
  4 16  1  6  0  0  0
  4 21  1  0  0  0  0
  4 22  2  0  0  0  0
  4 14  1  0  0  0  0
  5  1  1  6  0  0  0
  5  8  1  0  0  0  0
  6 17  2  0  0  0  0
  6 12  1  0  0  0  0
  8  7  1  1  0  0  0
  8 11  1  0  0  0  0
  9 19  1  0  0  0  0
 11 10  1  1  0  0  0
 12 20  2  0  0  0  0
 12 19  1  0  0  0  0
 13 20  1  0  0  0  0
 14 15  1  0  0  0  0
 18 19  2  0  0  0  0
M  CHG  1  21  -1
M  END
>  <CHROM.1>
112.19362665,61.37235697,124.72648357,-178.29022150,-113.72143098,31.26472686
-0.69725613,108.35958171,-2.10025429,-0.79496915,0.76031806

>  <Name>
ligand

>  <RI>
0

>  <Rbt.Current_Directory>
/home/itssahil/PROJECTS/Mol_Feturizer/New_Systems/rnas/4XW7

>  <Rbt.Executable>
rbdock ($Id: //depot/dev/client3/rdock/2013.1/src/exe/rbdock.cxx#4 $)

>  <Rbt.Library>
libRbt.so (2013.1, Build901 2013/11/27)

>  <Rbt.Parameter_File>
/export/apps/rDock/src/rDock_2013.1_src/data/scripts/dock_solv.prm

>  <Rbt.Receptor>
prm/pocket_docking_7.prm

>  <SCORE>
-5.93807

>  <SCORE.INTER>
-7.8703

>  <SCORE.INTER.CONST>
1

>  <SCORE.INTER.POLAR>
0

>  <SCORE.INTER.ROT>
5

>  <SCORE.INTER.SOLV>
12.2814

>  <SCORE.INTER.VDW>
-16.274

>  <SCORE.INTER.norm>
-0.357741

>  <SCORE.INTRA>
1.93222

>  <SCORE.INTRA.DIHEDRAL>
1.27059

>  <SCORE.INTRA.DIHEDRAL.0>
2.61549

>  <SCORE.INTRA.POLAR>
0

>  <SCORE.INTRA.POLAR.0>
0

>  <SCORE.INTRA.REPUL>
0

>  <SCORE.INTRA.REPUL.0>
0

>  <SCORE.INTRA.SOLV>
-0.0511228

>  <SCORE.INTRA.SOLV.lig_0>
-73.766

>  <SCORE.INTRA.VDW>
1.32249

>  <SCORE.INTRA.VDW.0>
-1.95055

>  <SCORE.INTRA.norm>
0.0878283

>  <SCORE.RESTR>
0

>  <SCORE.RESTR.CAVITY>
0

>  <SCORE.RESTR.norm>
0

>  <SCORE.SYSTEM>
0

>  <SCORE.SYSTEM.CONST>
0

>  <SCORE.SYSTEM.DIHEDRAL>
0

>  <SCORE.SYSTEM.SOLV>
0

>  <SCORE.SYSTEM.norm>
0

>  <SCORE.heavy>
22

>  <SCORE.norm>
-0.269912

>  <RMSD>
7.904

$$$$
ligand
 OpenBabel11021811513D
libRbt.so/2013.1/901 2013/11/27
 22 23  0  0  0  0  0  0  0  0999 V2000
   33.9600   -5.0564  109.1769 N   0  0  0  0  0  0  0  0  0  0  0  0
   32.2376   -2.5646  107.5850 C   0  0  1  0  0  0  0  0  0  0  0  0
   33.3274   -3.5471  107.4935 O   0  0  0  0  0  0  0  0  0  0  0  0
   33.4302   -0.8224  110.7667 P   0  0  2  0  0  0  0  0  0  0  0  0
   32.9368   -4.7038  108.2906 C   0  0  2  0  0  0  0  0  0  0  0  0
   35.7246   -4.9197  110.4727 N   0  0  0  0  0  0  0  0  0  0  0  0
   30.8340   -5.4307  109.1662 O   0  0  0  0  0  0  0  0  0  0  0  0
   31.7246   -4.3126  109.0365 C   0  0  2  0  0  0  0  0  0  0  0  0
   35.0398   -8.1972  112.0138 N   0  0  0  0  0  0  0  0  0  0  0  0
   30.2545   -3.8424  107.2307 O   0  0  0  0  0  0  0  0  0  0  0  0
   31.1106   -3.2502  108.2325 C   0  0  2  0  0  0  0  0  0  0  0  0
   35.2669   -6.1851  110.5357 C   0  0  0  0  0  0  0  0  0  0  0  0
   33.3605   -7.4493  109.4949 N   0  0  0  0  0  0  0  0  0  0  0  0
   33.0780   -1.8733  109.6641 O   0  0  0  0  0  0  0  0  0  0  0  0
   32.6678   -1.4117  108.4134 C   0  0  0  0  0  0  0  0  0  0  0  0
   32.1886    0.1329  111.0191 O   0  0  0  0  0  0  0  0  0  0  0  0
   34.9095   -4.2385  109.6327 C   0  0  0  0  0  0  0  0  0  0  0  0
   37.0889   -7.3925  111.4289 O   0  0  0  0  0  0  0  0  0  0  0  0
   35.8674   -7.2909  111.3462 C   0  0  0  0  0  0  0  0  0  0  0  0
   34.1503   -6.2878  109.7188 C   0  0  0  0  0  0  0  0  0  0  0  0
   34.6370   -0.0461  110.4032 O   0  5  0  0  0  0  0  0  0  0  0  0
   33.8589   -1.4842  112.0286 O   0  0  0  0  0  0  0  0  0  0  0  0
  1 17  1  0  0  0  0
  1 20  1  0  0  0  0
  2 15  1  1  0  0  0
  2  3  1  0  0  0  0
  2 11  1  0  0  0  0
  3  5  1  0  0  0  0
  4 16  1  1  0  0  0
  4 21  1  0  0  0  0
  4 22  2  0  0  0  0
  4 14  1  0  0  0  0
  5  1  1  1  0  0  0
  5  8  1  0  0  0  0
  6 17  2  0  0  0  0
  6 12  1  0  0  0  0
  8  7  1  6  0  0  0
  8 11  1  0  0  0  0
  9 19  1  0  0  0  0
 11 10  1  6  0  0  0
 12 20  2  0  0  0  0
 12 19  1  0  0  0  0
 13 20  1  0  0  0  0
 14 15  1  0  0  0  0
 18 19  2  0  0  0  0
M  CHG  1  21  -1
M  END
>  <CHROM.1>
24.11685766,-56.14934291,57.11699439,-173.45721437,140.30446052,33.48805042
-3.83194677,109.75157081,1.01630340,0.70555890,-2.94373368

>  <Name>
ligand

>  <RI>
0

>  <Rbt.Current_Directory>
/home/itssahil/PROJECTS/Mol_Feturizer/New_Systems/rnas/4XW7

>  <Rbt.Executable>
rbdock ($Id: //depot/dev/client3/rdock/2013.1/src/exe/rbdock.cxx#4 $)

>  <Rbt.Library>
libRbt.so (2013.1, Build901 2013/11/27)

>  <Rbt.Parameter_File>
/export/apps/rDock/src/rDock_2013.1_src/data/scripts/dock_solv.prm

>  <Rbt.Receptor>
prm/pocket_docking_8.prm

>  <SCORE>
-7.73053

>  <SCORE.INTER>
-7.29553

>  <SCORE.INTER.CONST>
1

>  <SCORE.INTER.POLAR>
0

>  <SCORE.INTER.ROT>
5

>  <SCORE.INTER.SOLV>
13.7983

>  <SCORE.INTER.VDW>
-16.3965

>  <SCORE.INTER.norm>
-0.331615

>  <SCORE.INTRA>
-0.435001

>  <SCORE.INTRA.DIHEDRAL>
-0.434195

>  <SCORE.INTRA.DIHEDRAL.0>
2.61549

>  <SCORE.INTRA.POLAR>
0

>  <SCORE.INTRA.POLAR.0>
0

>  <SCORE.INTRA.REPUL>
0

>  <SCORE.INTRA.REPUL.0>
0

>  <SCORE.INTRA.SOLV>
1.29433

>  <SCORE.INTRA.SOLV.lig_0>
-73.766

>  <SCORE.INTRA.VDW>
-0.865071

>  <SCORE.INTRA.VDW.0>
-1.95055

>  <SCORE.INTRA.norm>
-0.0197728

>  <SCORE.RESTR>
0

>  <SCORE.RESTR.CAVITY>
0

>  <SCORE.RESTR.norm>
0

>  <SCORE.SYSTEM>
0

>  <SCORE.SYSTEM.CONST>
0

>  <SCORE.SYSTEM.DIHEDRAL>
0

>  <SCORE.SYSTEM.SOLV>
0

>  <SCORE.SYSTEM.norm>
0

>  <SCORE.heavy>
22

>  <SCORE.norm>
-0.351388

>  <RMSD>
7.958

$$$$
ligand
 OpenBabel11021811513D
libRbt.so/2013.1/901 2013/11/27
 22 23  0  0  0  0  0  0  0  0999 V2000
   33.9724   -5.1117  109.1818 N   0  0  0  0  0  0  0  0  0  0  0  0
   32.1891   -2.6330  107.6372 C   0  0  1  0  0  0  0  0  0  0  0  0
   33.2785   -3.6125  107.5136 O   0  0  0  0  0  0  0  0  0  0  0  0
   33.4375   -0.8653  110.7829 P   0  0  2  0  0  0  0  0  0  0  0  0
   32.9188   -4.7666  108.3289 C   0  0  2  0  0  0  0  0  0  0  0  0
   35.7835   -4.9652  110.4107 N   0  0  0  0  0  0  0  0  0  0  0  0
   30.8490   -5.4957  109.2784 O   0  0  0  0  0  0  0  0  0  0  0  0
   31.7312   -4.3755  109.1134 C   0  0  2  0  0  0  0  0  0  0  0  0
   37.0961   -7.0712  112.0666 N   0  0  0  0  0  0  0  0  0  0  0  0
   30.1995   -3.9185  107.3560 O   0  0  0  0  0  0  0  0  0  0  0  0
   31.0868   -3.3189  108.3256 C   0  0  2  0  0  0  0  0  0  0  0  0
   35.3243   -6.2281  110.5063 C   0  0  0  0  0  0  0  0  0  0  0  0
   33.3773   -7.4983  109.5516 N   0  0  0  0  0  0  0  0  0  0  0  0
   33.0674   -1.9257  109.6953 O   0  0  0  0  0  0  0  0  0  0  0  0
   32.6433   -1.4748  108.4453 C   0  0  0  0  0  0  0  0  0  0  0  0
   32.2145    0.1182  111.0169 O   0  0  0  0  0  0  0  0  0  0  0  0
   34.9405   -4.2916  109.5924 C   0  0  0  0  0  0  0  0  0  0  0  0
   35.4588   -8.4513  111.2901 O   0  0  0  0  0  0  0  0  0  0  0  0
   35.9505   -7.3258  111.3084 C   0  0  0  0  0  0  0  0  0  0  0  0
   34.1784   -6.3370  109.7319 C   0  0  0  0  0  0  0  0  0  0  0  0
   34.6606   -0.1188  110.4114 O   0  5  0  0  0  0  0  0  0  0  0  0
   33.8493   -1.5163  112.0560 O   0  0  0  0  0  0  0  0  0  0  0  0
  1 17  1  0  0  0  0
  1 20  1  0  0  0  0
  2 15  1  1  0  0  0
  2  3  1  0  0  0  0
  2 11  1  0  0  0  0
  3  5  1  0  0  0  0
  4 16  1  1  0  0  0
  4 21  1  0  0  0  0
  4 22  2  0  0  0  0
  4 14  1  0  0  0  0
  5  1  1  1  0  0  0
  5  8  1  0  0  0  0
  6 17  2  0  0  0  0
  6 12  1  0  0  0  0
  8  7  1  6  0  0  0
  8 11  1  0  0  0  0
  9 19  1  0  0  0  0
 11 10  1  6  0  0  0
 12 20  2  0  0  0  0
 12 19  1  0  0  0  0
 13 20  1  0  0  0  0
 14 15  1  0  0  0  0
 18 19  2  0  0  0  0
M  CHG  1  21  -1
M  END
>  <CHROM.1>
23.51210006,-57.53992782,55.80462776,-173.05480228,1.45869522,33.50078891
-3.88397423,109.77245769,1.01856027,0.68414030,-2.93889796

>  <Name>
ligand

>  <RI>
0

>  <Rbt.Current_Directory>
/home/itssahil/PROJECTS/Mol_Feturizer/New_Systems/rnas/4XW7

>  <Rbt.Executable>
rbdock ($Id: //depot/dev/client3/rdock/2013.1/src/exe/rbdock.cxx#4 $)

>  <Rbt.Library>
libRbt.so (2013.1, Build901 2013/11/27)

>  <Rbt.Parameter_File>
/export/apps/rDock/src/rDock_2013.1_src/data/scripts/dock_solv.prm

>  <Rbt.Receptor>
prm/pocket_docking_8.prm

>  <SCORE>
-7.83735

>  <SCORE.INTER>
-7.28118

>  <SCORE.INTER.CONST>
1

>  <SCORE.INTER.POLAR>
0

>  <SCORE.INTER.ROT>
5

>  <SCORE.INTER.SOLV>
14.0383

>  <SCORE.INTER.VDW>
-16.4669

>  <SCORE.INTER.norm>
-0.330963

>  <SCORE.INTRA>
-0.556179

>  <SCORE.INTRA.DIHEDRAL>
-0.849649

>  <SCORE.INTRA.DIHEDRAL.0>
2.61549

>  <SCORE.INTRA.POLAR>
0

>  <SCORE.INTRA.POLAR.0>
0

>  <SCORE.INTRA.REPUL>
0

>  <SCORE.INTRA.REPUL.0>
0

>  <SCORE.INTRA.SOLV>
1.16642

>  <SCORE.INTRA.SOLV.lig_0>
-73.766

>  <SCORE.INTRA.VDW>
-0.714563

>  <SCORE.INTRA.VDW.0>
-1.95055

>  <SCORE.INTRA.norm>
-0.0252809

>  <SCORE.RESTR>
0

>  <SCORE.RESTR.CAVITY>
0

>  <SCORE.RESTR.norm>
0

>  <SCORE.SYSTEM>
0

>  <SCORE.SYSTEM.CONST>
0

>  <SCORE.SYSTEM.DIHEDRAL>
0

>  <SCORE.SYSTEM.SOLV>
0

>  <SCORE.SYSTEM.norm>
0

>  <SCORE.heavy>
22

>  <SCORE.norm>
-0.356243

>  <RMSD>
7.972

$$$$
ligand
 OpenBabel11021811513D
libRbt.so/2013.1/901 2013/11/27
 22 23  0  0  0  0  0  0  0  0999 V2000
   33.3015   -1.0215  110.2591 N   0  0  0  0  0  0  0  0  0  0  0  0
   32.9434   -4.2362  109.1424 C   0  0  1  0  0  0  0  0  0  0  0  0
   32.6207   -3.2676  110.2002 O   0  0  0  0  0  0  0  0  0  0  0  0
   35.8037   -6.1297  110.8063 P   0  0  2  0  0  0  0  0  0  0  0  0
   32.5201   -1.9559  109.5714 C   0  0  2  0  0  0  0  0  0  0  0  0
   34.9816   -0.1068  111.3326 N   0  0  0  0  0  0  0  0  0  0  0  0
   32.2665   -1.2669  107.2959 O   0  0  0  0  0  0  0  0  0  0  0  0
   33.0082   -2.1128  108.1872 C   0  0  2  0  0  0  0  0  0  0  0  0
   35.2072    2.6480  112.4552 N   0  0  0  0  0  0  0  0  0  0  0  0
   31.4422   -3.7001  107.3677 O   0  0  0  0  0  0  0  0  0  0  0  0
   32.7875   -3.5269  107.8649 C   0  0  2  0  0  0  0  0  0  0  0  0
   34.0060    0.8171  111.2348 C   0  0  0  0  0  0  0  0  0  0  0  0
   31.6989    0.8806  110.2402 N   0  0  0  0  0  0  0  0  0  0  0  0
   34.4890   -5.3306  110.5282 O   0  0  0  0  0  0  0  0  0  0  0  0
   34.3451   -4.6977  109.2935 C   0  0  0  0  0  0  0  0  0  0  0  0
   37.0655   -5.2176  110.5004 O   0  0  0  0  0  0  0  0  0  0  0  0
   34.5323   -1.2318  110.7274 C   0  0  0  0  0  0  0  0  0  0  0  0
   33.1148    2.9703  111.6148 O   0  0  0  0  0  0  0  0  0  0  0  0
   34.0693    2.2131  111.7710 C   0  0  0  0  0  0  0  0  0  0  0  0
   32.9344    0.2520  110.5587 C   0  0  0  0  0  0  0  0  0  0  0  0
   35.8470   -7.3834  110.0204 O   0  5  0  0  0  0  0  0  0  0  0  0
   35.8416   -6.6410  112.2032 O   0  0  0  0  0  0  0  0  0  0  0  0
  1 17  1  0  0  0  0
  1 20  1  0  0  0  0
  2 15  1  1  0  0  0
  2  3  1  0  0  0  0
  2 11  1  0  0  0  0
  3  5  1  0  0  0  0
  4 16  1  6  0  0  0
  4 21  1  0  0  0  0
  4 22  2  0  0  0  0
  4 14  1  0  0  0  0
  5  1  1  1  0  0  0
  5  8  1  0  0  0  0
  6 17  2  0  0  0  0
  6 12  1  0  0  0  0
  8  7  1  6  0  0  0
  8 11  1  0  0  0  0
  9 19  1  0  0  0  0
 11 10  1  1  0  0  0
 12 20  2  0  0  0  0
 12 19  1  0  0  0  0
 13 20  1  0  0  0  0
 14 15  1  0  0  0  0
 18 19  2  0  0  0  0
M  CHG  1  21  -1
M  END
>  <CHROM.1>
42.48993396,61.28930682,51.77564045,168.97097171,-0.81305612,33.97911696
-2.51842596,110.16471586,1.91768873,-0.76665327,0.32909902

>  <Name>
ligand

>  <RI>
0

>  <Rbt.Current_Directory>
/home/itssahil/PROJECTS/Mol_Feturizer/New_Systems/rnas/4XW7

>  <Rbt.Executable>
rbdock ($Id: //depot/dev/client3/rdock/2013.1/src/exe/rbdock.cxx#4 $)

>  <Rbt.Library>
libRbt.so (2013.1, Build901 2013/11/27)

>  <Rbt.Parameter_File>
/export/apps/rDock/src/rDock_2013.1_src/data/scripts/dock_solv.prm

>  <Rbt.Receptor>
prm/pocket_docking_8.prm

>  <SCORE>
-6.44691

>  <SCORE.INTER>
-5.72788

>  <SCORE.INTER.CONST>
1

>  <SCORE.INTER.POLAR>
0

>  <SCORE.INTER.ROT>
5

>  <SCORE.INTER.SOLV>
15.4654

>  <SCORE.INTER.VDW>
-15.9071

>  <SCORE.INTER.norm>
-0.260358

>  <SCORE.INTRA>
-0.719029

>  <SCORE.INTRA.DIHEDRAL>
-0.438927

>  <SCORE.INTRA.DIHEDRAL.0>
2.61549

>  <SCORE.INTRA.POLAR>
0

>  <SCORE.INTRA.POLAR.0>
0

>  <SCORE.INTRA.REPUL>
0

>  <SCORE.INTRA.REPUL.0>
0

>  <SCORE.INTRA.SOLV>
-0.259282

>  <SCORE.INTRA.SOLV.lig_0>
-73.766

>  <SCORE.INTRA.VDW>
-0.369924

>  <SCORE.INTRA.VDW.0>
-1.95055

>  <SCORE.INTRA.norm>
-0.0326831

>  <SCORE.RESTR>
0

>  <SCORE.RESTR.CAVITY>
0

>  <SCORE.RESTR.norm>
0

>  <SCORE.SYSTEM>
0

>  <SCORE.SYSTEM.CONST>
0

>  <SCORE.SYSTEM.DIHEDRAL>
0

>  <SCORE.SYSTEM.SOLV>
0

>  <SCORE.SYSTEM.norm>
0

>  <SCORE.heavy>
22

>  <SCORE.norm>
-0.293042

>  <RMSD>
8.008

$$$$
ligand
 OpenBabel11021811513D
libRbt.so/2013.1/901 2013/11/27
 22 23  0  0  0  0  0  0  0  0999 V2000
   31.9458   -6.6372  109.4170 N   0  0  0  0  0  0  0  0  0  0  0  0
   33.8245   -3.7821  109.2469 C   0  0  1  0  0  0  0  0  0  0  0  0
   32.5474   -4.3810  109.6614 O   0  0  0  0  0  0  0  0  0  0  0  0
   32.4481   -1.4829  107.4929 P   0  0  2  0  0  0  0  0  0  0  0  0
   32.8222   -5.7565  110.0595 C   0  0  2  0  0  0  0  0  0  0  0  0
   30.2967   -7.3978  108.1866 N   0  0  0  0  0  0  0  0  0  0  0  0
   34.8420   -6.9059  110.6220 O   0  0  0  0  0  0  0  0  0  0  0  0
   34.2157   -6.0401  109.6637 C   0  0  2  0  0  0  0  0  0  0  0  0
   30.2126  -10.7061  109.5239 N   0  0  0  0  0  0  0  0  0  0  0  0
   35.3598   -4.4115  110.9607 O   0  0  0  0  0  0  0  0  0  0  0  0
   34.8768   -4.7307  109.6372 C   0  0  2  0  0  0  0  0  0  0  0  0
   30.9529   -8.4593  108.6942 C   0  0  0  0  0  0  0  0  0  0  0  0
   32.9416   -8.7787  110.1971 N   0  0  0  0  0  0  0  0  0  0  0  0
   32.6260   -3.0316  107.3741 O   0  0  0  0  0  0  0  0  0  0  0  0
   33.8378   -3.5937  107.7756 C   0  0  0  0  0  0  0  0  0  0  0  0
   33.4929   -0.7453  106.5536 O   0  0  0  0  0  0  0  0  0  0  0  0
   30.9202   -6.2848  108.6408 C   0  0  0  0  0  0  0  0  0  0  0  0
   30.6752  -10.3597  107.3206 O   0  0  0  0  0  0  0  0  0  0  0  0
   30.6053   -9.8955  108.4558 C   0  0  0  0  0  0  0  0  0  0  0  0
   31.9993   -7.9935  109.4771 C   0  0  0  0  0  0  0  0  0  0  0  0
   32.5805   -1.0329  108.8969 O   0  5  0  0  0  0  0  0  0  0  0  0
   31.0556   -1.0711  107.1680 O   0  0  0  0  0  0  0  0  0  0  0  0
  1 17  1  0  0  0  0
  1 20  1  0  0  0  0
  2 15  1  6  0  0  0
  2  3  1  0  0  0  0
  2 11  1  0  0  0  0
  3  5  1  0  0  0  0
  4 16  1  6  0  0  0
  4 21  1  0  0  0  0
  4 22  2  0  0  0  0
  4 14  1  0  0  0  0
  5  1  1  6  0  0  0
  5  8  1  0  0  0  0
  6 17  2  0  0  0  0
  6 12  1  0  0  0  0
  8  7  1  1  0  0  0
  8 11  1  0  0  0  0
  9 19  1  0  0  0  0
 11 10  1  1  0  0  0
 12 20  2  0  0  0  0
 12 19  1  0  0  0  0
 13 20  1  0  0  0  0
 14 15  1  0  0  0  0
 18 19  2  0  0  0  0
M  CHG  1  21  -1
M  END
>  <CHROM.1>
-5.64122829,45.66277134,62.91102449,82.58407374,-116.74492603,32.53628518
-5.26581570,108.77143463,-1.82402459,-0.62112796,-0.30301755

>  <Name>
ligand

>  <RI>
0

>  <Rbt.Current_Directory>
/home/itssahil/PROJECTS/Mol_Feturizer/New_Systems/rnas/4XW7

>  <Rbt.Executable>
rbdock ($Id: //depot/dev/client3/rdock/2013.1/src/exe/rbdock.cxx#4 $)

>  <Rbt.Library>
libRbt.so (2013.1, Build901 2013/11/27)

>  <Rbt.Parameter_File>
/export/apps/rDock/src/rDock_2013.1_src/data/scripts/dock_solv.prm

>  <Rbt.Receptor>
prm/pocket_docking_8.prm

>  <SCORE>
-7.1318

>  <SCORE.INTER>
-9.66186

>  <SCORE.INTER.CONST>
1

>  <SCORE.INTER.POLAR>
0

>  <SCORE.INTER.ROT>
5

>  <SCORE.INTER.SOLV>
13.3491

>  <SCORE.INTER.VDW>
-17.8243

>  <SCORE.INTER.norm>
-0.439175

>  <SCORE.INTRA>
2.53006

>  <SCORE.INTRA.DIHEDRAL>
1.8163

>  <SCORE.INTRA.DIHEDRAL.0>
2.61549

>  <SCORE.INTRA.POLAR>
0

>  <SCORE.INTRA.POLAR.0>
0

>  <SCORE.INTRA.REPUL>
0

>  <SCORE.INTRA.REPUL.0>
0

>  <SCORE.INTRA.SOLV>
3.48173

>  <SCORE.INTRA.SOLV.lig_0>
-73.766

>  <SCORE.INTRA.VDW>
-0.118955

>  <SCORE.INTRA.VDW.0>
-1.95055

>  <SCORE.INTRA.norm>
0.115003

>  <SCORE.RESTR>
0

>  <SCORE.RESTR.CAVITY>
0

>  <SCORE.RESTR.norm>
0

>  <SCORE.SYSTEM>
0

>  <SCORE.SYSTEM.CONST>
0

>  <SCORE.SYSTEM.DIHEDRAL>
0

>  <SCORE.SYSTEM.SOLV>
0

>  <SCORE.SYSTEM.norm>
0

>  <SCORE.heavy>
22

>  <SCORE.norm>
-0.324173

>  <RMSD>
8.452

$$$$
ligand
 OpenBabel11021811513D
libRbt.so/2013.1/901 2013/11/27
 22 23  0  0  0  0  0  0  0  0999 V2000
   32.1163   -2.1556  107.7763 N   0  0  0  0  0  0  0  0  0  0  0  0
   33.5688   -2.4330  110.8623 C   0  0  1  0  0  0  0  0  0  0  0  0
   32.3240   -2.2042  110.1144 O   0  0  0  0  0  0  0  0  0  0  0  0
   34.2821    1.2970  111.2917 P   0  0  2  0  0  0  0  0  0  0  0  0
   32.4156   -2.9674  108.8754 C   0  0  2  0  0  0  0  0  0  0  0  0
   32.3550   -0.7920  106.0747 N   0  0  0  0  0  0  0  0  0  0  0  0
   33.8342   -4.7627  108.1814 O   0  0  0  0  0  0  0  0  0  0  0  0
   33.8039   -3.4609  108.7853 C   0  0  2  0  0  0  0  0  0  0  0  0
   29.7235   -1.1695  104.0529 N   0  0  0  0  0  0  0  0  0  0  0  0
   33.9041   -4.7922  110.7503 O   0  0  0  0  0  0  0  0  0  0  0  0
   34.2761   -3.5212  110.1730 C   0  0  2  0  0  0  0  0  0  0  0  0
   31.0452   -1.0889  106.1816 C   0  0  0  0  0  0  0  0  0  0  0  0
   29.6550   -2.5096  107.7192 N   0  0  0  0  0  0  0  0  0  0  0  0
   33.6215   -0.1195  111.2519 O   0  0  0  0  0  0  0  0  0  0  0  0
   34.3991   -1.2038  110.8454 C   0  0  0  0  0  0  0  0  0  0  0  0
   34.9362    1.6279  109.8844 O   0  0  0  0  0  0  0  0  0  0  0  0
   32.9998   -1.4563  107.0631 C   0  0  0  0  0  0  0  0  0  0  0  0
   29.2794    0.3876  105.6550 O   0  0  0  0  0  0  0  0  0  0  0  0
   29.9578   -0.5705  105.2932 C   0  0  0  0  0  0  0  0  0  0  0  0
   30.8779   -1.9505  107.2560 C   0  0  0  0  0  0  0  0  0  0  0  0
   35.2794    1.3944  112.3812 O   0  5  0  0  0  0  0  0  0  0  0  0
   33.2979    2.3428  111.6813 O   0  0  0  0  0  0  0  0  0  0  0  0
  1 17  1  0  0  0  0
  1 20  1  0  0  0  0
  2 15  1  6  0  0  0
  2  3  1  0  0  0  0
  2 11  1  0  0  0  0
  3  5  1  0  0  0  0
  4 16  1  6  0  0  0
  4 21  1  0  0  0  0
  4 22  2  0  0  0  0
  4 14  1  0  0  0  0
  5  1  1  6  0  0  0
  5  8  1  0  0  0  0
  6 17  2  0  0  0  0
  6 12  1  0  0  0  0
  8  7  1  1  0  0  0
  8 11  1  0  0  0  0
  9 19  1  0  0  0  0
 11 10  1  1  0  0  0
 12 20  2  0  0  0  0
 12 19  1  0  0  0  0
 13 20  1  0  0  0  0
 14 15  1  0  0  0  0
 18 19  2  0  0  0  0
M  CHG  1  21  -1
M  END
>  <CHROM.1>
91.30887647,51.22875490,53.80231770,-179.07393382,81.45819103,32.77568555
-1.18367244,108.97093313,-2.75600164,-0.92502494,0.14859398

>  <Name>
ligand

>  <RI>
0

>  <Rbt.Current_Directory>
/home/itssahil/PROJECTS/Mol_Feturizer/New_Systems/rnas/4XW7

>  <Rbt.Executable>
rbdock ($Id: //depot/dev/client3/rdock/2013.1/src/exe/rbdock.cxx#4 $)

>  <Rbt.Library>
libRbt.so (2013.1, Build901 2013/11/27)

>  <Rbt.Parameter_File>
/export/apps/rDock/src/rDock_2013.1_src/data/scripts/dock_solv.prm

>  <Rbt.Receptor>
prm/pocket_docking_8.prm

>  <SCORE>
-8.30576

>  <SCORE.INTER>
-8.35054

>  <SCORE.INTER.CONST>
1

>  <SCORE.INTER.POLAR>
0

>  <SCORE.INTER.ROT>
5

>  <SCORE.INTER.SOLV>
12.0885

>  <SCORE.INTER.VDW>
-16.5299

>  <SCORE.INTER.norm>
-0.37957

>  <SCORE.INTRA>
0.044781

>  <SCORE.INTRA.DIHEDRAL>
0.377998

>  <SCORE.INTRA.DIHEDRAL.0>
2.61549

>  <SCORE.INTRA.POLAR>
0

>  <SCORE.INTRA.POLAR.0>
0

>  <SCORE.INTRA.REPUL>
0

>  <SCORE.INTRA.REPUL.0>
0

>  <SCORE.INTRA.SOLV>
-0.931829

>  <SCORE.INTRA.SOLV.lig_0>
-73.766

>  <SCORE.INTRA.VDW>
0.321697

>  <SCORE.INTRA.VDW.0>
-1.95055

>  <SCORE.INTRA.norm>
0.0020355

>  <SCORE.RESTR>
0

>  <SCORE.RESTR.CAVITY>
0

>  <SCORE.RESTR.norm>
0

>  <SCORE.SYSTEM>
0

>  <SCORE.SYSTEM.CONST>
0

>  <SCORE.SYSTEM.DIHEDRAL>
0

>  <SCORE.SYSTEM.SOLV>
0

>  <SCORE.SYSTEM.norm>
0

>  <SCORE.heavy>
22

>  <SCORE.norm>
-0.377534

>  <RMSD>
8.584

$$$$
ligand
 OpenBabel11021811513D
libRbt.so/2013.1/901 2013/11/27
 22 23  0  0  0  0  0  0  0  0999 V2000
   32.1680   -7.7168  110.0020 N   0  0  0  0  0  0  0  0  0  0  0  0
   34.5584   -5.2802  110.2444 C   0  0  1  0  0  0  0  0  0  0  0  0
   33.3152   -5.8314  110.8029 O   0  0  0  0  0  0  0  0  0  0  0  0
   32.6019   -2.8189  108.1161 P   0  0  2  0  0  0  0  0  0  0  0  0
   33.3520   -7.2752  110.6018 C   0  0  2  0  0  0  0  0  0  0  0  0
   30.4474   -7.8437  108.6473 N   0  0  0  0  0  0  0  0  0  0  0  0
   35.1258   -8.7926  110.0841 O   0  0  0  0  0  0  0  0  0  0  0  0
   34.5055   -7.5496  109.7227 C   0  0  2  0  0  0  0  0  0  0  0  0
   29.5904  -11.2491  109.3535 N   0  0  0  0  0  0  0  0  0  0  0  0
   36.2716   -6.7169  111.0758 O   0  0  0  0  0  0  0  0  0  0  0  0
   35.4250   -6.4276  109.9415 C   0  0  2  0  0  0  0  0  0  0  0  0
   30.3611   -8.8692  109.5168 C   0  0  0  0  0  0  0  0  0  0  0  0
   31.7369   -9.6906  111.4528 N   0  0  0  0  0  0  0  0  0  0  0  0
   33.3936   -3.4797  109.2912 O   0  0  0  0  0  0  0  0  0  0  0  0
   34.2617   -4.5315  108.9985 C   0  0  0  0  0  0  0  0  0  0  0  0
   31.6876   -3.9026  107.4037 O   0  0  0  0  0  0  0  0  0  0  0  0
   31.5645   -7.1447  108.9595 C   0  0  0  0  0  0  0  0  0  0  0  0
   28.1120   -9.5568  109.7259 O   0  0  0  0  0  0  0  0  0  0  0  0
   29.2771   -9.9009  109.5442 C   0  0  0  0  0  0  0  0  0  0  0  0
   31.4431   -8.8013  110.3824 C   0  0  0  0  0  0  0  0  0  0  0  0
   33.5166   -2.1717  107.1488 O   0  5  0  0  0  0  0  0  0  0  0  0
   31.7903   -1.6656  108.5908 O   0  0  0  0  0  0  0  0  0  0  0  0
  1 17  1  0  0  0  0
  1 20  1  0  0  0  0
  2 15  1  6  0  0  0
  2  3  1  0  0  0  0
  2 11  1  0  0  0  0
  3  5  1  0  0  0  0
  4 16  1  6  0  0  0
  4 21  1  0  0  0  0
  4 22  2  0  0  0  0
  4 14  1  0  0  0  0
  5  1  1  6  0  0  0
  5  8  1  0  0  0  0
  6 17  2  0  0  0  0
  6 12  1  0  0  0  0
  8  7  1  1  0  0  0
  8 11  1  0  0  0  0
  9 19  1  0  0  0  0
 11 10  1  1  0  0  0
 12 20  2  0  0  0  0
 12 19  1  0  0  0  0
 13 20  1  0  0  0  0
 14 15  1  0  0  0  0
 18 19  2  0  0  0  0
M  CHG  1  21  -1
M  END
>  <CHROM.1>
45.58521715,60.70197141,60.05140579,-161.87409139,118.93876970,32.52483350
-6.37526942,109.43310265,-1.99170793,-0.30391562,-0.35106543

>  <Name>
ligand

>  <RI>
0

>  <Rbt.Current_Directory>
/home/itssahil/PROJECTS/Mol_Feturizer/New_Systems/rnas/4XW7

>  <Rbt.Executable>
rbdock ($Id: //depot/dev/client3/rdock/2013.1/src/exe/rbdock.cxx#4 $)

>  <Rbt.Library>
libRbt.so (2013.1, Build901 2013/11/27)

>  <Rbt.Parameter_File>
/export/apps/rDock/src/rDock_2013.1_src/data/scripts/dock_solv.prm

>  <Rbt.Receptor>
prm/pocket_docking_8.prm

>  <SCORE>
-6.34891

>  <SCORE.INTER>
-5.59117

>  <SCORE.INTER.CONST>
1

>  <SCORE.INTER.POLAR>
0

>  <SCORE.INTER.ROT>
5

>  <SCORE.INTER.SOLV>
12.2756

>  <SCORE.INTER.VDW>
-14.7526

>  <SCORE.INTER.norm>
-0.254144

>  <SCORE.INTRA>
-0.757739

>  <SCORE.INTRA.DIHEDRAL>
0.366711

>  <SCORE.INTRA.DIHEDRAL.0>
2.61549

>  <SCORE.INTRA.POLAR>
0

>  <SCORE.INTRA.POLAR.0>
0

>  <SCORE.INTRA.REPUL>
0

>  <SCORE.INTRA.REPUL.0>
0

>  <SCORE.INTRA.SOLV>
-0.306864

>  <SCORE.INTRA.SOLV.lig_0>
-73.766

>  <SCORE.INTRA.VDW>
-0.787662

>  <SCORE.INTRA.VDW.0>
-1.95055

>  <SCORE.INTRA.norm>
-0.0344427

>  <SCORE.RESTR>
0

>  <SCORE.RESTR.CAVITY>
0

>  <SCORE.RESTR.norm>
0

>  <SCORE.SYSTEM>
0

>  <SCORE.SYSTEM.CONST>
0

>  <SCORE.SYSTEM.DIHEDRAL>
0

>  <SCORE.SYSTEM.SOLV>
0

>  <SCORE.SYSTEM.norm>
0

>  <SCORE.heavy>
22

>  <SCORE.norm>
-0.288587

>  <RMSD>
8.916

$$$$
ligand
 OpenBabel11021811513D
libRbt.so/2013.1/901 2013/11/27
 22 23  0  0  0  0  0  0  0  0999 V2000
   33.5359   -5.4060  109.4247 N   0  0  0  0  0  0  0  0  0  0  0  0
   35.4283   -7.1846  111.6529 C   0  0  1  0  0  0  0  0  0  0  0  0
   34.4560   -6.0970  111.4711 O   0  0  0  0  0  0  0  0  0  0  0  0
   38.5549   -5.0028  111.8093 P   0  0  2  0  0  0  0  0  0  0  0  0
   33.6062   -6.4589  110.3429 C   0  0  2  0  0  0  0  0  0  0  0  0
   34.1336   -3.8480  108.0009 N   0  0  0  0  0  0  0  0  0  0  0  0
   33.2048   -8.5301  109.2178 O   0  0  0  0  0  0  0  0  0  0  0  0
   34.2199   -7.6459  109.7159 C   0  0  2  0  0  0  0  0  0  0  0  0
   32.3867   -1.7235  106.7881 N   0  0  0  0  0  0  0  0  0  0  0  0
   34.1216   -9.1765  111.5300 O   0  0  0  0  0  0  0  0  0  0  0  0
   34.9869   -8.2882  110.7890 C   0  0  2  0  0  0  0  0  0  0  0  0
   32.7896   -3.8268  108.0915 C   0  0  0  0  0  0  0  0  0  0  0  0
   31.0651   -5.1238  109.3797 N   0  0  0  0  0  0  0  0  0  0  0  0
   37.0974   -5.5570  111.9225 O   0  0  0  0  0  0  0  0  0  0  0  0
   36.7771   -6.7285  111.2363 C   0  0  0  0  0  0  0  0  0  0  0  0
   38.6279   -3.5439  112.4291 O   0  0  0  0  0  0  0  0  0  0  0  0
   34.5770   -4.8251  108.8271 C   0  0  0  0  0  0  0  0  0  0  0  0
   30.6858   -3.1678  107.2457 O   0  0  0  0  0  0  0  0  0  0  0  0
   31.8797   -2.8980  107.3501 C   0  0  0  0  0  0  0  0  0  0  0  0
   32.3960   -4.8070  108.9909 C   0  0  0  0  0  0  0  0  0  0  0  0
   39.0259   -5.0119  110.4060 O   0  5  0  0  0  0  0  0  0  0  0  0
   39.5324   -5.9112  112.4676 O   0  0  0  0  0  0  0  0  0  0  0  0
  1 17  1  0  0  0  0
  1 20  1  0  0  0  0
  2 15  1  6  0  0  0
  2  3  1  0  0  0  0
  2 11  1  0  0  0  0
  3  5  1  0  0  0  0
  4 16  1  1  0  0  0
  4 21  1  0  0  0  0
  4 22  2  0  0  0  0
  4 14  1  0  0  0  0
  5  1  1  6  0  0  0
  5  8  1  0  0  0  0
  6 17  2  0  0  0  0
  6 12  1  0  0  0  0
  8  7  1  1  0  0  0
  8 11  1  0  0  0  0
  9 19  1  0  0  0  0
 11 10  1  1  0  0  0
 12 20  2  0  0  0  0
 12 19  1  0  0  0  0
 13 20  1  0  0  0  0
 14 15  1  0  0  0  0
 18 19  2  0  0  0  0
M  CHG  1  21  -1
M  END
>  <CHROM.1>
56.44520210,54.16472664,169.40137755,171.04094506,-18.43651591,34.98607803
-5.49395867,110.12845721,2.72572984,-0.44132075,-0.40471058

>  <Name>
ligand

>  <RI>
0

>  <Rbt.Current_Directory>
/home/itssahil/PROJECTS/Mol_Feturizer/New_Systems/rnas/4XW7

>  <Rbt.Executable>
rbdock ($Id: //depot/dev/client3/rdock/2013.1/src/exe/rbdock.cxx#4 $)

>  <Rbt.Library>
libRbt.so (2013.1, Build901 2013/11/27)

>  <Rbt.Parameter_File>
/export/apps/rDock/src/rDock_2013.1_src/data/scripts/dock_solv.prm

>  <Rbt.Receptor>
prm/pocket_docking_8.prm

>  <SCORE>
-10.0641

>  <SCORE.INTER>
-9.82109

>  <SCORE.INTER.CONST>
1

>  <SCORE.INTER.POLAR>
0

>  <SCORE.INTER.ROT>
5

>  <SCORE.INTER.SOLV>
20.121

>  <SCORE.INTER.VDW>
-20.1877

>  <SCORE.INTER.norm>
-0.446413

>  <SCORE.INTRA>
-0.243018

>  <SCORE.INTRA.DIHEDRAL>
-0.100061

>  <SCORE.INTRA.DIHEDRAL.0>
2.61549

>  <SCORE.INTRA.POLAR>
0

>  <SCORE.INTRA.POLAR.0>
0

>  <SCORE.INTRA.REPUL>
0

>  <SCORE.INTRA.REPUL.0>
0

>  <SCORE.INTRA.SOLV>
-0.0156985

>  <SCORE.INTRA.SOLV.lig_0>
-73.766

>  <SCORE.INTRA.VDW>
-0.185138

>  <SCORE.INTRA.VDW.0>
-1.95055

>  <SCORE.INTRA.norm>
-0.0110463

>  <SCORE.RESTR>
0

>  <SCORE.RESTR.CAVITY>
0

>  <SCORE.RESTR.norm>
0

>  <SCORE.SYSTEM>
0

>  <SCORE.SYSTEM.CONST>
0

>  <SCORE.SYSTEM.DIHEDRAL>
0

>  <SCORE.SYSTEM.SOLV>
0

>  <SCORE.SYSTEM.norm>
0

>  <SCORE.heavy>
22

>  <SCORE.norm>
-0.457459

>  <RMSD>
9.679

$$$$
