@<TRIPOS>MOLECULE
4XW7_rdock.pdb
 1379 1543 0 0 0
SMALL
GASTEIGER

@<TRIPOS>ATOM
      1  P          7.3860    8.3440  111.4940 P.3     1  G1          0.1280
      2  C5'        4.9670    7.8040  110.6420 C.3     1  G1          0.1795
      3  O5'        6.0340    8.7370  110.7470 O.3     1  G1         -0.3259
      4  C4'        3.8900    8.2860  109.7010 C.3     1  G1          0.1772
      5  O4'        3.1620    9.3890  110.3010 O.3     1  G1         -0.3307
      6  C3'        4.3630    8.8420  108.3680 C.3     1  G1          0.1860
      7  O3'        4.6770    7.8340  107.4230 O.3     1  G1         -0.3112
      8  C2'        3.1980    9.7290  107.9510 C.3     1  G1          0.2309
      9  O2'        2.1330    8.9470  107.4290 O.3     1  G1         -0.2156
     10  C1'        2.7620   10.3020  109.2990 C.3     1  G1          0.2408
     11  N1         2.7190   15.3030  108.3230 N.ar    1  G1         -0.1709
     12  C2         1.8980   14.3130  107.8460 C.ar    1  G1          0.2606
     13  N2         0.9390   14.7040  106.9950 N.pl3   1  G1         -0.0859
     14  N3         2.0060   13.0360  108.1750 N.ar    1  G1         -0.1918
     15  C4         3.0220   12.8220  109.0370 C.ar    1  G1          0.1723
     16  C5         3.9010   13.7410  109.5740 C.ar    1  G1          0.1748
     17  C6         3.7720   15.1090  109.2110 C.ar    1  G1          0.3023
     18  O6         4.4520   16.0750  109.5790 O.2     1  G1         -0.2633
     19  N7         4.8040   13.1170  110.4240 N.ar    1  G1         -0.2173
     20  C8         4.4670   11.8570  110.3890 C.ar    1  G1          0.1817
     21  N9         3.3930   11.6080  109.5690 N.ar    1  G1         -0.2693
     22  OP1        8.1950    9.5780  111.6680 O.3     1  G1         -0.1955
     23  OP2        7.0270    7.5280  112.6830 O.co2   1  G1         -0.7863
     24  P          5.7430    8.1310  106.2580 P.3     2  G2          0.2141
     25  C5'        3.8360    8.6860  104.5450 C.3     2  G2          0.1812
     26  O5'        4.9750    9.1220  105.2730 O.3     2  G2         -0.3114
     27  C4'        3.1470    9.8300  103.8430 C.3     2  G2          0.1773
     28  O4'        2.6550   10.7910  104.8150 O.3     2  G2         -0.3307
     29  C3'        4.0100   10.6700  102.9170 C.3     2  G2          0.1860
     30  O3'        4.2470   10.0660  101.6580 O.3     2  G2         -0.3112
     31  C2'        3.2250   11.9710  102.8350 C.3     2  G2          0.2309
     32  O2'        2.1050   11.8290  101.9740 O.3     2  G2         -0.2156
     33  C1'        2.7160   12.0950  104.2700 C.3     2  G2          0.2408
     34  N1         4.4090   16.7840  105.1850 N.ar    2  G2         -0.1709
     35  C2         3.4740   16.3520  104.2780 C.ar    2  G2          0.2606
     36  N2         2.9120   17.2950  103.5080 N.pl3   2  G2         -0.0859
     37  N3         3.1170   15.0860  104.1380 N.ar    2  G2         -0.1918
     38  C4         3.7800   14.2760  104.9920 C.ar    2  G2          0.1723
     39  C5         4.7310   14.6050  105.9330 C.ar    2  G2          0.1748
     40  C6         5.1040   15.9670  106.0720 C.ar    2  G2          0.3023
     41  O6         5.9280   16.4650  106.8490 O.2     2  G2         -0.2633
     42  N7         5.1690   13.4730  106.6080 N.ar    2  G2         -0.2173
     43  C8         4.4890   12.4930  106.0730 C.ar    2  G2          0.1817
     44  N9         3.6260   12.9140  105.0900 N.ar    2  G2         -0.2693
     45  OP1        5.9960    6.8620  105.5280 O.2     2  G2         -0.5172
     46  OP2        6.8770    8.8730  106.8650 O.co2   2  G2         -0.4373
     47  P          5.6520   10.3010  100.9140 P.3     3  G3          0.2141
     48  C5'        4.6390   12.3060   99.5690 C.3     3  G3          0.1812
     49  O5'        5.6110   11.8390  100.4920 O.3     3  G3         -0.3114
     50  C4'        4.7330   13.7940   99.3350 C.3     3  G3          0.1773
     51  O4'        4.4340   14.5260  100.5520 O.3     3  G3         -0.3307
     52  C3'        6.0880   14.3390   98.9170 C.3     3  G3          0.1860
     53  O3'        6.3920   14.0990   97.5540 O.3     3  G3         -0.3112
     54  C2'        5.9590   15.8170   99.2620 C.3     3  G3          0.2309
     55  O2'        5.2040   16.4990   98.2710 O.3     3  G3         -0.2156
     56  C1'        5.1290   15.7580  100.5460 C.3     3  G3          0.2408
     57  N1         7.6980   18.9120  103.5670 N.ar    3  G3         -0.1709
     58  C2         6.9470   19.1800  102.4500 C.ar    3  G3          0.2606
     59  N2         6.8660   20.4670  102.0820 N.pl3   3  G3         -0.0859
     60  N3         6.3200   18.2540  101.7460 N.ar    3  G3         -0.1918
     61  C4         6.5070   17.0170  102.2550 C.ar    3  G3          0.1723
     62  C5         7.2360   16.6420  103.3620 C.ar    3  G3          0.1748
     63  C6         7.9050   17.6480  104.1100 C.ar    3  G3          0.3023
     64  O6         8.6040   17.5240  105.1230 O.2     3  G3         -0.2633
     65  N7         7.1730   15.2660  103.5440 N.ar    3  G3         -0.2173
     66  C8         6.4210   14.8380  102.5630 C.ar    3  G3          0.1817
     67  N9         5.9800   15.8510  101.7480 N.ar    3  G3         -0.2693
     68  OP1        5.6610    9.4810   99.6760 O.2     3  G3         -0.5172
     69  OP2        6.7330   10.1240  101.9160 O.co2   3  G3         -0.4373
     70  P          7.9250   13.9970   97.0820 P.3     4  U4          0.2141
     71  C5'        7.8770   16.5010   96.3120 C.3     4  U4          0.1812
     72  O5'        8.4460   15.5020   97.1440 O.3     4  U4         -0.3114
     73  C4'        8.4110   17.8740   96.6380 C.3     4  U4          0.1773
     74  O4'        7.9880   18.2790   97.9670 O.3     4  U4         -0.3307
     75  C3'        9.9220   18.0110   96.6880 C.3     4  U4          0.1860
     76  O3'       10.5280   18.0770   95.4120 O.3     4  U4         -0.3112
     77  C2'       10.1000   19.2680   97.5260 C.3     4  U4          0.2309
     78  O2'        9.8140   20.4270   96.7560 O.3     4  U4         -0.2156
     79  C1'        8.9840   19.0930   98.5560 C.3     4  U4          0.2420
     80  N1         9.4790   18.4330   99.7870 N.ar    4  U4         -0.2534
     81  C2        10.1590   19.2150  100.7010 C.ar    4  U4          0.3546
     82  O2        10.3530   20.4070  100.5350 O.2     4  U4         -0.2443
     83  N3        10.6030   18.5520  101.8190 N.ar    4  U4         -0.1530
     84  C4        10.4410   17.2130  102.1080 C.ar    4  U4          0.2846
     85  O4        10.8960   16.7570  103.1580 O.2     4  U4         -0.2650
     86  C5         9.7300   16.4710  101.1130 C.ar    4  U4          0.0814
     87  C6         9.2860   17.0910  100.0150 C.ar    4  U4          0.0870
     88  OP1        7.9430   13.5620   95.6620 O.2     4  U4         -0.5172
     89  OP2        8.6660   13.2130   98.1040 O.co2   4  U4         -0.4373
     90  P         11.9380   17.3460   95.1650 P.3     5  C5          0.2141
     91  C5'       12.9370   19.7630   95.3060 C.3     5  C5          0.1812
     92  O5'       13.0090   18.3990   95.6920 O.3     5  C5         -0.3114
     93  C4'       13.6790   20.6520   96.2720 C.3     5  C5          0.1773
     94  O4'       13.0180   20.6500   97.5650 O.3     5  C5         -0.3307
     95  C3'       15.1060   20.2450   96.5960 C.3     5  C5          0.1860
     96  O3'       16.0360   20.5990   95.5880 O.3     5  C5         -0.3112
     97  C2'       15.3490   20.9400   97.9300 C.3     5  C5          0.2309
     98  O2'       15.6170   22.3210   97.7370 O.3     5  C5         -0.2156
     99  C1'       13.9770   20.8030   98.5930 C.3     5  C5          0.2420
    100  N1        13.9140   19.6290   99.4950 N.ar    5  C5         -0.2535
    101  C2        14.4300   19.7520  100.7900 C.ar    5  C5          0.3532
    102  O2        14.9180   20.8340  101.1470 O.2     5  C5         -0.2443
    103  N3        14.3830   18.6900  101.6250 N.ar    5  C5         -0.1739
    104  C4        13.8510   17.5390  101.2130 C.ar    5  C5          0.1759
    105  N4        13.8290   16.5200  102.0750 N.pl3   5  C5         -0.1070
    106  C5        13.3200   17.3820   99.9000 C.ar    5  C5          0.0566
    107  C6        13.3720   18.4430   99.0830 C.ar    5  C5          0.0850
    108  OP1       12.1210   17.1640   93.7020 O.2     5  C5         -0.5172
    109  OP2       12.0000   16.1630   96.0610 O.co2   5  C5         -0.4373
    110  P         17.4970   19.9320   95.5880 P.3     6  G6          0.2141
    111  C5'       19.4070   20.1570   97.3710 C.3     6  G6          0.1812
    112  O5'       18.2760   20.7240   96.7290 O.3     6  G6         -0.3114
    113  C4'       19.6050   20.7350   98.7500 C.3     6  G6          0.1773
    114  O4'       18.3930   20.5640   99.5320 O.3     6  G6         -0.3307
    115  C3'       20.6860   20.0790   99.5930 C.3     6  G6          0.1860
    116  O3'       21.9860   20.5440   99.2810 O.3     6  G6         -0.3112
    117  C2'       20.2410   20.4010  101.0130 C.3     6  G6          0.2309
    118  O2'       20.5710   21.7400  101.3520 O.3     6  G6         -0.2156
    119  C1'       18.7220   20.2990  100.8800 C.3     6  G6          0.2408
    120  N1        18.1520   16.7470  104.5100 N.ar    6  G6         -0.1709
    121  C2        18.7350   17.9870  104.5930 C.ar    6  G6          0.2606
    122  N2        19.2300   18.3270  105.7920 N.pl3   6  G6         -0.0859
    123  N3        18.8270   18.8310  103.5780 N.ar    6  G6         -0.1918
    124  C4        18.2800   18.3280  102.4520 C.ar    6  G6          0.1723
    125  C5        17.6740   17.1030  102.2660 C.ar    6  G6          0.1748
    126  C6        17.5810   16.2060  103.3620 C.ar    6  G6          0.3023
    127  O6        17.0780   15.0740  103.3930 O.2     6  G6         -0.2633
    128  N7        17.2380   16.9620  100.9580 N.ar    6  G6         -0.2173
    129  C8        17.5800   18.0800  100.3830 C.ar    6  G6          0.1817
    130  N9        18.2180   18.9550  101.2270 N.ar    6  G6         -0.2693
    131  OP1       18.1490   20.2310   94.2870 O.2     6  G6         -0.5172
    132  OP2       17.3490   18.5230   96.0340 O.co2   6  G6         -0.4373
    133  P         23.1410   19.4980   98.8900 P.3     7  U7          0.2141
    134  C5'       24.0800   19.9600  101.2900 C.3     7  U7          0.1812
    135  O5'       23.7100   19.0160  100.2970 O.3     7  U7         -0.3114
    136  C4'       23.8990   19.4050  102.6790 C.3     7  U7          0.1773
    137  O4'       22.5000   19.0950  102.9140 O.3     7  U7         -0.3307
    138  C3'       24.6160   18.0990  102.9780 C.3     7  U7          0.1860
    139  O3'       25.9900   18.2770  103.2700 O.3     7  U7         -0.3112
    140  C2'       23.8120   17.5480  104.1460 C.3     7  U7          0.2309
    141  O2'       24.1660   18.2080  105.3520 O.3     7  U7         -0.2156
    142  C1'       22.3940   17.9730  103.7660 C.3     7  U7          0.2420
    143  N1        21.6570   16.8980  103.0610 N.ar    7  U7         -0.2534
    144  C2        21.2170   15.8170  103.8060 C.ar    7  U7          0.3546
    145  O2        21.4080   15.7000  105.0040 O.2     7  U7         -0.2443
    146  N3        20.5390   14.8600  103.0940 N.ar    7  U7         -0.1530
    147  C4        20.2560   14.8690  101.7450 C.ar    7  U7          0.2846
    148  O4        19.6330   13.9250  101.2580 O.2     7  U7         -0.2650
    149  C5        20.7390   16.0180  101.0430 C.ar    7  U7          0.0814
    150  C6        21.4050   16.9690  101.7100 C.ar    7  U7          0.0870
    151  OP1       24.2160   20.2360   98.1800 O.2     7  U7         -0.5172
    152  OP2       22.4930   18.3320   98.2390 O.co2   7  U7         -0.4373
    153  P         27.0690   17.1630  102.8420 P.3     8  G8          0.2141
    154  C5'       26.7740   15.9310  105.1430 C.3     8  G8          0.1812
    155  O5'       26.6910   15.8930  103.7260 O.3     8  G8         -0.3114
    156  C4'       26.0510   14.7590  105.7550 C.3     8  G8          0.1773
    157  O4'       24.6490   14.8020  105.3800 O.3     8  G8         -0.3307
    158  C3'       26.5180   13.3890  105.2920 C.3     8  G8          0.1860
    159  O3'       27.6610   12.9380  105.9950 O.3     8  G8         -0.3112
    160  C2'       25.2850   12.5230  105.5110 C.3     8  G8          0.2309
    161  O2'       25.1540   12.1830  106.8830 O.3     8  G8         -0.2156
    162  C1'       24.1660   13.4970  105.1510 C.3     8  G8          0.2408
    163  N1        21.4470   10.9790  101.6380 N.ar    8  G8         -0.1709
    164  C2        21.5510   10.7400  102.9860 C.ar    8  G8          0.2606
    165  N2        20.8440    9.7020  103.4580 N.pl3   8  G8         -0.0859
    166  N3        22.2940   11.4650  103.8090 N.ar    8  G8         -0.1918
    167  C4        22.9340   12.4640  103.1630 C.ar    8  G8          0.1723
    168  C5        22.8930   12.7840  101.8200 C.ar    8  G8          0.1748
    169  C6        22.0940   11.9990  100.9510 C.ar    8  G8          0.3023
    170  O6        21.9300   12.1270   99.7330 O.2     8  G8         -0.2633
    171  N7        23.6920   13.8850  101.5480 N.ar    8  G8         -0.2173
    172  C8        24.1960   14.2100  102.7080 C.ar    8  G8          0.1817
    173  N9        23.7790   13.3910  103.7310 N.ar    8  G8         -0.2693
    174  OP1       28.4020   17.6450  103.2850 O.3     8  G8         -0.4373
    175  OP2       26.8470   16.8020  101.4190 O.co2   8  G8         -0.5172
    176  P         28.9570   12.4230  105.1980 P.3     9  A9          0.2141
    177  C5'       29.9700   11.8660  107.5440 C.3     9  A9          0.1812
    178  O5'       29.6600   11.4340  106.2290 O.3     9  A9         -0.3114
    179  C4'       29.3170   10.9900  108.5840 C.3     9  A9          0.1773
    180  O4'       27.8830   10.9580  108.3770 O.3     9  A9         -0.3307
    181  C3'       29.7220    9.5260  108.5760 C.3     9  A9          0.1860
    182  O3'       30.9580    9.2990  109.2310 O.3     9  A9         -0.3112
    183  C2'       28.5400    8.8500  109.2640 C.3     9  A9          0.2309
    184  O2'       28.6360    8.9780  110.6750 O.3     9  A9         -0.2156
    185  C1'       27.3680    9.7070  108.7830 C.3     9  A9          0.2408
    186  N1        24.2410    5.8990  107.2620 N.ar    9  A9         -0.2040
    187  C2        24.7820    6.1930  108.4510 C.ar    9  A9          0.2016
    188  N3        25.5880    7.2010  108.7770 N.ar    9  A9         -0.2048
    189  C4        25.8450    7.9750  107.7070 C.ar    9  A9          0.1692
    190  C5        25.3640    7.7980  106.4220 C.ar    9  A9          0.1518
    191  C6        24.5180    6.6960  106.2070 C.ar    9  A9          0.1919
    192  N6        23.9780    6.3970  105.0240 N.pl3   9  A9         -0.1054
    193  N7        25.8400    8.7920  105.5760 N.ar    9  A9         -0.2193
    194  C8        26.5880    9.5330  106.3570 C.ar    9  A9          0.1816
    195  N9        26.6380    9.0970  107.6560 N.ar    9  A9         -0.2693
    196  OP1       29.8670   13.5780  104.9950 O.3     9  A9         -0.4373
    197  OP2       28.4990   11.6310  104.0280 O.co2   9  A9         -0.5172
    198  P         32.1490    8.5090  108.4940 P.3    10  C10         0.2141
    199  C5'       30.9740    6.2410  109.0860 C.3    10  C10         0.1812
    200  O5'       31.5010    7.1100  108.0950 O.3    10  C10        -0.3114
    201  C4'       29.9860    5.2650  108.5000 C.3    10  C10         0.1773
    202  O4'       28.8870    5.9730  107.8700 O.3    10  C10        -0.3307
    203  C3'       30.5120    4.3650  107.3970 C.3    10  C10         0.1860
    204  O3'       31.2710    3.2790  107.8910 O.3    10  C10        -0.3112
    205  C2'       29.2370    3.9430  106.6810 C.3    10  C10         0.2309
    206  O2'       28.5740    2.9170  107.4050 O.3    10  C10        -0.2156
    207  C1'       28.3990    5.2210  106.7760 C.3    10  C10         0.2420
    208  N1        28.4790    6.0400  105.5430 N.ar   10  C10        -0.2535
    209  C2        27.6380    5.7090  104.4760 C.ar   10  C10         0.3532
    210  O2        26.8640    4.7480  104.6070 O.2    10  C10        -0.2443
    211  N3        27.6850    6.4370  103.3340 N.ar   10  C10        -0.1739
    212  C4        28.5320    7.4640  103.2340 C.ar   10  C10         0.1759
    213  N4        28.5510    8.1590  102.0940 N.pl3  10  C10        -0.1070
    214  C5        29.4010    7.8250  104.3040 C.ar   10  C10         0.0566
    215  C6        29.3430    7.0950  105.4280 C.ar   10  C10         0.0850
    216  OP1       33.2060    8.2540  109.5050 O.3    10  C10        -0.4373
    217  OP2       32.4910    9.2240  107.2410 O.co2  10  C10        -0.5172
    218  P         32.4550    2.6660  107.0000 P.3    11  U11         0.2141
    219  C5'       32.0160    2.2120  104.4510 C.3    11  U11         0.1812
    220  O5'       31.6880    1.9420  105.8050 O.3    11  U11        -0.3114
    221  C4'       30.8350    1.9700  103.5430 C.3    11  U11         0.1773
    222  O4'       30.0900    3.2000  103.3530 O.3    11  U11        -0.3307
    223  C3'       31.1610    1.5160  102.1310 C.3    11  U11         0.1860
    224  O3'       31.4430    0.1300  102.0650 O.3    11  U11        -0.3112
    225  C2'       29.9150    1.9220  101.3510 C.3    11  U11         0.2309
    226  O2'       28.8770    0.9710  101.5340 O.3    11  U11        -0.2156
    227  C1'       29.5140    3.2180  102.0630 C.3    11  U11         0.2420
    228  N1        29.9670    4.4320  101.3430 N.ar   11  U11        -0.2534
    229  C2        29.2020    4.8670  100.2750 C.ar   11  U11         0.3546
    230  O2        28.1900    4.2960   99.9070 O.2    11  U11        -0.2443
    231  N3        29.6640    5.9980   99.6480 N.ar   11  U11        -0.1530
    232  C4        30.7880    6.7300   99.9700 C.ar   11  U11         0.2846
    233  O4        31.0730    7.7290   99.3070 O.2    11  U11        -0.2650
    234  C5        31.5250    6.2200  101.0860 C.ar   11  U11         0.0814
    235  C6        31.1000    5.1190  101.7180 C.ar   11  U11         0.0870
    236  OP1       33.1460    1.6300  107.8100 O.3    11  U11        -0.4373
    237  OP2       33.2320    3.8030  106.4440 O.co2  11  U11        -0.5172
    238  P         32.0170   -0.5220  100.7160 P.3    12  G12         0.2141
    239  C5'       34.3710   -0.7120  101.8480 C.3    12  G12         0.1812
    240  O5'       33.2810   -1.3560  101.2070 O.3    12  G12        -0.3114
    241  C4'       35.0440   -1.6220  102.8450 C.3    12  G12         0.1773
    242  O4'       34.1980   -1.8000  104.0100 O.3    12  G12        -0.3307
    243  C3'       35.3210   -3.0390  102.3720 C.3    12  G12         0.1860
    244  O3'       36.4890   -3.1330  101.5760 O.3    12  G12        -0.3112
    245  C2'       35.4190   -3.8130  103.6780 C.3    12  G12         0.2309
    246  O2'       36.6950   -3.6270  104.2710 O.3    12  G12        -0.2156
    247  C1'       34.3760   -3.0970  104.5380 C.3    12  G12         0.2408
    248  N1        31.8360   -7.2810  105.9380 N.ar   12  G12        -0.1709
    249  C2        33.1550   -6.9580  106.1270 C.ar   12  G12         0.2606
    250  N2        33.8960   -7.8680  106.7740 N.pl3  12  G12        -0.0859
    251  N3        33.7030   -5.8280  105.7140 N.ar   12  G12        -0.1918
    252  C4        32.8130   -5.0320  105.0840 C.ar   12  G12         0.1723
    253  C5        31.4750   -5.2630  104.8420 C.ar   12  G12         0.1748
    254  C6        30.8990   -6.4810  105.2920 C.ar   12  G12         0.3023
    255  O6        29.7320   -6.8750  105.1790 O.2    12  G12        -0.2633
    256  N7        30.9070   -4.1940  104.1620 N.ar   12  G12        -0.2173
    257  C8        31.8900   -3.3490  104.0050 C.ar   12  G12         0.1817
    258  N9        33.0760   -3.7960  104.5360 N.ar   12  G12        -0.2693
    259  OP1       32.5000    0.5710   99.8370 O.2    12  G12        -0.5172
    260  OP2       31.0050   -1.4870  100.2180 O.co2  12  G12        -0.4373
    261  P         36.6220   -4.2880  100.4680 P.3    13  G13         0.2141
    262  C5'       38.0570   -5.8740  101.9850 C.3    13  G13         0.1812
    263  O5'       36.8330   -5.6230  101.3110 O.3    13  G13        -0.3114
    264  C4'       38.0730   -7.2470  102.6100 C.3    13  G13         0.1773
    265  O4'       37.1040   -7.3120  103.6880 O.3    13  G13        -0.3307
    266  C3'       37.6880   -8.4010  101.6980 C.3    13  G13         0.1860
    267  O3'       38.7550   -8.8290  100.8690 O.3    13  G13        -0.3112
    268  C2'       37.2220   -9.4620  102.6860 C.3    13  G13         0.2309
    269  O2'       38.3330  -10.1140  103.2840 O.3    13  G13        -0.2156
    270  C1'       36.5340   -8.6040  103.7480 C.3    13  G13         0.2408
    271  N1        31.9500  -10.8150  104.0840 N.ar   13  G13        -0.1709
    272  C2        33.1750  -11.3070  104.4530 C.ar   13  G13         0.2606
    273  N2        33.1770  -12.5410  104.9770 N.pl3  13  G13        -0.0859
    274  N3        34.3100  -10.6400  104.3190 N.ar   13  G13        -0.1918
    275  C4        34.1160   -9.4190  103.7750 C.ar   13  G13         0.1723
    276  C5        32.9330   -8.8350  103.3730 C.ar   13  G13         0.1748
    277  C6        31.7240   -9.5620  103.5230 C.ar   13  G13         0.3023
    278  O6        30.5720   -9.2160  103.2260 O.2    13  G13        -0.2633
    279  N7        33.1550   -7.5630  102.8620 N.ar   13  G13        -0.2173
    280  C8        34.4430   -7.3980  102.9610 C.ar   13  G13         0.1817
    281  N9        35.0860   -8.4820  103.5060 N.ar   13  G13        -0.2693
    282  OP1       37.8710   -4.0370   99.7040 O.2    13  G13        -0.5172
    283  OP2       35.3200   -4.3870   99.7590 O.co2  13  G13        -0.4373
    284  P         38.4520   -9.5270   99.4530 P.3    14  C14         0.2141
    285  C5'       38.5950  -11.9300  100.4820 C.3    14  C14         0.1812
    286  O5'       37.8110  -10.9330   99.8450 O.3    14  C14        -0.3114
    287  C4'       37.7690  -13.1240  100.8910 C.3    14  C14         0.1773
    288  O4'       36.7580  -12.7320  101.8590 O.3    14  C14        -0.3307
    289  C3'       36.9660  -13.8010   99.7950 C.3    14  C14         0.1860
    290  O3'       37.7380  -14.6300   98.9440 O.3    14  C14        -0.3112
    291  C2'       35.9110  -14.5530  100.5930 C.3    14  C14         0.2309
    292  O2'       36.4640  -15.7190  101.1870 O.3    14  C14        -0.2156
    293  C1'       35.6110  -13.5460  101.7040 C.3    14  C14         0.2420
    294  N1        34.4530  -12.6930  101.3570 N.ar   14  C14        -0.2535
    295  C2        33.1680  -13.2240  101.5260 C.ar   14  C14         0.3532
    296  O2        33.0470  -14.3780  101.9710 O.2    14  C14        -0.2443
    297  N3        32.0900  -12.4690  101.2080 N.ar   14  C14        -0.1739
    298  C4        32.2610  -11.2350  100.7320 C.ar   14  C14         0.1759
    299  N4        31.1730  -10.5230  100.4310 N.pl3  14  C14        -0.1070
    300  C5        33.5560  -10.6710  100.5440 C.ar   14  C14         0.0566
    301  C6        34.6140  -11.4260  100.8620 C.ar   14  C14         0.0850
    302  OP1       39.7530   -9.7900   98.7860 O.3    14  C14        -0.4373
    303  OP2       37.4220   -8.7200   98.7500 O.co2  14  C14        -0.5172
    304  P         37.2830  -14.8410   97.4170 P.3    15  G15         0.2141
    305  C5'       35.9350  -17.0050   98.0220 C.3    15  G15         0.1812
    306  O5'       35.9280  -15.6730   97.5320 O.3    15  G15        -0.3114
    307  C4'       34.5400  -17.5580   98.1770 C.3    15  G15         0.1773
    308  O4'       33.7790  -16.7520   99.1130 O.3    15  G15        -0.3307
    309  C3'       33.6750  -17.5750   96.9280 C.3    15  G15         0.1860
    310  O3'       33.9810  -18.6460   96.0540 O.3    15  G15        -0.3112
    311  C2'       32.2680  -17.6460   97.5080 C.3    15  G15         0.2309
    312  O2'       31.9600  -18.9710   97.9130 O.3    15  G15        -0.2156
    313  C1'       32.4100  -16.7760   98.7590 C.3    15  G15         0.2408
    314  N1        28.3240  -13.7900   98.5050 N.ar   15  G15        -0.1709
    315  C2        28.4180  -15.1350   98.7620 C.ar   15  G15         0.2606
    316  N2        27.2630  -15.7800   98.9840 N.pl3  15  G15        -0.0859
    317  N3        29.5610  -15.7980   98.8000 N.ar   15  G15        -0.1918
    318  C4        30.6220  -14.9980   98.5560 C.ar   15  G15         0.1723
    319  C5        30.6390  -13.6460   98.2880 C.ar   15  G15         0.1748
    320  C6        29.4020  -12.9470   98.2520 C.ar   15  G15         0.3023
    321  O6        29.1980  -11.7480   98.0310 O.2    15  G15        -0.2633
    322  N7        31.9430  -13.2040   98.0950 N.ar   15  G15        -0.2173
    323  C8        32.6770  -14.2740   98.2460 C.ar   15  G15         0.1817
    324  N9        31.9370  -15.3970   98.5300 N.ar   15  G15        -0.2693
    325  OP1       38.2930  -15.6930   96.7380 O.2    15  G15        -0.5172
    326  OP2       36.9600  -13.5050   96.8530 O.co2  15  G15        -0.4373
    327  P         33.9680  -18.4160   94.4630 P.3    16  A16         0.2141
    328  C5'       31.4180  -19.0240   94.3270 C.3    16  A16         0.1812
    329  O5'       32.4510  -18.0650   94.1280 O.3    16  A16        -0.3114
    330  C4'       30.3700  -18.9470   93.2450 C.3    16  A16         0.1773
    331  O4'       31.0140  -19.1360   91.9560 O.3    16  A16        -0.3307
    332  C3'       29.2770  -20.0100   93.3350 C.3    16  A16         0.1860
    333  O3'       28.0440  -19.4810   92.8470 O.3    16  A16        -0.3112
    334  C2'       29.7840  -21.0930   92.3900 C.3    16  A16         0.2309
    335  O2'       28.7790  -21.9280   91.8550 O.3    16  A16        -0.2156
    336  C1'       30.4630  -20.2640   91.3040 C.3    16  A16         0.2408
    337  N1        31.6620  -23.1950   87.2790 N.ar   16  A16        -0.2040
    338  C2        30.5130  -22.6480   87.6940 C.ar   16  A16         0.2016
    339  N3        30.2750  -21.8900   88.7590 N.ar   16  A16        -0.2048
    340  C4        31.4050  -21.6960   89.4570 C.ar   16  A16         0.1692
    341  C5        32.6620  -22.1930   89.1650 C.ar   16  A16         0.1518
    342  C6        32.7800  -22.9820   88.0080 C.ar   16  A16         0.1919
    343  N6        33.9280  -23.5280   87.5970 N.pl3  16  A16        -0.1054
    344  N7        33.5820  -21.7830   90.1200 N.ar   16  A16        -0.2193
    345  C8        32.8710  -21.0640   90.9570 C.ar   16  A16         0.1816
    346  N9        31.5430  -20.9740   90.6150 N.ar   16  A16        -0.2693
    347  OP1       34.2750  -19.7140   93.8110 O.2    16  A16        -0.5172
    348  OP2       34.7930  -17.2150   94.1700 O.co2  16  A16        -0.4373
    349  P         26.6500  -20.0380   93.4250 P.3    17  A17         0.2141
    350  C5'       24.8190  -18.6970   94.7530 C.3    17  A17         0.1812
    351  O5'       26.1910  -18.9190   94.4610 O.3    17  A17        -0.3114
    352  C4'       24.5820  -17.2520   95.1020 C.3    17  A17         0.1773
    353  O4'       25.5080  -16.8610   96.1500 O.3    17  A17        -0.3307
    354  C3'       24.8440  -16.2660   93.9720 C.3    17  A17         0.1860
    355  O3'       23.7130  -16.0940   93.1350 O.3    17  A17        -0.3112
    356  C2'       25.2520  -14.9980   94.7070 C.3    17  A17         0.2309
    357  O2'       24.1040  -14.3170   95.1910 O.3    17  A17        -0.2156
    358  C1'       26.0110  -15.5690   95.9000 C.3    17  A17         0.2408
    359  N1        30.4890  -13.1840   94.7850 N.ar   17  A17        -0.2040
    360  C2        29.2420  -12.7140   94.9260 C.ar   17  A17         0.2016
    361  N3        28.1190  -13.3720   95.2130 N.ar   17  A17        -0.2048
    362  C4        28.3630  -14.6860   95.3670 C.ar   17  A17         0.1692
    363  C5        29.5910  -15.3130   95.2520 C.ar   17  A17         0.1518
    364  C6        30.7000  -14.5080   94.9460 C.ar   17  A17         0.1919
    365  N6        31.9390  -14.9830   94.8070 N.pl3  17  A17        -0.1054
    366  N7        29.4720  -16.6750   95.4750 N.ar   17  A17        -0.2193
    367  C8        28.1970  -16.8430   95.7140 C.ar   17  A17         0.1816
    368  N9        27.4630  -15.6850   95.6580 N.ar   17  A17        -0.2693
    369  OP1       26.9560  -21.2700   94.1960 O.3    17  A17        -0.4373
    370  OP2       25.6570  -20.0910   92.3190 O.co2  17  A17        -0.5172
    371  P         23.8510  -15.3660   91.7090 P.3    18  C18         0.2141
    372  C5'       24.6320  -12.9290   91.0920 C.3    18  C18         0.1812
    373  O5'       24.1920  -13.8540   92.0780 O.3    18  C18        -0.3114
    374  C4'       25.4330  -11.8130   91.7150 C.3    18  C18         0.1773
    375  O4'       26.6100  -12.3790   92.3520 O.3    18  C18        -0.3307
    376  C3'       25.9430  -10.7590   90.7410 C.3    18  C18         0.1860
    377  O3'       26.0090   -9.4960   91.4030 O.3    18  C18        -0.3112
    378  C2'       27.3520  -11.2500   90.4260 C.3    18  C18         0.2309
    379  O2'       28.2410  -10.2440   89.9880 O.3    18  C18        -0.2156
    380  C1'       27.7820  -11.8440   91.7650 C.3    18  C18         0.2420
    381  N1        28.7560  -12.9380   91.6400 N.ar   18  C18        -0.2535
    382  C2        30.1230  -12.6550   91.5550 C.ar   18  C18         0.3532
    383  O2        30.4980  -11.4720   91.5760 O.2    18  C18        -0.2443
    384  N3        31.0040  -13.6790   91.4400 N.ar   18  C18        -0.1739
    385  C4        30.5670  -14.9400   91.4180 C.ar   18  C18         0.1759
    386  N4        31.4670  -15.9190   91.3070 N.pl3  18  C18        -0.1070
    387  C5        29.1810  -15.2540   91.5090 C.ar   18  C18         0.0566
    388  C6        28.3210  -14.2330   91.6190 C.ar   18  C18         0.0850
    389  OP1       22.5060  -15.3650   91.0790 O.3    18  C18        -0.4373
    390  OP2       25.0100  -15.9670   91.0000 O.co2  18  C18        -0.5172
    391  P         24.9960   -8.3160   90.9970 P.3    19  A19         0.2141
    392  C5'       25.5410   -6.5940   92.9060 C.3    19  A19         0.1812
    393  O5'       25.6990   -6.9970   91.5500 O.3    19  A19        -0.3114
    394  C4'       26.6190   -5.6260   93.3280 C.3    19  A19         0.1773
    395  O4'       26.8020   -4.6270   92.2870 O.3    19  A19        -0.3307
    396  C3'       26.3350   -4.8490   94.6130 C.3    19  A19         0.1860
    397  O3'       27.5690   -4.5780   95.2820 O.3    19  A19        -0.3112
    398  C2'       25.7620   -3.5400   94.0820 C.3    19  A19         0.2309
    399  O2'       25.8650   -2.4500   94.9740 O.3    19  A19        -0.2156
    400  C1'       26.6140   -3.3350   92.8340 C.3    19  A19         0.2408
    401  N1        27.5170    0.4840   89.5570 N.ar   19  A19        -0.2040
    402  C2        28.2930   -0.1490   90.4450 C.ar   19  A19         0.2016
    403  N3        27.9780   -1.1450   91.2700 N.ar   19  A19        -0.2048
    404  C4        26.6870   -1.4950   91.1240 C.ar   19  A19         0.1692
    405  C5        25.7660   -0.9380   90.2580 C.ar   19  A19         0.1518
    406  C6        26.2240    0.1070   89.4360 C.ar   19  A19         0.1919
    407  N6        25.4580    0.7440   88.5490 N.pl3  19  A19        -0.1054
    408  N7        24.5330   -1.5640   90.3920 N.ar   19  A19        -0.2193
    409  C8        24.7360   -2.4680   91.3220 C.ar   19  A19         0.1816
    410  N9        26.0180   -2.4760   91.8100 N.ar   19  A19        -0.2693
    411  OP1       23.7270   -8.5190   91.7450 O.3    19  A19        -0.4373
    412  OP2       24.9680   -8.2300   89.5140 O.co2  19  A19        -0.5172
    413  P         28.3450   -5.7410   96.0760 P.3    20  G20         0.2141
    414  C5'       30.5000   -6.0000   94.5950 C.3    20  G20         0.1812
    415  O5'       29.2080   -6.4710   94.9510 O.3    20  G20        -0.3114
    416  C4'       30.5140   -5.3990   93.2100 C.3    20  G20         0.1773
    417  O4'       29.7900   -4.1400   93.2240 O.3    20  G20        -0.3307
    418  C3'       31.8880   -5.0380   92.6600 C.3    20  G20         0.1860
    419  O3'       32.5550   -6.1370   92.0630 O.3    20  G20        -0.3112
    420  C2'       31.5720   -3.9170   91.6810 C.3    20  G20         0.2309
    421  O2'       31.0540   -4.4470   90.4700 O.3    20  G20        -0.2156
    422  C1'       30.4500   -3.1900   92.4140 C.3    20  G20         0.2408
    423  N1        32.8240    1.3390   92.7990 N.ar   20  G20        -0.1709
    424  C2        32.4920    0.6370   91.6670 C.ar   20  G20         0.2606
    425  N2        32.8340    1.2110   90.5030 N.pl3  20  G20        -0.0859
    426  N3        31.8730   -0.5350   91.6780 N.ar   20  G20        -0.1918
    427  C4        31.6070   -0.9580   92.9340 C.ar   20  G20         0.1723
    428  C5        31.9010   -0.3280   94.1260 C.ar   20  G20         0.1748
    429  C6        32.5620    0.9260   94.0990 C.ar   20  G20         0.3023
    430  O6        32.9030    1.6340   95.0520 O.2    20  G20        -0.2633
    431  N7        31.4670   -1.0780   95.2080 N.ar   20  G20        -0.2173
    432  C8        30.9280   -2.1340   94.6680 C.ar   20  G20         0.1817
    433  N9        30.9750   -2.1300   93.2960 N.ar   20  G20        -0.2693
    434  OP1       27.3440   -6.7100   96.5880 O.2    20  G20        -0.5172
    435  OP2       29.2850   -5.0900   97.0230 O.co2  20  G20        -0.4373
    436  P         34.1610   -6.1610   91.9710 P.3    21  G21         0.2141
    437  C5'       34.2450   -4.9800   89.6250 C.3    21  G21         0.1812
    438  O5'       34.5190   -4.9350   91.0190 O.3    21  G21        -0.3114
    439  C4'       34.8550   -3.8020   88.9100 C.3    21  G21         0.1773
    440  O4'       34.2590   -2.5700   89.3970 O.3    21  G21        -0.3307
    441  C3'       36.3460   -3.6090   89.1330 C.3    21  G21         0.1860
    442  O3'       37.1340   -4.4360   88.2940 O.3    21  G21        -0.3112
    443  C2'       36.5340   -2.1180   88.8920 C.3    21  G21         0.2309
    444  O2'       36.5640   -1.8320   87.5010 O.3    21  G21        -0.2156
    445  C1'       35.2370   -1.5550   89.4740 C.3    21  G21         0.2408
    446  N1        36.7890    1.9860   92.8110 N.ar   21  G21        -0.1709
    447  C2        36.8360    2.0060   91.4390 C.ar   21  G21         0.2606
    448  N2        37.3590    3.1080   90.8840 N.pl3  21  G21        -0.0859
    449  N3        36.4000    1.0230   90.6690 N.ar   21  G21        -0.1918
    450  C4        35.9070   -0.0020   91.3940 C.ar   21  G21         0.1723
    451  C5        35.8150   -0.1200   92.7680 C.ar   21  G21         0.1748
    452  C6        36.2850    0.9440   93.5810 C.ar   21  G21         0.3023
    453  O6        36.2920    1.0290   94.8150 O.2    21  G21        -0.2633
    454  N7        35.2440   -1.3340   93.1210 N.ar   21  G21        -0.2173
    455  C8        35.0040   -1.9200   91.9800 C.ar   21  G21         0.1817
    456  N9        35.3830   -1.1700   90.8920 N.ar   21  G21        -0.2693
    457  OP1       34.5730   -7.4050   91.2740 O.2    21  G21        -0.5172
    458  OP2       34.7000   -5.8670   93.3230 O.co2  21  G21        -0.4373
    459  P         38.5250   -5.0280   88.8300 P.3    22  U22         0.2141
    460  C5'       39.7190   -3.0860   87.5490 C.3    22  U22         0.1812
    461  O5'       39.5070   -3.7760   88.7710 O.3    22  U22        -0.3114
    462  C4'       40.4790   -1.8030   87.7590 C.3    22  U22         0.1773
    463  O4'       39.6430   -0.8240   88.4310 O.3    22  U22        -0.3307
    464  C3'       41.7040   -1.8910   88.6480 C.3    22  U22         0.1860
    465  O3'       42.8310   -2.4660   88.0140 O.3    22  U22        -0.3112
    466  C2'       41.8970   -0.4430   89.0720 C.3    22  U22         0.2309
    467  O2'       42.4720    0.3160   88.0200 O.3    22  U22        -0.2156
    468  C1'       40.4460    0.0030   89.2530 C.3    22  U22         0.2420
    469  N1        40.0090   -0.1380   90.6620 N.ar   22  U22        -0.2534
    470  C2        40.3480    0.8810   91.5350 C.ar   22  U22         0.3546
    471  O2        40.9680    1.8720   91.1870 O.2    22  U22        -0.2443
    472  N3        39.9330    0.7040   92.8330 N.ar   22  U22        -0.1530
    473  C4        39.2310   -0.3690   93.3400 C.ar   22  U22         0.2846
    474  O4        38.9280   -0.3830   94.5350 O.2    22  U22        -0.2650
    475  C5        38.9220   -1.3840   92.3790 C.ar   22  U22         0.0814
    476  C6        39.3120   -1.2390   91.1070 C.ar   22  U22         0.0870
    477  OP1       39.0090   -6.0380   87.8550 O.2    22  U22        -0.5172
    478  OP2       38.3390   -5.4210   90.2500 O.co2  22  U22        -0.4373
    479  P         43.8440   -3.3680   88.8760 P.3    23  G23         0.2141
    480  C5'       45.3770   -1.2530   89.0410 C.3    23  G23         0.1812
    481  O5'       44.6850   -2.2990   89.7050 O.3    23  G23        -0.3114
    482  C4'       45.7570   -0.1430   89.9880 C.3    23  G23         0.1773
    483  O4'       44.5670    0.4940   90.5220 O.3    23  G23        -0.3307
    484  C3'       46.5280   -0.5590   91.2270 C.3    23  G23         0.1860
    485  O3'       47.9010   -0.7970   90.9810 O.3    23  G23        -0.3112
    486  C2'       46.2630    0.6000   92.1800 C.3    23  G23         0.2309
    487  O2'       47.0660    1.7210   91.8440 O.3    23  G23        -0.2156
    488  C1'       44.8090    0.9310   91.8450 C.3    23  G23         0.2408
    489  N1        42.6030    0.9710   96.4370 N.ar   23  G23        -0.1709
    490  C2        43.5010    1.8530   95.8900 C.ar   23  G23         0.2606
    491  N2        43.8610    2.8840   96.6680 N.pl3  23  G23        -0.0859
    492  N3        44.0070    1.7350   94.6740 N.ar   23  G23        -0.1918
    493  C4        43.5360    0.6430   94.0330 C.ar   23  G23         0.1723
    494  C5        42.6380   -0.2990   94.4900 C.ar   23  G23         0.1748
    495  C6        42.1020   -0.1580   95.7990 C.ar   23  G23         0.3023
    496  O6        41.2940   -0.8840   96.3910 O.2    23  G23        -0.2633
    497  N7        42.4140   -1.2690   93.5220 N.ar   23  G23        -0.2173
    498  C8        43.1630   -0.9070   92.5150 C.ar   23  G23         0.1817
    499  N9        43.8690    0.2480   92.7560 N.ar   23  G23        -0.2693
    500  OP1       44.7670   -4.0700   87.9490 O.2    23  G23        -0.5172
    501  OP2       43.0310   -4.1590   89.8360 O.co2  23  G23        -0.4373
    502  P         48.7710   -1.5990   92.0660 P.3    24  G24         0.2141
    503  C5'       49.2570   -0.9370   94.5590 C.3    24  G24         0.1812
    504  O5'       48.9950   -0.5310   93.2260 O.3    24  G24        -0.3114
    505  C4'       48.9220    0.1550   95.5440 C.3    24  G24         0.1773
    506  O4'       47.5010    0.4470   95.4920 O.3    24  G24        -0.3307
    507  C3'       49.1850   -0.1760   97.0030 C.3    24  G24         0.1860
    508  O3'       50.5400    0.0200   97.3650 O.3    24  G24        -0.3112
    509  C2'       48.2150    0.7390   97.7400 C.3    24  G24         0.2309
    510  O2'       48.7330    2.0590   97.8230 O.3    24  G24        -0.2156
    511  C1'       47.0200    0.7470   96.7860 C.3    24  G24         0.2408
    512  N1        43.6500   -1.0010  100.2460 N.ar   24  G24        -0.1709
    513  C2        44.4970    0.0740  100.3400 C.ar   24  G24         0.2606
    514  N2        44.4370    0.7640  101.4880 N.pl3  24  G24        -0.0859
    515  N3        45.3350    0.4460   99.3840 N.ar   24  G24        -0.1918
    516  C4        45.2600   -0.3600   98.3030 C.ar   24  G24         0.1723
    517  C5        44.4460   -1.4610   98.1160 C.ar   24  G24         0.1748
    518  C6        43.5510   -1.8460   99.1480 C.ar   24  G24         0.3023
    519  O6        42.7530   -2.7940   99.1650 O.2    24  G24        -0.2633
    520  N7        44.6610   -2.0310   96.8710 N.ar   24  G24        -0.2173
    521  C8        45.5820   -1.2850   96.3320 C.ar   24  G24         0.1817
    522  N9        45.9990   -0.2580   97.1420 N.ar   24  G24        -0.2693
    523  OP1       50.0910   -1.9190   91.4620 O.2    24  G24        -0.5172
    524  OP2       47.9240   -2.6940   92.6080 O.co2  24  G24        -0.4373
    525  P         51.4550   -1.2330   97.7770 P.3    25  G25         0.2141
    526  C5'       51.1700   -2.0450  100.2520 C.3    25  G25         0.1812
    527  O5'       51.6420   -1.0600   99.3480 O.3    25  G25        -0.3114
    528  C4'       49.9860   -1.5490  101.0410 C.3    25  G25         0.1773
    529  O4'       48.8600   -1.3320  100.1520 O.3    25  G25        -0.3307
    530  C3'       49.4590   -2.5090  102.0960 C.3    25  G25         0.1860
    531  O3'       50.1780   -2.4080  103.3120 O.3    25  G25        -0.3112
    532  C2'       47.9950   -2.1090  102.2240 C.3    25  G25         0.2309
    533  O2'       47.8610   -0.9660  103.0550 O.3    25  G25        -0.2156
    534  C1'       47.6580   -1.7040  100.7890 C.3    25  G25         0.2408
    535  N1        44.0140   -5.3340  100.3760 N.ar   25  G25        -0.1709
    536  C2        44.2420   -4.4720  101.4180 C.ar   25  G25         0.2606
    537  N2        43.4090   -4.5850  102.4630 N.pl3  25  G25        -0.0859
    538  N3        45.2100   -3.5670  101.4360 N.ar   25  G25        -0.1918
    539  C4        45.9530   -3.5900  100.3060 C.ar   25  G25         0.1723
    540  C5        45.8000   -4.4180   99.2100 C.ar   25  G25         0.1748
    541  C6        44.7590   -5.3790   99.2030 C.ar   25  G25         0.3023
    542  O6        44.4780   -6.1950   98.3170 O.2    25  G25        -0.2633
    543  N7        46.7510   -4.1470   98.2400 N.ar   25  G25        -0.2173
    544  C8        47.4550   -3.1780   98.7510 C.ar   25  G25         0.1817
    545  N9        47.0400   -2.7920  100.0030 N.ar   25  G25        -0.2693
    546  OP1       52.7850   -1.0660   97.1380 O.2    25  G25        -0.5172
    547  OP2       50.6760   -2.4750   97.5330 O.co2  25  G25        -0.4373
    548  P         51.2690   -3.5170  103.7070 P.3    26  A26         0.2141
    549  C5'       49.7110   -3.8160  105.7860 C.3    26  A26         0.1812
    550  O5'       50.5110   -4.4180  104.7750 O.3    26  A26        -0.3114
    551  C4'       48.5140   -4.6630  106.1330 C.3    26  A26         0.1773
    552  O4'       47.6900   -4.8560  104.9470 O.3    26  A26        -0.3307
    553  C3'       48.8320   -6.0620  106.6590 C.3    26  A26         0.1860
    554  O3'       47.8330   -6.4260  107.6060 O.3    26  A26        -0.3112
    555  C2'       48.6790   -6.9270  105.4140 C.3    26  A26         0.2309
    556  O2'       48.4110   -8.2900  105.6690 O.3    26  A26        -0.2156
    557  C1'       47.5100   -6.2410  104.7190 C.3    26  A26         0.2408
    558  N1        45.1390   -8.8630  101.0060 N.ar   26  A26        -0.2040
    559  C2        44.9840   -8.8360  102.3360 C.ar   26  A26         0.2016
    560  N3        45.6430   -8.1220  103.2450 N.ar   26  A26        -0.2048
    561  C4        46.5720   -7.3470  102.6580 C.ar   26  A26         0.1692
    562  C5        46.8530   -7.2660  101.3060 C.ar   26  A26         0.1518
    563  C6        46.0840   -8.0740  100.4490 C.ar   26  A26         0.1919
    564  N6        46.2370   -8.1020   99.1230 N.pl3  26  A26        -0.1054
    565  N7        47.8800   -6.3600  101.0750 N.ar   26  A26        -0.2193
    566  C8        48.1930   -5.9240  102.2720 C.ar   26  A26         0.1816
    567  N9        47.4420   -6.4830  103.2760 N.ar   26  A26        -0.2693
    568  OP1       52.3850   -2.8260  104.4040 O.3    26  A26        -0.4373
    569  OP2       51.5480   -4.3520  102.5100 O.co2  26  A26        -0.5172
    570  P         48.1410   -7.5100  108.7480 P.3    27  A27         0.2141
    571  C5'       46.0230   -6.5990  110.0000 C.3    27  A27         0.1812
    572  O5'       46.7250   -7.7080  109.4480 O.3    27  A27        -0.3114
    573  C4'       44.9580   -6.0770  109.0640 C.3    27  A27         0.1773
    574  O4'       44.4310   -7.1770  108.2660 O.3    27  A27        -0.3307
    575  C3'       43.7510   -5.4420  109.7550 C.3    27  A27         0.1860
    576  O3'       43.2280   -4.3960  108.9350 O.3    27  A27        -0.3112
    577  C2'       42.7620   -6.6020  109.8020 C.3    27  A27         0.2309
    578  O2'       41.4080   -6.2340  109.9470 O.3    27  A27        -0.2156
    579  C1'       43.0320   -7.2710  108.4600 C.3    27  A27         0.2408
    580  N1        39.9740  -10.6960  106.1610 N.ar   27  A27        -0.2040
    581  C2        40.1410   -9.3770  105.9960 C.ar   27  A27         0.2016
    582  N3        40.9610   -8.5440  106.6330 N.ar   27  A27        -0.2048
    583  C4        41.6860   -9.2050  107.5520 C.ar   27  A27         0.1692
    584  C5        41.6270  -10.5560  107.8410 C.ar   27  A27         0.1518
    585  C6        40.7180  -11.3290  107.0950 C.ar   27  A27         0.1919
    586  N6        40.5500  -12.6440  107.2590 N.pl3  27  A27        -0.1054
    587  N7        42.5220  -10.8770  108.8520 N.ar   27  A27        -0.2193
    588  C8        43.0920   -9.7330  109.1490 C.ar   27  A27         0.1816
    589  N9        42.6320   -8.6790  108.3990 N.ar   27  A27        -0.2693
    590  OP1       49.0820   -6.9130  109.7340 O.3    27  A27        -0.4373
    591  OP2       48.5020   -8.7860  108.0780 O.co2  27  A27        -0.5172
    592  P         42.0560   -3.4400  109.4850 P.3    28  A28         0.2141
    593  C5'       40.4470   -3.7530  107.4360 C.3    28  A28         0.1812
    594  O5'       40.7360   -4.0220  108.8010 O.3    28  A28        -0.3114
    595  C4'       39.1990   -4.4610  106.9590 C.3    28  A28         0.1773
    596  O4'       39.4040   -5.8910  106.9480 O.3    28  A28        -0.3307
    597  C3'       37.9360   -4.2680  107.7860 C.3    28  A28         0.1860
    598  O3'       37.2680   -3.0600  107.4610 O.3    28  A28        -0.3112
    599  C2'       37.0990   -5.5040  107.4450 C.3    28  A28         0.2309
    600  O2'       36.2930   -5.2720  106.3010 O.3    28  A28        -0.2156
    601  C1'       38.1650   -6.5490  107.0910 C.3    28  A28         0.2408
    602  N1        36.2770  -11.0710  108.5890 N.ar   28  A28        -0.2040
    603  C2        35.9670  -10.2440  107.5820 C.ar   28  A28         0.2016
    604  N3        36.5080   -9.0730  107.2570 N.ar   28  A28        -0.2048
    605  C4        37.4960   -8.7580  108.1100 C.ar   28  A28         0.1692
    606  C5        37.9340   -9.5030  109.1890 C.ar   28  A28         0.1518
    607  C6        37.2770  -10.7240  109.4270 C.ar   28  A28         0.1919
    608  N6        37.5850  -11.5510  110.4280 N.pl3  28  A28        -0.1054
    609  N7        38.9760   -8.8560  109.8360 N.ar   28  A28        -0.2193
    610  C8        39.1390   -7.7550  109.1440 C.ar   28  A28         0.1816
    611  N9        38.2770   -7.6300  108.0890 N.ar   28  A28        -0.2693
    612  OP1       42.2940   -2.0660  108.9730 O.2    28  A28        -0.5172
    613  OP2       41.9380   -3.6750  110.9490 O.co2  28  A28        -0.4373
    614  P         37.0390   -1.9130  108.5620 P.3    29  C29         0.2141
    615  C5'       38.3840   -0.0660  107.2750 C.3    29  C29         0.1812
    616  O5'       38.2980   -0.9550  108.3790 O.3    29  C29        -0.3114
    617  C4'       39.8090    0.3480  107.0080 C.3    29  C29         0.1773
    618  O4'       40.5650   -0.7860  106.5120 O.3    29  C29        -0.3307
    619  C3'       40.0040    1.4140  105.9430 C.3    29  C29         0.1860
    620  O3'       39.7790    2.7240  106.4310 O.3    29  C29        -0.3112
    621  C2'       41.4360    1.1720  105.4890 C.3    29  C29         0.2309
    622  O2'       42.3550    1.7210  106.4220 O.3    29  C29        -0.2156
    623  C1'       41.5240   -0.3530  105.5700 C.3    29  C29         0.2420
    624  N1        41.2400   -1.0050  104.2690 N.ar   29  C29        -0.2535
    625  C2        42.2220   -1.0150  103.2720 C.ar   29  C29         0.3532
    626  O2        43.3140   -0.4700  103.4910 O.2    29  C29        -0.2443
    627  N3        41.9580   -1.6150  102.0880 N.ar   29  C29        -0.1739
    628  C4        40.7760   -2.1940  101.8790 C.ar   29  C29         0.1759
    629  N4        40.5640   -2.7730  100.6950 N.pl3  29  C29        -0.1070
    630  C5        39.7580   -2.2040  102.8750 C.ar   29  C29         0.0566
    631  C6        40.0330   -1.6060  104.0420 C.ar   29  C29         0.0850
    632  OP1       37.1070   -2.5290  109.9100 O.3    29  C29        -0.4373
    633  OP2       35.8290   -1.1470  108.1630 O.co2  29  C29        -0.5172
    634  P         39.0840    3.8270  105.4940 P.3    30  C30         0.2141
    635  C5'       41.4550    4.8020  104.9480 C.3    30  C30         0.1812
    636  O5'       40.2370    4.2460  104.4780 O.3    30  C30        -0.3114
    637  C4'       42.3600    5.1820  103.8050 C.3    30  C30         0.1773
    638  O4'       42.9920    3.9950  103.2580 O.3    30  C30        -0.3307
    639  C3'       41.6740    5.8150  102.6070 C.3    30  C30         0.1860
    640  O3'       41.3950    7.1900  102.7860 O.3    30  C30        -0.3112
    641  C2'       42.6490    5.5260  101.4750 C.3    30  C30         0.2309
    642  O2'       43.7460    6.4260  101.5170 O.3    30  C30        -0.2156
    643  C1'       43.1520    4.1350  101.8610 C.3    30  C30         0.2420
    644  N1        42.3870    3.0600  101.1880 N.ar   30  C30        -0.2535
    645  C2        42.6900    2.7410   99.8620 C.ar   30  C30         0.3532
    646  O2        43.5910    3.3640   99.2810 O.2    30  C30        -0.2443
    647  N3        41.9960    1.7570   99.2450 N.ar   30  C30        -0.1739
    648  C4        41.0350    1.1040   99.8980 C.ar   30  C30         0.1759
    649  N4        40.3770    0.1430   99.2490 N.pl3  30  C30        -0.1070
    650  C5        40.7040    1.4070  101.2490 C.ar   30  C30         0.0566
    651  C6        41.4000    2.3810  101.8490 C.ar   30  C30         0.0850
    652  OP1       38.7670    5.0070  106.3370 O.3    30  C30        -0.4373
    653  OP2       38.0060    3.1610  104.7210 O.co2  30  C30        -0.5172
    654  P         40.1140    7.8420  102.0730 P.3    31  A31         0.2141
    655  C5'       41.6690    8.7790  100.1860 C.3    31  A31         0.1812
    656  O5'       40.5560    7.9770  100.5500 O.3    31  A31        -0.3114
    657  C4'       41.9790    8.6600   98.7160 C.3    31  A31         0.1773
    658  O4'       42.5090    7.3410   98.4260 O.3    31  A31        -0.3307
    659  C3'       40.7940    8.7920   97.7770 C.3    31  A31         0.1860
    660  O3'       40.4190   10.1380   97.5480 O.3    31  A31        -0.3112
    661  C2'       41.2770    8.0680   96.5280 C.3    31  A31         0.2309
    662  O2'       42.1490    8.8960   95.7730 O.3    31  A31        -0.2156
    663  C1'       42.0990    6.9310   97.1380 C.3    31  A31         0.2408
    664  N1        40.4410    2.6880   94.7310 N.ar   31  A31        -0.2040
    665  C2        41.1880    3.7220   94.3240 C.ar   31  A31         0.2016
    666  N3        41.5810    4.7940   95.0070 N.ar   31  A31        -0.2048
    667  C4        41.1180    4.7530   96.2680 C.ar   31  A31         0.1692
    668  C5        40.3400    3.7600   96.8330 C.ar   31  A31         0.1518
    669  C6        39.9920    2.6770   96.0060 C.ar   31  A31         0.1919
    670  N6        39.2470    1.6470   96.4120 N.pl3  31  A31        -0.1054
    671  N7        40.0540    4.0560   98.1590 N.ar   31  A31        -0.2193
    672  C8        40.6560    5.2030   98.3630 C.ar   31  A31         0.1816
    673  N9        41.3200    5.6830   97.2600 N.ar   31  A31        -0.2693
    674  OP1       39.9230    9.2100  102.6190 O.3    31  A31        -0.4373
    675  OP2       39.0060    6.8560  102.1520 O.co2  31  A31        -0.5172
    676  P         38.8730   10.5120   97.3380 P.3    32  C32         0.2141
    677  C5'       39.3430   10.7230   94.7700 C.3    32  C32         0.1812
    678  O5'       38.5950   10.1250   95.8180 O.3    32  C32        -0.3114
    679  C4'       39.2080    9.9500   93.4830 C.3    32  C32         0.1773
    680  O4'       39.7840    8.6270   93.6370 O.3    32  C32        -0.3307
    681  C3'       37.7900    9.6770   93.0120 C.3    32  C32         0.1860
    682  O3'       37.1960   10.7870   92.3630 O.3    32  C32        -0.3112
    683  C2'       37.9740    8.4660   92.1060 C.3    32  C32         0.2309
    684  O2'       38.4840    8.8620   90.8410 O.3    32  C32        -0.2156
    685  C1'       39.0680    7.6980   92.8480 C.3    32  C32         0.2420
    686  N1        38.5110    6.6430   93.7260 N.ar   32  C32        -0.2535
    687  C2        38.2070    5.4000   93.1610 C.ar   32  C32         0.3532
    688  O2        38.4170    5.2210   91.9520 O.2    32  C32        -0.2443
    689  N3        37.6950    4.4220   93.9450 N.ar   32  C32        -0.1739
    690  C4        37.4830    4.6490   95.2420 C.ar   32  C32         0.1759
    691  N4        36.9780    3.6560   95.9770 N.pl3  32  C32        -0.1070
    692  C5        37.7820    5.9060   95.8440 C.ar   32  C32         0.0566
    693  C6        38.2870    6.8640   95.0570 C.ar   32  C32         0.0850
    694  OP1       38.7370   11.9840   97.4690 O.2    32  C32        -0.5172
    695  OP2       38.0620    9.6110   98.1980 O.co2  32  C32        -0.4373
    696  P         35.6030   10.9950   92.4170 P.3    33  C33         0.2141
    697  C5'       35.2950    9.7790   90.1210 C.3    33  C33         0.1812
    698  O5'       35.0300    9.8150   91.5140 O.3    33  C33        -0.3114
    699  C4'       34.9010    8.4590   89.5110 C.3    33  C33         0.1773
    700  O4'       35.6700    7.3810   90.1040 O.3    33  C33        -0.3307
    701  C3'       33.4620    8.0250   89.7190 C.3    33  C33         0.1860
    702  O3'       32.5440    8.6920   88.8730 O.3    33  C33        -0.3112
    703  C2'       33.5450    6.5240   89.4810 C.3    33  C33         0.2309
    704  O2'       33.6350    6.2430   88.0920 O.3    33  C33        -0.2156
    705  C1'       34.8930    6.1990   90.1250 C.3    33  C33         0.2420
    706  N1        34.7300    5.7430   91.5250 N.ar   33  C33        -0.2535
    707  C2        34.4630    4.3890   91.7450 C.ar   33  C33         0.3532
    708  O2        34.3850    3.6250   90.7720 O.2    33  C33        -0.2443
    709  N3        34.3010    3.9420   93.0100 N.ar   33  C33        -0.1739
    710  C4        34.3900    4.7900   94.0330 C.ar   33  C33         0.1759
    711  N4        34.2210    4.2990   95.2610 N.pl3  33  C33        -0.1070
    712  C5        34.6560    6.1760   93.8420 C.ar   33  C33         0.0566
    713  C6        34.8160    6.6060   92.5830 C.ar   33  C33         0.0850
    714  OP1       35.2860   12.2760   91.7350 O.2    33  C33        -0.5172
    715  OP2       35.1500   10.7690   93.8130 O.co2  33  C33        -0.4373
    716  P         31.0420    8.9630   89.3750 P.3    34  G34         0.2141
    717  C5'       30.3100    6.7550   88.1670 C.3    34  G34         0.1812
    718  O5'       30.3660    7.5200   89.3610 O.3    34  G34        -0.3114
    719  C4'       29.9180    5.3250   88.4410 C.3    34  G34         0.1773
    720  O4'       30.9180    4.6770   89.2720 O.3    34  G34        -0.3307
    721  C3'       28.6280    5.1220   89.2120 C.3    34  G34         0.1860
    722  O3'       27.4700    5.2830   88.4170 O.3    34  G34        -0.3112
    723  C2'       28.8030    3.7160   89.7660 C.3    34  G34         0.2309
    724  O2'       28.5800    2.7490   88.7510 O.3    34  G34        -0.2156
    725  C1'       30.2940    3.7190   90.1060 C.3    34  G34         0.2408
    726  N1        29.7000    2.3090   94.9640 N.ar   34  G34        -0.1709
    727  C2        29.3210    1.6630   93.8100 C.ar   34  G34         0.2606
    728  N2        28.7010    0.4820   93.9610 N.pl3  34  G34        -0.0859
    729  N3        29.5360    2.1370   92.5950 N.ar   34  G34        -0.1918
    730  C4        30.1690    3.3300   92.6190 C.ar   34  G34         0.1723
    731  C5        30.5870    4.0560   93.7150 C.ar   34  G34         0.1748
    732  C6        30.3540    3.5370   95.0150 C.ar   34  G34         0.3023
    733  O6        30.6530    4.0380   96.1070 O.2    34  G34        -0.2633
    734  N7        31.1990    5.2340   93.3150 N.ar   34  G34        -0.2173
    735  C8        31.1430    5.2060   92.0100 C.ar   34  G34         0.1817
    736  N9        30.5310    4.0770   91.5200 N.ar   34  G34        -0.2693
    737  OP1       30.3610    9.8000   88.3540 O.2    34  G34        -0.5172
    738  OP2       31.0990    9.4200   90.7870 O.co2  34  G34        -0.4373
    739  P         26.2630    6.2000   88.9470 P.3    35  G35         0.2141
    740  C5'       25.0910    3.9730   89.6560 C.3    35  G35         0.1812
    741  O5'       25.5260    5.2760   90.0150 O.3    35  G35        -0.3114
    742  C4'       24.8890    3.0900   90.8610 C.3    35  G35         0.1773
    743  O4'       26.1450    2.8910   91.5620 O.3    35  G35        -0.3307
    744  C3'       23.9570    3.6140   91.9390 C.3    35  G35         0.1860
    745  O3'       22.5860    3.4700   91.6110 O.3    35  G35        -0.3112
    746  C2'       24.3850    2.8050   93.1550 C.3    35  G35         0.2309
    747  O2'       23.8620    1.4870   93.0890 O.3    35  G35        -0.2156
    748  C1'       25.8990    2.7330   92.9460 C.3    35  G35         0.2408
    749  N1        27.5990    4.3150   97.4750 N.ar   35  G35        -0.1709
    750  C2        26.9440    3.1550   97.1500 C.ar   35  G35         0.2606
    751  N2        26.7090    2.3060   98.1610 N.pl3  35  G35        -0.0859
    752  N3        26.5490    2.8540   95.9240 N.ar   35  G35        -0.1918
    753  C4        26.8670    3.8200   95.0340 C.ar   35  G35         0.1723
    754  C5        27.5190    5.0150   95.2600 C.ar   35  G35         0.1748
    755  C6        27.9380    5.3260   96.5810 C.ar   35  G35         0.3023
    756  O6        28.5320    6.3330   96.9870 O.2    35  G35        -0.2633
    757  N7        27.6550    5.7320   94.0790 N.ar   35  G35        -0.2173
    758  C8        27.0930    4.9780   93.1730 C.ar   35  G35         0.1817
    759  N9        26.5980    3.8020   93.6830 N.ar   35  G35        -0.2693
    760  OP1       25.3300    6.4380   87.8160 O.2    35  G35        -0.5172
    761  OP2       26.8610    7.3540   89.6680 O.co2  35  G35        -0.4373
    762  P         21.4750    4.2710   92.4510 P.3    36  G36         0.2141
    763  C5'       21.0920    4.0430   95.0410 C.3    36  G36         0.1812
    764  O5'       21.3270    3.4170   93.7890 O.3    36  G36        -0.3114
    765  C4'       21.5090    3.1520   96.1850 C.3    36  G36         0.1773
    766  O4'       22.9550    3.1530   96.3060 O.3    36  G36        -0.3307
    767  C3'       21.0180    3.5700   97.5620 C.3    36  G36         0.1860
    768  O3'       19.6940    3.1370   97.8210 O.3    36  G36        -0.3112
    769  C2'       22.0510    2.9490   98.4930 C.3    36  G36         0.2309
    770  O2'       21.7850    1.5670   98.6840 O.3    36  G36        -0.2156
    771  C1'       23.3290    3.0840   97.6650 C.3    36  G36         0.2408
    772  N1        25.9010    5.7180  101.2240 N.ar   36  G36        -0.1709
    773  C2        25.2660    4.5100  101.3440 C.ar   36  G36         0.2606
    774  N2        25.3280    3.9420  102.5570 N.pl3  36  G36        -0.0859
    775  N3        24.6230    3.9120  100.3520 N.ar   36  G36        -0.1918
    776  C4        24.6690    4.6330   99.2090 C.ar   36  G36         0.1723
    777  C5        25.2790    5.8520   98.9930 C.ar   36  G36         0.1748
    778  C6        25.9640    6.4790  100.0640 C.ar   36  G36         0.3023
    779  O6        26.5660    7.5600  100.0660 O.2    36  G36        -0.2633
    780  N7        25.1040    6.2720   97.6830 N.ar   36  G36        -0.2173
    781  C8        24.4030    5.3200   97.1350 C.ar   36  G36         0.1817
    782  N9        24.0970    4.2990   98.0010 N.ar   36  G36        -0.2693
    783  OP1       20.1930    4.1960   91.7030 O.2    36  G36        -0.5172
    784  OP2       22.0360    5.6010   92.8090 O.co2  36  G36        -0.4373
    785  P         18.6250    4.1430   98.4720 P.3    37  G37         0.2141
    786  C5'       19.4010    3.4230  100.8710 C.3    37  G37         0.1812
    787  O5'       19.2190    4.4570   99.9150 O.3    37  G37        -0.3114
    788  C4'       20.2040    3.9110  102.0480 C.3    37  G37         0.1773
    789  O4'       21.5660    4.1870  101.6280 O.3    37  G37        -0.3307
    790  C3'       19.7340    5.2180  102.6650 C.3    37  G37         0.1860
    791  O3'       18.6600    5.0460  103.5710 O.3    37  G37        -0.3112
    792  C2'       21.0010    5.7570  103.3130 C.3    37  G37         0.2309
    793  O2'       21.2580    5.0890  104.5390 O.3    37  G37        -0.2156
    794  C1'       22.0580    5.3270  102.2990 C.3    37  G37         0.2408
    795  N1        24.6460    9.5550  101.0980 N.ar   37  G37        -0.1709
    796  C2        24.6980    8.8080  102.2480 C.ar   37  G37         0.2606
    797  N2        25.5450    9.2390  103.1950 N.pl3  37  G37        -0.0859
    798  N3        23.9740    7.7190  102.4520 N.ar   37  G37        -0.1918
    799  C4        23.1800    7.4360  101.3960 C.ar   37  G37         0.1723
    800  C5        23.0580    8.1180  100.2040 C.ar   37  G37         0.1748
    801  C6        23.8400    9.2830   99.9990 C.ar   37  G37         0.3023
    802  O6        23.8720   10.0260   99.0100 O.2    37  G37        -0.2633
    803  N7        22.1330    7.5020   99.3730 N.ar   37  G37        -0.2173
    804  C8        21.7190    6.4750  100.0590 C.ar   37  G37         0.1817
    805  N9        22.3130    6.3730  101.2930 N.ar   37  G37        -0.2693
    806  OP1       17.3570    3.3910   98.6580 O.3    37  G37        -0.4373
    807  OP2       18.6350    5.4060   97.6900 O.co2  37  G37        -0.5172
    808  P         17.3980    6.0390  103.5190 P.3    38  A38         0.2141
    809  C5'       16.5170    5.2130  105.8390 C.3    38  A38         0.1812
    810  O5'       17.0350    6.2720  105.0510 O.3    38  A38        -0.3114
    811  C4'       17.2180    5.1130  107.1700 C.3    38  A38         0.1773
    812  O4'       18.6540    5.0330  106.9710 O.3    38  A38        -0.3307
    813  C3'       17.0530    6.2920  108.1150 C.3    38  A38         0.1860
    814  O3'       15.8140    6.2990  108.8010 O.3    38  A38        -0.3112
    815  C2'       18.2590    6.1430  109.0300 C.3    38  A38         0.2309
    816  O2'       18.0460    5.1090  109.9790 O.3    38  A38        -0.2156
    817  C1'       19.3230    5.6740  108.0380 C.3    38  A38         0.2408
    818  N1        22.9760    9.1600  109.0150 N.ar   38  A38        -0.2040
    819  C2        22.4470    8.1760  109.7550 C.ar   38  A38         0.2016
    820  N3        21.4960    7.3020  109.4320 N.ar   38  A38        -0.2048
    821  C4        21.0630    7.5120  108.1760 C.ar   38  A38         0.1692
    822  C5        21.5060    8.4810  107.2960 C.ar   38  A38         0.1518
    823  C6        22.5170    9.3430  107.7570 C.ar   38  A38         0.1919
    824  N6        23.0430   10.3240  107.0210 N.pl3  38  A38        -0.1054
    825  N7        20.8270    8.3940  106.0890 N.ar   38  A38        -0.2193
    826  C8        20.0010    7.3900  106.2620 C.ar   38  A38         0.1816
    827  N9        20.0960    6.8090  107.5020 N.ar   38  A38        -0.2693
    828  OP1       16.2690    5.3090  102.8850 O.2    38  A38        -0.5172
    829  OP2       17.8480    7.3340  102.9450 O.co2  38  A38        -0.4373
    830  P         15.0190    7.6820  108.9910 P.3    39  G39         0.2141
    831  C5'       16.4710    8.4270  111.0520 C.3    39  G39         0.1812
    832  O5'       16.0730    8.6410  109.7050 O.3    39  G39        -0.3114
    833  C4'       17.7050    9.2240  111.3910 C.3    39  G39         0.1773
    834  O4'       18.7100    9.0280  110.3610 O.3    39  G39        -0.3307
    835  C3'       17.5250   10.7330  111.4510 C.3    39  G39         0.1860
    836  O3'       17.0010   11.1760  112.6890 O.3    39  G39        -0.3112
    837  C2'       18.9280   11.2490  111.1630 C.3    39  G39         0.2309
    838  O2'       19.7470   11.1510  112.3190 O.3    39  G39        -0.2156
    839  C1'       19.4180   10.2280  110.1390 C.3    39  G39         0.2408
    840  N1        20.6490   13.4840  106.4180 N.ar   39  G39        -0.1709
    841  C2        21.1590   13.3840  107.6880 C.ar   39  G39         0.2606
    842  N2        22.1190   14.2640  108.0070 N.pl3  39  G39        -0.0859
    843  N3        20.7580   12.4910  108.5770 N.ar   39  G39        -0.1918
    844  C4        19.7890   11.6910  108.0830 C.ar   39  G39         0.1723
    845  C5        19.2120   11.7100  106.8310 C.ar   39  G39         0.1748
    846  C6        19.6530   12.6730  105.8880 C.ar   39  G39         0.3023
    847  O6        19.2630   12.8480  104.7280 O.2    39  G39        -0.2633
    848  N7        18.2460   10.7210  106.7130 N.ar   39  G39        -0.2173
    849  C8        18.2520   10.1290  107.8760 C.ar   39  G39         0.1817
    850  N9        19.1620   10.6670  108.7540 N.ar   39  G39        -0.2693
    851  OP1       13.8980    7.4510  109.9370 O.3    39  G39        -0.4373
    852  OP2       14.7430    8.2310  107.6390 O.co2  39  G39        -0.5172
    853  P         15.9630   12.4000  112.7330 P.3    40  C40         0.2141
    854  C5'       17.9610   14.0310  113.2270 C.3    40  C40         0.1812
    855  O5'       16.8600   13.6740  112.4030 O.3    40  C40        -0.3114
    856  C4'       18.8120   15.0920  112.5760 C.3    40  C40         0.1773
    857  O4'       19.4380   14.5560  111.3800 O.3    40  C40        -0.3307
    858  C3'       18.0670   16.3190  112.0780 C.3    40  C40         0.1860
    859  O3'       17.7620   17.2510  113.0990 O.3    40  C40        -0.3112
    860  C2'       18.9980   16.8560  111.0010 C.3    40  C40         0.2309
    861  O2'       20.0990   17.5430  111.5780 O.3    40  C40        -0.2156
    862  C1'       19.5120   15.5560  110.3840 C.3    40  C40         0.2420
    863  N1        18.6830   15.1340  109.2330 N.ar   40  C40        -0.2535
    864  C2        18.8600   15.7690  108.0000 C.ar   40  C40         0.3532
    865  O2        19.7080   16.6680  107.8930 O.2    40  C40        -0.2443
    866  N3        18.1000   15.3840  106.9500 N.ar   40  C40        -0.1739
    867  C4        17.1960   14.4140  107.0970 C.ar   40  C40         0.1759
    868  N4        16.4710   14.0660  106.0330 N.pl3  40  C40        -0.1070
    869  C5        16.9940   13.7510  108.3400 C.ar   40  C40         0.0566
    870  C6        17.7530   14.1410  109.3710 C.ar   40  C40         0.0850
    871  OP1       15.4660   12.5220  114.1260 O.3    40  C40        -0.4373
    872  OP2       14.9940   12.2180  111.6210 O.co2  40  C40        -0.5172
    873  P         16.3520   18.0200  113.0730 P.3    41  G41         0.2141
    874  C5'       17.6820   20.0260  112.0320 C.3    41  G41         0.1812
    875  O5'       16.5620   19.1550  111.9730 O.3    41  G41        -0.3114
    876  C4'       17.7670   20.9100  110.8120 C.3    41  G41         0.1773
    877  O4'       18.1950   20.1390  109.6610 O.3    41  G41        -0.3307
    878  C3'       16.4650   21.5490  110.3620 C.3    41  G41         0.1860
    879  O3'       16.1250   22.6900  111.1300 O.3    41  G41        -0.3112
    880  C2'       16.7310   21.8500  108.8910 C.3    41  G41         0.2309
    881  O2'       17.5040   23.0320  108.7460 O.3    41  G41        -0.2156
    882  C1'       17.5990   20.6540  108.4880 C.3    41  G41         0.2408
    883  N1        15.3010   19.0280  104.2320 N.ar   41  G41        -0.1709
    884  C2        15.9860   20.1960  104.4550 C.ar   41  G41         0.2606
    885  N2        16.0690   21.0360  103.4120 N.pl3  41  G41        -0.0859
    886  N3        16.5450   20.5120  105.6130 N.ar   41  G41        -0.1918
    887  C4        16.3610   19.5520  106.5450 C.ar   41  G41         0.1723
    888  C5        15.6930   18.3510  106.4200 C.ar   41  G41         0.1748
    889  C6        15.0990   18.0260  105.1730 C.ar   41  G41         0.3023
    890  O6        14.4630   17.0120  104.8580 O.2    41  G41        -0.2633
    891  N7        15.7280   17.6410  107.6120 N.ar   41  G41        -0.2173
    892  C8        16.4040   18.4060  108.4260 C.ar   41  G41         0.1817
    893  N9        16.8160   19.5810  107.8450 N.ar   41  G41        -0.2693
    894  OP1       16.1410   18.6630  114.3940 O.3    41  G41        -0.4373
    895  OP2       15.3340   17.0710  112.5570 O.co2  41  G41        -0.5172
    896  P         14.5900   22.9900  111.4940 P.3    42  A42         0.2141
    897  C5'       14.7520   24.8970  109.7120 C.3    42  A42         0.1812
    898  O5'       14.0520   23.7710  110.2160 O.3    42  A42        -0.3114
    899  C4'       14.2830   25.2640  108.3280 C.3    42  A42         0.1773
    900  O4'       14.8210   24.3290  107.3560 O.3    42  A42        -0.3307
    901  C3'       12.7830   25.2020  108.1020 C.3    42  A42         0.1860
    902  O3'       12.0920   26.3330  108.6030 O.3    42  A42        -0.3112
    903  C2'       12.6860   25.0310  106.5930 C.3    42  A42         0.2309
    904  O2'       12.9090   26.2660  105.9280 O.3    42  A42        -0.2156
    905  C1'       13.8790   24.1150  106.3230 C.3    42  A42         0.2408
    906  N1        11.9800   20.1850  103.5840 N.ar   42  A42        -0.2040
    907  C2        12.2480   21.4590  103.2670 C.ar   42  A42         0.2016
    908  N3        12.7430   22.4310  104.0310 N.ar   42  A42        -0.2048
    909  C4        12.9760   21.9820  105.2760 C.ar   42  A42         0.1692
    910  C5        12.7540   20.7030  105.7530 C.ar   42  A42         0.1518
    911  C6        12.2270   19.7670  104.8460 C.ar   42  A42         0.1919
    912  N6        11.9610   18.4980  105.1640 N.pl3  42  A42        -0.1054
    913  N7        13.1140   20.6080  107.0900 N.ar   42  A42        -0.2193
    914  C8        13.5390   21.8120  107.3860 C.ar   42  A42         0.1816
    915  N9        13.4870   22.6930  106.3350 N.ar   42  A42        -0.2693
    916  OP1       14.5620   23.9220  112.6510 O.3    42  A42        -0.4373
    917  OP2       13.8710   21.6930  111.5860 O.co2  42  A42        -0.5172
    918  P         10.6370   26.1480  109.2590 P.3    43  C43         0.2141
    919  C5'        9.6280   27.0730  107.0260 C.3    43  C43         0.1812
    920  O5'        9.6690   26.0410  108.0000 O.3    43  C43        -0.3114
    921  C4'        9.0060   26.5970  105.7380 C.3    43  C43         0.1773
    922  O4'        9.8270   25.5510  105.1510 O.3    43  C43        -0.3307
    923  C3'        7.6350   25.9520  105.8560 C.3    43  C43         0.1860
    924  O3'        6.5740   26.8810  105.9930 O.3    43  C43        -0.3112
    925  C2'        7.5640   25.1100  104.5910 C.3    43  C43         0.2309
    926  O2'        7.3070   25.9280  103.4590 O.3    43  C43        -0.2156
    927  C1'        9.0030   24.6030  104.4990 C.3    43  C43         0.2420
    928  N1         9.1620   23.2900  105.1680 N.ar   43  C43        -0.2535
    929  C2         8.8250   22.1330  104.4600 C.ar   43  C43         0.3532
    930  O2         8.4170   22.2390  103.2940 O.2    43  C43        -0.2443
    931  N3         8.9570   20.9260  105.0580 N.ar   43  C43        -0.1739
    932  C4         9.3990   20.8470  106.3130 C.ar   43  C43         0.1759
    933  N4         9.5130   19.6350  106.8610 N.pl3  43  C43        -0.1070
    934  C5         9.7460   22.0070  107.0630 C.ar   43  C43         0.0566
    935  C6         9.6120   23.1940  106.4580 C.ar   43  C43         0.0850
    936  OP1       10.2900   27.3800  110.0140 O.3    43  C43        -0.4373
    937  OP2       10.6250   24.8380  109.9600 O.co2  43  C43        -0.5172
    938  P          5.2740   26.4790  106.8500 P.3    44  C44         0.2141
    939  C5'        4.0050   25.8890  104.6370 C.3    44  C44         0.1812
    940  O5'        4.4890   25.4680  105.9030 O.3    44  C44        -0.3114
    941  C4'        3.3530   24.7570  103.8840 C.3    44  C44         0.1773
    942  O4'        4.3440   23.7600  103.5190 O.3    44  C44        -0.3307
    943  C3'        2.3030   23.9600  104.6390 C.3    44  C44         0.1860
    944  O3'        1.0460   24.6110  104.7130 O.3    44  C44        -0.3112
    945  C2'        2.2730   22.6490  103.8640 C.3    44  C44         0.2309
    946  O2'        1.5390   22.7970  102.6570 O.3    44  C44        -0.2156
    947  C1'        3.7510   22.4770  103.5080 C.3    44  C44         0.2420
    948  N1         4.4580   21.6050  104.4760 N.ar   44  C44        -0.2535
    949  C2         4.3620   20.2170  104.3240 C.ar   44  C44         0.3532
    950  O2         3.6970   19.7580  103.3840 O.2    44  C44        -0.2443
    951  N3         4.9990   19.4070  105.2020 N.ar   44  C44        -0.1739
    952  C4         5.7070   19.9300  106.2020 C.ar   44  C44         0.1759
    953  N4         6.3180   19.0920  107.0410 N.pl3  44  C44        -0.1070
    954  C5         5.8200   21.3380  106.3830 C.ar   44  C44         0.0566
    955  C6         5.1860   22.1300  105.5080 C.ar   44  C44         0.0850
    956  OP1        4.4350   27.6900  107.0350 O.2    44  C44        -0.5172
    957  OP2        5.7300   25.7180  108.0410 O.co2  44  C44        -0.4373
    958  P          0.0730   24.3360  105.9630 P.3    45  C45         0.2141
    959  C5'       -1.2270   22.5640  104.5390 C.3    45  C45         0.1812
    960  O5'       -0.4740   22.8620  105.7050 O.3    45  C45        -0.3114
    961  C4'       -1.3730   21.0780  104.3300 C.3    45  C45         0.1773
    962  O4'       -0.0660   20.4610  104.1810 O.3    45  C45        -0.3307
    963  C3'       -2.0100   20.3050  105.4710 C.3    45  C45         0.1860
    964  O3'       -3.4210   20.4120  105.4970 O.3    45  C45        -0.3112
    965  C2'       -1.5040   18.8890  105.2310 C.3    45  C45         0.2309
    966  O2'       -2.2340   18.2650  104.1860 O.3    45  C45        -0.2156
    967  C1'       -0.0830   19.1600  104.7350 C.3    45  C45         0.2420
    968  N1         0.9110   19.0900  105.8320 N.ar   45  C45        -0.2535
    969  C2         1.2970   17.8360  106.3200 C.ar   45  C45         0.3532
    970  O2         0.8030   16.8100  105.8260 O.2    45  C45        -0.2443
    971  N3         2.2040   17.7670  107.3220 N.ar   45  C45        -0.1739
    972  C4         2.7220   18.8830  107.8350 C.ar   45  C45         0.1759
    973  N4         3.6130   18.7670  108.8230 N.pl3  45  C45        -0.1070
    974  C5         2.3470   20.1720  107.3580 C.ar   45  C45         0.0566
    975  C6         1.4490   20.2270  106.3680 C.ar   45  C45         0.0850
    976  OP1       -1.0810   25.2650  105.8710 O.2    45  C45        -0.5172
    977  OP2        0.9040   24.3170  107.1950 O.co2  45  C45        -0.4373
    978  P         -4.1830   20.5770  106.9010 P.3    46  U46         0.2141
    979  C5'       -4.4130   17.9750  107.0280 C.3    46  U46         0.1812
    980  O5'       -3.9530   19.1780  107.6250 O.3    46  U46        -0.3114
    981  C4'       -3.8390   16.7570  107.7040 C.3    46  U46         0.1773
    982  O4'       -2.3960   16.7170  107.5420 O.3    46  U46        -0.3307
    983  C3'       -4.0290   16.6730  109.2060 C.3    46  U46         0.1860
    984  O3'       -5.3340   16.2760  109.5880 O.3    46  U46        -0.3112
    985  C2'       -2.9410   15.6900  109.6110 C.3    46  U46         0.2309
    986  O2'       -3.3270   14.3580  109.3040 O.3    46  U46        -0.2156
    987  C1'       -1.8080   16.0950  108.6680 C.3    46  U46         0.2420
    988  N1        -0.8730   17.0410  109.3170 N.ar   46  U46        -0.2534
    989  C2         0.0440   16.5120  110.2090 C.ar   46  U46         0.3546
    990  O2         0.1140   15.3220  110.4670 O.2    46  U46        -0.2443
    991  N3         0.8840   17.4280  110.7910 N.ar   46  U46        -0.1530
    992  C4         0.9000   18.7890  110.5790 C.ar   46  U46         0.2846
    993  O4         1.7220   19.4810  111.1810 O.2    46  U46        -0.2650
    994  C5        -0.0800   19.2590  109.6480 C.ar   46  U46         0.0814
    995  C6        -0.9120   18.3910  109.0630 C.ar   46  U46         0.0870
    996  OP1       -5.6360   20.7140  106.6230 O.2    46  U46        -0.5172
    997  OP2       -3.4750   21.6200  107.6870 O.co2  46  U46        -0.4373
    998  P         -5.9760   16.8500  110.9450 P.3    47  U47         0.2141
    999  C5'       -5.0390   14.7160  112.1380 C.3    47  U47         0.1812
   1000  O5'       -5.1410   16.1300  112.0950 O.3    47  U47        -0.3114
   1001  C4'       -3.9810   14.2580  113.1070 C.3    47  U47         0.1773
   1002  O4'       -2.6600   14.6570  112.6600 O.3    47  U47        -0.3307
   1003  C3'       -4.0680   14.8320  114.5060 C.3    47  U47         0.1860
   1004  O3'       -5.0820   14.2340  115.2870 O.3    47  U47        -0.3112
   1005  C2'       -2.6590   14.6010  115.0370 C.3    47  U47         0.2309
   1006  O2'       -2.4800   13.2460  115.4210 O.3    47  U47        -0.2156
   1007  C1'       -1.8210   14.8610  113.7820 C.3    47  U47         0.2420
   1008  N1        -1.2860   16.2410  113.7570 N.ar   47  U47        -0.2534
   1009  C2        -0.1150   16.4680  114.4580 C.ar   47  U47         0.3546
   1010  O2         0.4710   15.5880  115.0650 O.2    47  U47        -0.2443
   1011  N3         0.3480   17.7590  114.4200 N.ar   47  U47        -0.1530
   1012  C4        -0.2300   18.8280  113.7680 C.ar   47  U47         0.2846
   1013  O4         0.3070   19.9350  113.8250 O.2    47  U47        -0.2650
   1014  C5        -1.4400   18.5150  113.0690 C.ar   47  U47         0.0814
   1015  C6        -1.9160   17.2640  113.0880 C.ar   47  U47         0.0870
   1016  OP1       -7.3850   16.3880  111.0270 O.3    47  U47        -0.4373
   1017  OP2       -5.6800   18.3030  111.0170 O.co2  47  U47        -0.5172
   1018  P         -5.4180   14.8270  116.7390 P.3    48  G48         0.2141
   1019  C5'       -4.0810   14.4890  118.9630 C.3    48  G48         0.1812
   1020  O5'       -4.4920   13.9700  117.7100 O.3    48  G48        -0.3114
   1021  C4'       -2.6400   14.1590  119.2530 C.3    48  G48         0.1773
   1022  O4'       -1.7970   14.6250  118.1670 O.3    48  G48        -0.3307
   1023  C3'       -2.0540   14.8190  120.4890 C.3    48  G48         0.1860
   1024  O3'       -2.3860   14.1230  121.6760 O.3    48  G48        -0.3112
   1025  C2'       -0.5620   14.8370  120.1850 C.3    48  G48         0.2309
   1026  O2'        0.0100   13.5600  120.4250 O.3    48  G48        -0.2156
   1027  C1'       -0.5650   15.0850  118.6760 C.3    48  G48         0.2408
   1028  N1         2.2580   19.3610  118.9260 N.ar   48  G48        -0.1709
   1029  C2         2.5230   18.1220  119.4540 C.ar   48  G48         0.2606
   1030  N2         3.6780   18.0010  120.1260 N.pl3  48  G48        -0.0859
   1031  N3         1.7210   17.0760  119.3320 N.ar   48  G48        -0.1918
   1032  C4         0.6080   17.3710  118.6270 C.ar   48  G48         0.1723
   1033  C5         0.2510   18.5790  118.0610 C.ar   48  G48         0.1748
   1034  C6         1.1200   19.6900  118.1980 C.ar   48  G48         0.3023
   1035  O6         0.9690   20.8370  117.7640 O.2    48  G48        -0.2633
   1036  N7        -0.9730   18.4840  117.4170 N.ar   48  G48        -0.2173
   1037  C8        -1.3330   17.2450  117.5980 C.ar   48  G48         0.1817
   1038  N9        -0.4300   16.5130  118.3300 N.ar   48  G48        -0.2693
   1039  OP1       -6.8380   14.5150  117.0410 O.3    48  G48        -0.4373
   1040  OP2       -4.9470   16.2360  116.7870 O.co2  48  G48        -0.5172
   1041  P         -2.9790   14.9170  122.9370 P.3    49  C49         0.2141
   1042  C5'       -0.5950   14.4760  123.9110 C.3    49  C49         0.1812
   1043  O5'       -1.6760   15.3760  123.7260 O.3    49  C49        -0.3114
   1044  C4'        0.6730   15.2020  124.2710 C.3    49  C49         0.1773
   1045  O4'        1.2480   15.8230  123.0930 O.3    49  C49        -0.3307
   1046  C3'        0.5230   16.3530  125.2470 C.3    49  C49         0.1860
   1047  O3'        0.4030   15.9240  126.5910 O.3    49  C49        -0.3112
   1048  C2'        1.7740   17.1770  124.9740 C.3    49  C49         0.2309
   1049  O2'        2.9030   16.5870  125.5980 O.3    49  C49        -0.2156
   1050  C1'        1.9220   17.0090  123.4610 C.3    49  C49         0.2420
   1051  N1         1.3470   18.1470  122.7090 N.ar   49  C49        -0.2535
   1052  C2         2.0840   19.3330  122.6230 C.ar   49  C49         0.3532
   1053  O2         3.1890   19.3990  123.1830 O.2    49  C49        -0.2443
   1054  N3         1.5730   20.3790  121.9350 N.ar   49  C49        -0.1739
   1055  C4         0.3800   20.2690  121.3480 C.ar   49  C49         0.1759
   1056  N4        -0.0870   21.3230  120.6790 N.pl3  49  C49        -0.1070
   1057  C5        -0.3900   19.0720  121.4160 C.ar   49  C49         0.0566
   1058  C6         0.1280   18.0450  122.1000 C.ar   49  C49         0.0850
   1059  OP1       -3.7130   13.9390  123.7810 O.3    49  C49        -0.4373
   1060  OP2       -3.6660   16.1370  122.4420 O.co2  49  C49        -0.5172
   1061  P         -0.4700   16.7800  127.6310 P.3    50  C50         0.2141
   1062  C5'        1.6280   18.1360  128.3970 C.3    50  C50         0.1812
   1063  O5'        0.3480   18.1350  127.7850 O.3    50  C50        -0.3114
   1064  C4'        2.0830   19.5340  128.7200 C.3    50  C50         0.1773
   1065  O4'        2.5620   20.1930  127.5220 O.3    50  C50        -0.3307
   1066  C3'        1.0150   20.4710  129.2540 C.3    50  C50         0.1860
   1067  O3'        0.7610   20.2710  130.6310 O.3    50  C50        -0.3112
   1068  C2'        1.5830   21.8460  128.9250 C.3    50  C50         0.2309
   1069  O2'        2.5580   22.2280  129.8840 O.3    50  C50        -0.2156
   1070  C1'        2.2900   21.5770  127.5930 C.3    50  C50         0.2420
   1071  N1         1.4690   21.9640  126.4220 N.ar   50  C50        -0.2535
   1072  C2         1.5680   23.2750  125.9510 C.ar   50  C50         0.3532
   1073  O2         2.3310   24.0630  126.5290 O.2    50  C50        -0.2443
   1074  N3         0.8320   23.6520  124.8810 N.ar   50  C50        -0.1739
   1075  C4         0.0220   22.7760  124.2850 C.ar   50  C50         0.1759
   1076  N4        -0.6840   23.1950  123.2330 N.pl3  50  C50        -0.1070
   1077  C5        -0.0990   21.4310  124.7420 C.ar   50  C50         0.0566
   1078  C6         0.6370   21.0710  125.8030 C.ar   50  C50         0.0850
   1079  OP1       -0.4230   16.0850  128.9420 O.3    50  C50        -0.4373
   1080  OP2       -1.7820   17.0920  127.0080 O.co2  50  C50        -0.5172
   1081  P         -0.6710   20.6420  131.2540 P.3    51  G51         0.2141
   1082  C5'        0.7520   22.3200  132.6740 C.3    51  G51         0.1812
   1083  O5'       -0.4280   22.0690  131.9180 O.3    51  G51        -0.3114
   1084  C4'        0.8070   23.7340  133.2030 C.3    51  G51         0.1773
   1085  O4'        1.2690   24.6360  132.1570 O.3    51  G51        -0.3307
   1086  C3'       -0.5160   24.3120  133.7140 C.3    51  G51         0.1860
   1087  O3'       -0.2650   25.1340  134.8530 O.3    51  G51        -0.3112
   1088  C2'       -0.9620   25.1990  132.5570 C.3    51  G51         0.2309
   1089  O2'       -1.8370   26.2460  132.9200 O.3    51  G51        -0.2156
   1090  C1'        0.3790   25.7270  132.0620 C.3    51  G51         0.2408
   1091  N1        -0.8480   25.0330  127.1190 N.ar   51  G51        -0.1709
   1092  C2        -1.0560   24.1800  128.1750 C.ar   51  G51         0.2606
   1093  N2        -1.6580   23.0180  127.8840 N.pl3  51  G51        -0.0859
   1094  N3        -0.7020   24.4480  129.4230 N.ar   51  G51        -0.1918
   1095  C4        -0.1100   25.6590  129.5370 C.ar   51  G51         0.1723
   1096  C5         0.1420   26.5800  128.5400 C.ar   51  G51         0.1748
   1097  C6        -0.2420   26.2800  127.2110 C.ar   51  G51         0.3023
   1098  O6        -0.1020   26.9780  126.2030 O.2    51  G51        -0.2633
   1099  N7         0.7660   27.7090  129.0430 N.ar   51  G51        -0.2173
   1100  C8         0.8830   27.4640  130.3160 C.ar   51  G51         0.1817
   1101  N9         0.3780   26.2410  130.6880 N.ar   51  G51        -0.2693
   1102  OP1       -0.9630   19.6650  132.3340 O.3    51  G51        -0.4373
   1103  OP2       -1.6310   20.7980  130.1320 O.co2  51  G51        -0.5172
   1104  P         -0.7950   24.6950  136.3040 P.3    52  C52         0.2141
   1105  C5'       -3.1370   25.8250  136.6690 C.3    52  C52         0.1812
   1106  O5'       -2.3810   24.7330  136.1660 O.3    52  C52        -0.3114
   1107  C4'       -4.6060   25.6570  136.3710 C.3    52  C52         0.1773
   1108  O4'       -4.8510   25.8970  134.9620 O.3    52  C52        -0.3307
   1109  C3'       -5.1760   24.2680  136.6130 C.3    52  C52         0.1860
   1110  O3'       -5.4730   24.0180  137.9750 O.3    52  C52        -0.3112
   1111  C2'       -6.3940   24.2420  135.6970 C.3    52  C52         0.2309
   1112  O2'       -7.4860   24.9290  136.2910 O.3    52  C52        -0.2156
   1113  C1'       -5.8960   25.0630  134.5040 C.3    52  C52         0.2420
   1114  N1        -5.3780   24.2100  133.4090 N.ar   52  C52        -0.2535
   1115  C2        -6.2120   23.9380  132.3200 C.ar   52  C52         0.3532
   1116  O2        -7.3550   24.4210  132.3040 O.2    52  C52        -0.2443
   1117  N3        -5.7510   23.1610  131.3110 N.ar   52  C52        -0.1739
   1118  C4        -4.5140   22.6630  131.3650 C.ar   52  C52         0.1759
   1119  N4        -4.0960   21.9010  130.3530 N.pl3  52  C52        -0.1070
   1120  C5        -3.6450   22.9210  132.4620 C.ar   52  C52         0.0566
   1121  C6        -4.1130   23.6920  133.4480 C.ar   52  C52         0.0850
   1122  OP1       -0.3950   25.7460  137.2750 O.3    52  C52        -0.4373
   1123  OP2       -0.3840   23.2870  136.5290 O.co2  52  C52        -0.5172
   1124  P         -5.1660   22.5770  138.6150 P.3    53  C53         0.2141
   1125  C5'       -6.5450   20.3490  138.5750 C.3    53  C53         0.1812
   1126  O5'       -6.3700   21.6730  138.0980 O.3    53  C53        -0.3114
   1127  C4'       -8.0050   20.0090  138.7440 C.3    53  C53         0.1773
   1128  O4'       -8.5740   20.7730  139.8390 O.3    53  C53        -0.3307
   1129  C3'       -8.9130   20.3320  137.5690 C.3    53  C53         0.1860
   1130  O3'       -8.8400   19.3770  136.5270 O.3    53  C53        -0.3112
   1131  C2'      -10.2830   20.4060  138.2290 C.3    53  C53         0.2309
   1132  O2'      -10.7930   19.1030  138.4690 O.3    53  C53        -0.2156
   1133  C1'       -9.9350   21.0440  139.5740 C.3    53  C53         0.2420
   1134  N1       -10.1500   22.5110  139.5660 N.ar   53  C53        -0.2535
   1135  C2       -11.4630   22.9850  139.6590 C.ar   53  C53         0.3532
   1136  O2       -12.3970   22.1730  139.7470 O.2    53  C53        -0.2443
   1137  N3       -11.6910   24.3170  139.6530 N.ar   53  C53        -0.1739
   1138  C4       -10.6730   25.1690  139.5590 C.ar   53  C53         0.1759
   1139  N4       -10.9550   26.4740  139.5580 N.pl3  53  C53        -0.1070
   1140  C5        -9.3240   24.7180  139.4610 C.ar   53  C53         0.0566
   1141  C6        -9.1100   23.3950  139.4680 C.ar   53  C53         0.0850
   1142  OP1       -5.2650   22.6930  140.0920 O.3    53  C53        -0.4373
   1143  OP2       -3.9120   22.0640  138.0100 O.co2  53  C53        -0.5172
   1144  P         -9.1200   19.8220  135.0090 P.3    54  C54         0.2141
   1145  C5'      -11.7090   19.4170  135.1600 C.3    54  C54         0.1812
   1146  O5'      -10.6300   20.3310  135.0230 O.3    54  C54        -0.3114
   1147  C4'      -13.0260   20.1380  135.2940 C.3    54  C54         0.1773
   1148  O4'      -12.9870   21.0300  136.4390 O.3    54  C54        -0.3307
   1149  C3'      -13.4000   21.0480  134.1370 C.3    54  C54         0.1860
   1150  O3'      -13.9400   20.3500  133.0310 O.3    54  C54        -0.3112
   1151  C2'      -14.3720   22.0220  134.7850 C.3    54  C54         0.2309
   1152  O2'      -15.6460   21.4190  134.9550 O.3    54  C54        -0.2156
   1153  C1'      -13.7370   22.1970  136.1650 C.3    54  C54         0.2420
   1154  N1       -12.8300   23.3700  136.2200 N.ar   54  C54        -0.2535
   1155  C2       -13.3810   24.6540  136.2940 C.ar   54  C54         0.3532
   1156  O2       -14.6140   24.7770  136.3060 O.2    54  C54        -0.2443
   1157  N3       -12.5600   25.7300  136.3450 N.ar   54  C54        -0.1739
   1158  C4       -11.2370   25.5640  136.3280 C.ar   54  C54         0.1759
   1159  N4       -10.4640   26.6510  136.3810 N.pl3  54  C54        -0.1070
   1160  C5       -10.6480   24.2700  136.2550 C.ar   54  C54         0.0566
   1161  C6       -11.4710   23.2140  136.2050 C.ar   54  C54         0.0850
   1162  OP1       -9.0650   18.6050  134.1580 O.2    54  C54        -0.5172
   1163  OP2       -8.2450   20.9860  134.7080 O.co2  54  C54        -0.4373
   1164  P        -13.5840   20.8310  131.5410 P.3    55  G55         0.2141
   1165  C5'      -15.9410   21.9550  131.4120 C.3    55  G55         0.1812
   1166  O5'      -14.5320   22.0920  131.3110 O.3    55  G55        -0.3114
   1167  C4'      -16.6460   23.2870  131.3610 C.3    55  G55         0.1773
   1168  O4'      -16.3570   24.0570  132.5550 O.3    55  G55        -0.3307
   1169  C3'      -16.2470   24.2090  130.2240 C.3    55  G55         0.1860
   1170  O3'      -16.8660   23.8630  128.9990 O.3    55  G55        -0.3112
   1171  C2'      -16.6510   25.5820  130.7520 C.3    55  G55         0.2309
   1172  O2'      -18.0450   25.8040  130.5870 O.3    55  G55        -0.2156
   1173  C1'      -16.3550   25.4350  132.2470 C.3    55  G55         0.2408
   1174  N1       -13.7210   29.6850  133.1800 N.ar   55  G55        -0.1709
   1175  C2       -15.0380   29.5370  132.8220 C.ar   55  G55         0.2606
   1176  N2       -15.7500   30.6670  132.6970 N.pl3  55  G55        -0.0859
   1177  N3       -15.6130   28.3660  132.6040 N.ar   55  G55        -0.1918
   1178  C4       -14.7520   27.3400  132.7750 C.ar   55  G55         0.1723
   1179  C5       -13.4210   27.3810  133.1310 C.ar   55  G55         0.1748
   1180  C6       -12.8160   28.6430  133.3620 C.ar   55  G55         0.3023
   1181  O6       -11.6470   28.8890  133.6850 O.2    55  G55        -0.2633
   1182  N7       -12.8890   26.1010  133.2000 N.ar   55  G55        -0.2173
   1183  C8       -13.8880   25.3190  132.8910 C.ar   55  G55         0.1817
   1184  N9       -15.0470   26.0060  132.6210 N.ar   55  G55        -0.2693
   1185  OP1      -14.0010   19.7640  130.5930 O.2    55  G55        -0.5172
   1186  OP2      -12.1720   21.2950  131.5510 O.co2  55  G55        -0.4373
   1187  P        -16.0770   24.0610  127.6150 P.3    56  C56         0.2141
   1188  C5'      -17.2780   26.3600  127.2870 C.3    56  C56         0.1812
   1189  O5'      -16.0610   25.6420  127.4180 O.3    56  C56        -0.3114
   1190  C4'      -17.0820   27.8470  127.4410 C.3    56  C56         0.1773
   1191  O4'      -16.6070   28.1620  128.7760 O.3    56  C56        -0.3307
   1192  C3'      -16.0480   28.4940  126.5370 C.3    56  C56         0.1860
   1193  O3'      -16.4940   28.6840  125.2070 O.3    56  C56        -0.3112
   1194  C2'      -15.7440   29.7890  127.2750 C.3    56  C56         0.2309
   1195  O2'      -16.7840   30.7360  127.0760 O.3    56  C56        -0.2156
   1196  C1'      -15.7940   29.3190  128.7300 C.3    56  C56         0.2420
   1197  N1       -14.4450   29.0000  129.2540 N.ar   56  C56        -0.2535
   1198  C2       -13.6240   30.0650  129.6390 C.ar   56  C56         0.3532
   1199  O2       -14.0490   31.2260  129.5390 O.2    56  C56        -0.2443
   1200  N3       -12.3860   29.8090  130.1170 N.ar   56  C56        -0.1739
   1201  C4       -11.9570   28.5510  130.2140 C.ar   56  C56         0.1759
   1202  N4       -10.7270   28.3460  130.6920 N.pl3  56  C56        -0.1070
   1203  C5       -12.7700   27.4460  129.8260 C.ar   56  C56         0.0566
   1204  C6       -13.9950   27.7130  129.3550 C.ar   56  C56         0.0850
   1205  OP1      -16.8980   23.4580  126.5340 O.2    56  C56        -0.5172
   1206  OP2      -14.6820   23.5900  127.8030 O.co2  56  C56        -0.4373
   1207  P        -15.4500   28.5320  123.9940 P.3    57  C57         0.2141
   1208  C5'      -15.1000   31.1290  123.9440 C.3    57  C57         0.1812
   1209  O5'      -14.5370   29.8350  124.1010 O.3    57  C57        -0.3114
   1210  C4'      -14.2030   32.2120  124.4930 C.3    57  C57         0.1773
   1211  O4'      -13.8480   31.9280  125.8720 O.3    57  C57        -0.3307
   1212  C3'      -12.8580   32.4030  123.8110 C.3    57  C57         0.1860
   1213  O3'      -12.9470   33.1210  122.5930 O.3    57  C57        -0.3112
   1214  C2'      -12.0540   33.1320  124.8780 C.3    57  C57         0.2309
   1215  O2'      -12.4100   34.5050  124.9170 O.3    57  C57        -0.2156
   1216  C1'      -12.5720   32.4660  126.1560 C.3    57  C57         0.2420
   1217  N1       -11.6740   31.3870  126.6320 N.ar   57  C57        -0.2535
   1218  C2       -10.5050   31.7530  127.3070 C.ar   57  C57         0.3532
   1219  O2       -10.2630   32.9560  127.4780 O.2    57  C57        -0.2443
   1220  N3        -9.6620   30.7960  127.7590 N.ar   57  C57        -0.1739
   1221  C4        -9.9530   29.5110  127.5590 C.ar   57  C57         0.1759
   1222  N4        -9.0970   28.5970  128.0200 N.pl3  57  C57        -0.1070
   1223  C5       -11.1360   29.1060  126.8770 C.ar   57  C57         0.0566
   1224  C6       -11.9610   30.0650  126.4350 C.ar   57  C57         0.0850
   1225  OP1      -16.2080   28.5910  122.7190 O.2    57  C57        -0.5172
   1226  OP2      -14.5920   27.3540  124.2850 O.co2  57  C57        -0.4373
   1227  P        -11.8730   32.8630  121.4260 P.3    58  U58         0.2141
   1228  C5'      -10.4730   35.0260  121.9150 C.3    58  U58         0.1812
   1229  O5'      -10.5560   33.6090  121.9270 O.3    58  U58        -0.3114
   1230  C4'       -9.2240   35.5210  122.6020 C.3    58  U58         0.1773
   1231  O4'       -9.1920   35.0410  123.9730 O.3    58  U58        -0.3307
   1232  C3'       -7.9000   35.0450  122.0250 C.3    58  U58         0.1860
   1233  O3'       -7.4940   35.7540  120.8680 O.3    58  U58        -0.3112
   1234  C2'       -6.9540   35.2130  123.2030 C.3    58  U58         0.2309
   1235  O2'       -6.6030   36.5780  123.3720 O.3    58  U58        -0.2156
   1236  C1'       -7.8550   34.8000  124.3640 C.3    58  U58         0.2420
   1237  N1        -7.7020   33.3630  124.6830 N.ar   58  U58        -0.2534
   1238  C2        -6.5790   32.9880  125.3960 C.ar   58  U58         0.3546
   1239  O2        -5.7290   33.7780  125.7710 O.2    58  U58        -0.2443
   1240  N3        -6.4910   31.6460  125.6590 N.ar   58  U58        -0.1530
   1241  C4        -7.3830   30.6630  125.2910 C.ar   58  U58         0.2846
   1242  O4        -7.1510   29.4970  125.6100 O.2    58  U58        -0.2650
   1243  C5        -8.5170   31.1280  124.5540 C.ar   58  U58         0.0814
   1244  C6        -8.6320   32.4320  124.2820 C.ar   58  U58         0.0870
   1245  OP1      -12.3430   33.5620  120.2040 O.2    58  U58        -0.5172
   1246  OP2      -11.5940   31.4040  121.3940 O.co2  58  U58        -0.4373
   1247  P         -6.5830   35.0260  119.7620 P.3    59  G59         0.2141
   1248  C5'       -4.2050   35.7660  120.5580 C.3    59  G59         0.1812
   1249  O5'       -5.1980   34.7530  120.5050 O.3    59  G59        -0.3114
   1250  C4'       -3.1050   35.4590  121.5470 C.3    59  G59         0.1773
   1251  O4'       -3.6530   34.9020  122.7730 O.3    59  G59        -0.3307
   1252  C3'       -2.0700   34.4270  121.1370 C.3    59  G59         0.1860
   1253  O3'       -1.1320   34.8790  120.1780 O.3    59  G59        -0.3112
   1254  C2'       -1.4560   34.0590  122.4760 C.3    59  G59         0.2309
   1255  O2'       -0.6100   35.1000  122.9430 O.3    59  G59        -0.2156
   1256  C1'       -2.7040   34.0230  123.3550 C.3    59  G59         0.2408
   1257  N1        -1.8090   29.3050  124.9110 N.ar   59  G59        -0.1709
   1258  C2        -1.0510   30.4400  125.0550 C.ar   59  G59         0.2606
   1259  N2         0.1140   30.3000  125.7070 N.pl3  59  G59        -0.0859
   1260  N3        -1.4120   31.6260  124.5940 N.ar   59  G59        -0.1918
   1261  C4        -2.6100   31.5860  123.9690 C.ar   59  G59         0.1723
   1262  C5        -3.4430   30.5090  123.7700 C.ar   59  G59         0.1748
   1263  C6        -3.0420   29.2420  124.2710 C.ar   59  G59         0.3023
   1264  O6        -3.6360   28.1610  124.2010 O.2    59  G59        -0.2633
   1265  N7        -4.5830   30.8950  123.0770 N.ar   59  G59        -0.2173
   1266  C8        -4.4260   32.1760  122.8690 C.ar   59  G59         0.1817
   1267  N9        -3.2540   32.6570  123.3950 N.ar   59  G59        -0.2693
   1268  OP1       -6.3240   36.0150  118.6870 O.2    59  G59        -0.5172
   1269  OP2       -7.2070   33.7220  119.4300 O.co2  59  G59        -0.4373
   1270  P         -0.5410   33.8290  119.1130 P.3    60  G60         0.2141
   1271  C5'        1.5560   33.8410  120.6740 C.3    60  G60         0.1812
   1272  O5'        0.6310   33.0930  119.9030 O.3    60  G60        -0.3114
   1273  C4'        2.2850   32.9850  121.6800 C.3    60  G60         0.1773
   1274  O4'        1.3540   32.3270  122.5790 O.3    60  G60        -0.3307
   1275  C3'        3.1070   31.8370  121.1290 C.3    60  G60         0.1860
   1276  O3'        4.3270   32.2430  120.5400 O.3    60  G60        -0.3112
   1277  C2'        3.2850   30.9580  122.3570 C.3    60  G60         0.2309
   1278  O2'        4.2740   31.5000  123.2200 O.3    60  G60        -0.2156
   1279  C1'        1.9190   31.1080  123.0290 C.3    60  G60         0.2408
   1280  N1         1.0220   26.1840  123.7590 N.ar   60  G60        -0.1709
   1281  C2         2.0100   26.9860  124.2750 C.ar   60  G60         0.2606
   1282  N2         2.8790   26.3970  125.1110 N.pl3  60  G60        -0.0859
   1283  N3         2.1270   28.2740  124.0030 N.ar   60  G60        -0.1918
   1284  C4         1.1680   28.7000  123.1510 C.ar   60  G60         0.1723
   1285  C5         0.1430   27.9820  122.5760 C.ar   60  G60         0.1748
   1286  C6         0.0240   26.5980  122.8800 C.ar   60  G60         0.3023
   1287  O6        -0.8150   25.7840  122.4740 O.2    60  G60        -0.2633
   1288  N7        -0.6240   28.8020  121.7580 N.ar   60  G60        -0.2173
   1289  C8        -0.0620   29.9780  121.8490 C.ar   60  G60         0.1817
   1290  N9         1.0270   29.9850  122.6840 N.ar   60  G60        -0.2693
   1291  OP1        0.0480   34.5970  117.9880 O.2    60  G60        -0.5172
   1292  OP2       -1.5920   32.8090  118.8600 O.co2  60  G60        -0.4373
   1293  P          4.9980   31.3210  119.4100 P.3    61  G61         0.2141
   1294  C5'        6.5440   30.1340  121.1530 C.3    61  G61         0.1812
   1295  O5'        5.4920   30.0310  120.2050 O.3    61  G61        -0.3114
   1296  C4'        6.7060   28.8800  121.9770 C.3    61  G61         0.1773
   1297  O4'        5.4440   28.4950  122.5850 O.3    61  G61        -0.3307
   1298  C3'        7.1410   27.6230  121.2450 C.3    61  G61         0.1860
   1299  O3'        8.5220   27.6030  120.9320 O.3    61  G61        -0.3112
   1300  C2'        6.7260   26.5290  122.2170 C.3    61  G61         0.2309
   1301  O2'        7.6470   26.4450  123.2940 O.3    61  G61        -0.2156
   1302  C1'        5.4080   27.0900  122.7520 C.3    61  G61         0.2408
   1303  N1         2.6130   22.9510  121.8850 N.ar   61  G61        -0.1709
   1304  C2         3.7030   23.1150  122.7040 C.ar   61  G61         0.2606
   1305  N2         4.1000   22.0260  123.3820 N.pl3  61  G61        -0.0859
   1306  N3         4.3510   24.2600  122.8460 N.ar   61  G61        -0.1918
   1307  C4         3.8110   25.2390  122.0890 C.ar   61  G61         0.1723
   1308  C5         2.7270   25.1760  121.2410 C.ar   61  G61         0.1748
   1309  C6         2.0380   23.9440  121.0970 C.ar   61  G61         0.3023
   1310  O6         1.0530   23.6840  120.3930 O.2    61  G61        -0.2633
   1311  N7         2.4960   26.4110  120.6490 N.ar   61  G61        -0.2173
   1312  C8         3.4260   27.1860  121.1370 C.ar   61  G61         0.1817
   1313  N9         4.2520   26.5390  122.0200 N.ar   61  G61        -0.2693
   1314  OP1        6.1950   32.0260  118.8830 O.3    61  G61        -0.4373
   1315  OP2        3.9170   30.9000  118.4850 O.co2  61  G61        -0.5172
   1316  P          9.0460   26.7530  119.6720 P.3    62  C62         0.2141
   1317  C5'        9.5370   24.6370  121.1380 C.3    62  C62         0.1812
   1318  O5'        8.7910   25.2340  120.0870 O.3    62  C62        -0.3114
   1319  C4'        9.0180   23.2660  121.5040 C.3    62  C62         0.1773
   1320  O4'        7.5990   23.3210  121.8110 O.3    62  C62        -0.3307
   1321  C3'        9.1060   22.1900  120.4350 C.3    62  C62         0.1860
   1322  O3'       10.4050   21.6560  120.2660 O.3    62  C62        -0.3112
   1323  C2'        8.0930   21.1710  120.9310 C.3    62  C62         0.2309
   1324  O2'        8.6240   20.4360  122.0230 O.3    62  C62        -0.2156
   1325  C1'        6.9930   22.0870  121.4640 C.3    62  C62         0.2420
   1326  N1         5.9430   22.3200  120.4450 N.ar   62  C62        -0.2535
   1327  C2         5.0480   21.2810  120.1560 C.ar   62  C62         0.3532
   1328  O2         5.1390   20.1980  120.7540 O.2    62  C62        -0.2443
   1329  N3         4.0890   21.4770  119.2250 N.ar   62  C62        -0.1739
   1330  C4         4.0020   22.6440  118.5900 C.ar   62  C62         0.1759
   1331  N4         3.0360   22.7860  117.6800 N.pl3  62  C62        -0.1070
   1332  C5         4.8990   23.7170  118.8610 C.ar   62  C62         0.0566
   1333  C6         5.8460   23.5130  119.7850 C.ar   62  C62         0.0850
   1334  OP1       10.5130   26.9540  119.5600 O.3    62  C62        -0.4373
   1335  OP2        8.1700   27.0780  118.5180 O.co2  62  C62        -0.5172
   1336  P         10.8580   21.1080  118.8250 P.3    63  A63         0.2141
   1337  C5'       10.5120   18.5960  119.4890 C.3    63  A63         0.1812
   1338  O5'       10.1220   19.7000  118.6870 O.3    63  A63        -0.3114
   1339  C4'        9.5400   17.4460  119.3890 C.3    63  A63         0.1773
   1340  O4'        8.1930   17.8980  119.6890 O.3    63  A63        -0.3307
   1341  C3'        9.4000   16.7860  118.0270 C.3    63  A63         0.1860
   1342  O3'       10.4550   15.8920  117.7210 O.3    63  A63        -0.3112
   1343  C2'        8.0420   16.1070  118.1350 C.3    63  A63         0.2309
   1344  O2'        8.1380   14.9120  118.8980 O.3    63  A63        -0.2156
   1345  C1'        7.2590   17.1360  118.9490 C.3    63  A63         0.2408
   1346  N1         3.0940   17.5660  115.9650 N.ar   63  A63        -0.2040
   1347  C2         3.5900   16.5500  116.6830 C.ar   63  A63         0.2016
   1348  N3         4.6850   16.5120  117.4400 N.ar   63  A63        -0.2048
   1349  C4         5.3190   17.6980  117.4220 C.ar   63  A63         0.1692
   1350  C5         4.9320   18.8330  116.7340 C.ar   63  A63         0.1518
   1351  C6         3.7560   18.7450  115.9700 C.ar   63  A63         0.1919
   1352  N6         3.2630   19.7590  115.2550 N.pl3  63  A63        -0.1054
   1353  N7         5.8300   19.8690  116.9520 N.ar   63  A63        -0.2193
   1354  C8         6.7250   19.3460  117.7550 C.ar   63  A63         0.1816
   1355  N9         6.4750   18.0360  118.0820 N.ar   63  A63        -0.2693
   1356  OP1       12.3200   20.8630  118.8760 O.3    63  A63        -0.4373
   1357  OP2       10.2930   22.0210  117.8010 O.co2  63  A63        -0.5172
   1358  P         10.8380   15.6060  116.1870 P.3    64  A64         0.2141
   1359  C5'        9.3670   13.4330  116.1900 C.3    64  A64         0.1813
   1360  O5'        9.6280   14.7190  115.6450 O.3    64  A64        -0.3114
   1361  C4'        8.1040   12.8320  115.6230 C.3    64  A64         0.1801
   1362  O4'        6.9600   13.6580  115.9650 O.3    64  A64        -0.3306
   1363  C3'        8.0370   12.7220  114.1090 C.3    64  A64         0.2161
   1364  O3'        8.7490   11.6060  113.6050 O.3    64  A64        -0.2175
   1365  C2'        6.5380   12.6630  113.8480 C.3    64  A64         0.2337
   1366  O2'        6.0310   11.3620  114.1060 O.3    64  A64        -0.2155
   1367  C1'        6.0050   13.6100  114.9240 C.3    64  A64         0.2409
   1368  N1         2.8390   16.7820  112.3810 N.ar   64  A64        -0.2040
   1369  C2         2.7330   15.4920  112.7260 C.ar   64  A64         0.2016
   1370  N3         3.5970   14.7250  113.3900 N.ar   64  A64        -0.2048
   1371  C4         4.6990   15.4240  113.7180 C.ar   64  A64         0.1692
   1372  C5         4.9510   16.7530  113.4340 C.ar   64  A64         0.1518
   1373  C6         3.9590   17.4530  112.7280 C.ar   64  A64         0.1919
   1374  N6         4.0700   18.7380  112.3870 N.pl3  64  A64        -0.1054
   1375  N7         6.1890   17.1370  113.9290 N.ar   64  A64        -0.2193
   1376  C8         6.6530   16.0490  114.4940 C.ar   64  A64         0.1816
   1377  N9         5.8020   14.9750  114.4050 N.ar   64  A64        -0.2693
   1378  OP1       12.0670   14.7750  116.1740 O.3    64  A64        -0.4373
   1379  OP2       10.8250   16.9050  115.4650 O.co2  64  A64        -0.5172
@<TRIPOS>BOND
     1   337   338   ar
     2   337   342   ar
     3   444   443    1
     4   460   462    1
     5   460   461    1
     6   343   342    1
     7   338   339   ar
     8   462   463    1
     9   462   464    1
    10   760   739    2
    11   477   459    2
    12   500   479    2
    13   342   341   ar
    14   465   464    1
    15   465   479    1
    16   467   466    1
    17   704   703    1
    18   717   719    1
    19   717   718    1
    20   442   459    1
    21   442   441    1
    22   737   716    2
    23   722   739    1
    24   722   721    1
    25   463   468    1
    26   719   721    1
    27   719   720    1
    28   407   406    1
    29   464   466    1
    30   724   723    1
    31   339   340   ar
    32   461   459    1
    33   459   478    1
    34   702   716    1
    35   702   701    1
    36   479   481    1
    37   479   501    1
    38   443   441    1
    39   443   445    1
    40   439   441    1
    41   439   440    1
    42   439   437    1
    43   739   761    1
    44   739   741    1
    45   480   481    1
    46   480   482    1
    47   466   468    1
    48   341   340   ar
    49   341   344   ar
    50   721   723    1
    51   468   469    1
    52   720   725    1
    53   718   716    1
    54   716   738    1
    55   440   445    1
    56   406   401   ar
    57   406   405   ar
    58   340   346   ar
    59   445   456    1
    60   703   701    1
    61   703   705    1
    62   699   701    1
    63   699   700    1
    64   699   697    1
    65   412   391    2
    66   401   402   ar
    67   437   438    1
    68   740   741    1
    69   740   742    1
    70   723   725    1
    71   379   378    1
    72   482   483    1
    73   482   484    1
    74   700   705    1
    75   725   736    1
    76   344   345   ar
    77   697   698    1
    78   705   706    1
    79   405   408   ar
    80   405   404   ar
    81   408   409   ar
    82   378   376    1
    83   378   380    1
    84   402   403   ar
    85   421   420    1
    86   425   424    1
    87   483   488    1
    88   346   345   ar
    89   346   336    1
    90   469   476   ar
    91   469   470   ar
    92   449   450   ar
    93   449   447   ar
    94   376   377    1
    95   376   374    1
    96   708   707    2
    97   684   683    1
    98   742   743    1
    99   742   744    1
   100   448   447    1
   101   456   450   ar
   102   456   455   ar
   103   485   484    1
   104   485   502    1
   105   391   377    1
   106   391   393    1
   107   391   411    1
   108   390   371    2
   109   438   436    1
   110   389   371    1
   111   372   374    1
   112   372   373    1
   113   476   475   ar
   114   404   403   ar
   115   404   410   ar
   116   471   470    2
   117   484   486    1
   118   457   436    2
   119   336   331    1
   120   336   334    1
   121   386   385    1
   122   409   410   ar
   123   450   451   ar
   124   385   384   ar
   125   385   387   ar
   126   447   446   ar
   127   384   382   ar
   128   523   502    2
   129   387   388   ar
   130   698   696    1
   131   736   735   ar
   132   736   730   ar
   133   706   707   ar
   134   706   713   ar
   135   470   472   ar
   136   393   392    1
   137   382   383    2
   138   382   381   ar
   139   743   748    1
   140   745   744    1
   141   745   762    1
   142   388   381   ar
   143   381   380    1
   144   424   426   ar
   145   424   423   ar
   146   426   427   ar
   147   420   422    1
   148   420   418    1
   149   783   762    2
   150   371   373    1
   151   371   355    1
   152   374   375    1
   153   714   696    2
   154   707   709   ar
   155   380   375    1
   156   410   400    1
   157   487   486    1
   158   488   486    1
   159   488   499    1
   160   335   334    1
   161   744   746    1
   162   688   687    2
   163   331   330    1
   164   436   419    1
   165   436   458    1
   166   455   454   ar
   167   735   734   ar
   168   419   418    1
   169   502   524    1
   170   502   504    1
   171   683   685    1
   172   683   681    1
   173   395   400    1
   174   395   394    1
   175   370   349    2
   176   682   696    1
   177   682   681    1
   178   475   473   ar
   179   334   332    1
   180   422   417    1
   181   422   433    1
   182   696   715    1
   183   762   784    1
   184   762   764    1
   185   498   499   ar
   186   498   497   ar
   187   713   712   ar
   188   729   730   ar
   189   729   727   ar
   190   730   731   ar
   191   418   416    1
   192   499   493   ar
   193   451   454   ar
   194   451   452   ar
   195   423   429   ar
   196   446   452   ar
   197   472   473   ar
   198   400   398    1
   199   333   332    1
   200   333   349    1
   201   685   680    1
   202   685   686    1
   203   392   394    1
   204   427   433   ar
   205   427   428   ar
   206   748   746    1
   207   748   759    1
   208   709   710   ar
   209   681   679    1
   210   747   746    1
   211   355   354    1
   212   687   686   ar
   213   687   689   ar
   214   758   759   ar
   215   758   757   ar
   216   416   417    1
   217   416   414    1
   218   504   503    1
   219   330   332    1
   220   330   328    1
   221   433   432   ar
   222   734   731   ar
   223   394   396    1
   224   473   474    2
   225   349   369    1
   226   349   351    1
   227   679   680    1
   228   679   677    1
   229   497   494   ar
   230   452   453    2
   231   759   753   ar
   232   108    90    2
   233   731   732   ar
   234   686   693   ar
   235   764   763    1
   236   727   728    1
   237   727   726   ar
   238   347   327    2
   239   712   710   ar
   240   689   690   ar
   241   354   356    1
   242   354   352    1
   243   493   494   ar
   244   493   492   ar
   245   710   711    1
   246   757   754   ar
   247   398   396    1
   248   398   399    1
   249   429   428   ar
   250   429   430    2
   251   428   431   ar
   252   329   328    1
   253   329   327    1
   254   348   327    1
   255   131   110    2
   256   665   664   ar
   257   665   666   ar
   258   351   350    1
   259   327   310    1
   260   494   495   ar
   261   503   505    1
   262   414   415    1
   263   396   397    1
   264   432   431   ar
   265   492   490   ar
   266   356   357    1
   267   356   358    1
   268   664   669   ar
   269   350   352    1
   270   677   678    1
   271   359   360   ar
   272   359   364   ar
   273   365   364    1
   274   360   361   ar
   275   364   363   ar
   276   415   413    1
   277   726   732   ar
   278   666   667   ar
   279   732   733    2
   280   753   754   ar
   281   753   752   ar
   282   763   765    1
   283   693   692   ar
   284   352   353    1
   285    90    76    1
   286    90    92    1
   287    90   109    1
   288   361   362   ar
   289   690   692   ar
   290   690   691    1
   291   363   362   ar
   292   363   366   ar
   293   754   755   ar
   294   397   413    1
   295    91    92    1
   296    91    93    1
   297   362   368   ar
   298    76    75    1
   299   366   367   ar
   300   506   505    1
   301   506   511    1
   302   505   507    1
   303    96   110    1
   304    96    95    1
   305   110   132    1
   306   110   112    1
   307   368   367   ar
   308   368   358    1
   309    88    70    2
   310   662   661    1
   311   495   496    2
   312   495   489   ar
   313   678   676    1
   314   490   489   ar
   315   490   491    1
   316   358   353    1
   317   752   750   ar
   318   669   670    1
   319   669   668   ar
   320   310   309    1
   321   413   434    2
   322   413   435    1
   323   765   766    1
   324   765   767    1
   325   667   668   ar
   326   667   673   ar
   327    93    95    1
   328    93    94    1
   329   766   771    1
   330    71    73    1
   331    71    72    1
   332   521   520   ar
   333   521   522   ar
   334   661   663    1
   335   661   659    1
   336   755   756    2
   337   755   749   ar
   338    95    97    1
   339    73    75    1
   340    73    74    1
   341    75    77    1
   342   112   111    1
   343   325   304    2
   344    78    77    1
   345   511   522    1
   346   511   509    1
   347   668   671   ar
   348   326   304    1
   349   520   517   ar
   350   309   311    1
   351   309   307    1
   352   507   508    1
   353   507   509    1
   354    70    72    1
   355    70    53    1
   356    70    89    1
   357   781   780   ar
   358   781   782   ar
   359   546   525    2
   360   663   673    1
   361   663   658    1
   362   522   516   ar
   363   750   749   ar
   364   750   751    1
   365   673   672   ar
   366   676   694    2
   367   676   660    1
   368   676   695    1
   369   508   525    1
   370   111   113    1
   371   304   306    1
   372   304   290    1
   373   311   312    1
   374   311   313    1
   375    77    79    1
   376   306   305    1
   377   547   525    1
   378   660   659    1
   379    53    52    1
   380   767   768    1
   381   767   769    1
   382    94    99    1
   383   771   782    1
   384   771   769    1
   385   780   777   ar
   386   807   785    2
   387    98    97    1
   388   509   510    1
   389   525   527    1
   390   659   657    1
   391   768   785    1
   392    97    99    1
   393    74    79    1
   394   782   776   ar
   395   305   307    1
   396   321   320    2
   397   322   323   ar
   398   322   319   ar
   399   517   516   ar
   400   517   518   ar
   401   671   672   ar
   402   307   308    1
   403   151   133    2
   404   152   133    1
   405   543   544   ar
   406   543   540   ar
   407   323   324   ar
   408   320   319   ar
   409   320   314   ar
   410    55    54    1
   411   319   318   ar
   412   516   515   ar
   413   542   541    2
   414   658   657    1
   415   785   806    1
   416   785   787    1
   417   769   770    1
   418   314   315   ar
   419   324   318   ar
   420   324   313    1
   421   318   317   ar
   422    79    80    1
   423    99   100    1
   424   657   655    1
   425   113   114    1
   426   113   115    1
   427   303   284    2
   428   544   545   ar
   429   313   308    1
   430   315   317   ar
   431   315   316    1
   432   302   284    1
   433   133   116    1
   434   133   135    1
   435    52    54    1
   436    52    50    1
   437   290   289    1
   438   777   776   ar
   439   777   778   ar
   440   802   801    2
   441   107   100   ar
   442   107   106   ar
   443   564   563    1
   444   518   519    2
   445   518   512   ar
   446   541   540   ar
   447   541   535   ar
   448   776   775   ar
   449   540   539   ar
   450   647   645   ar
   451   647   648   ar
   452   649   648    1
   453    54    56    1
   454   646   645    2
   455   116   115    1
   456   233   232    2
   457    50    48    1
   458    50    51    1
   459   527   526    1
   460   803   804   ar
   461   803   800   ar
   462   515   513   ar
   463   284   286    1
   464   284   267    1
   465   100   101   ar
   466   114   119    1
   467    48    49    1
   468   115   117    1
   469   231   232   ar
   470   231   229   ar
   471    68    47    2
   472   282   261    2
   473   170   169    2
   474   283   261    1
   475    80    87   ar
   476    80    81   ar
   477   289   291    1
   478   289   287    1
   479   259   238    2
   480   286   285    1
   481   645   644   ar
   482   648   650   ar
   483   106   104   ar
   484   230   229    2
   485   787   786    1
   486   232   234   ar
   487   801   800   ar
   488   801   795   ar
   489   545   539   ar
   490   545   534    1
   491    87    86   ar
   492   804   805   ar
   493   778   779    2
   494   778   772   ar
   495   529   534    1
   496   529   528    1
   497   655   656    1
   498   800   799   ar
   499   260   238    1
   500   512   513   ar
   501   526   528    1
   502   229   228   ar
   503   135   134    1
   504   539   538   ar
   505   513   514    1
   506   775   773   ar
   507   535   536   ar
   508   129   128   ar
   509   129   130   ar
   510   299   298    1
   511   563   558   ar
   512   563   562   ar
   513   261   263    1
   514   261   244    1
   515   285   287    1
   516    49    47    1
   517    82    81    2
   518   300   298   ar
   519   300   301   ar
   520    56    51    1
   521    56    67    1
   522   656   654    1
   523   291   292    1
   524   291   293    1
   525   629   628    1
   526    81    83   ar
   527   238   240    1
   528   238   224    1
   529   298   297   ar
   530   534   532    1
   531   101   102    2
   532   101   103   ar
   533   301   294   ar
   534   267   266    1
   535   786   788    1
   536   119   117    1
   537   119   130    1
   538   287   288    1
   539    47    30    1
   540    47    69    1
   541   169   163   ar
   542   169   168   ar
   543   128   125   ar
   544   558   559   ar
   545   117   118    1
   546   528   530    1
   547   149   150   ar
   548   149   147   ar
   549   565   562   ar
   550   565   566   ar
   551   234   235   ar
   552   795   796   ar
   553    86    84   ar
   554   644   651   ar
   555   644   643    1
   556   240   239    1
   557   297   295   ar
   558   104   103   ar
   559   104   105    1
   560   772   773   ar
   561   130   124   ar
   562   650   651   ar
   563   148   147    2
   564   134   136    1
   565   805   799   ar
   566   805   794    1
   567   562   561   ar
   568   263   262    1
   569   228   235   ar
   570   228   227    1
   571   773   774    1
   572   225   226    1
   573   225   227    1
   574   225   223    1
   575   294   295   ar
   576   294   293    1
   577   799   798   ar
   578   536   538   ar
   579   536   537    1
   580   175   153    2
   581   641   642    1
   582   641   643    1
   583   641   639    1
   584   295   296    2
   585   171   168   ar
   586   171   172   ar
   587   244   243    1
   588   789   788    1
   589   789   794    1
   590   163   164   ar
   591    30    29    1
   592   266   264    1
   593   266   268    1
   594   293   288    1
   595   150   143   ar
   596   147   146   ar
   597    60    61   ar
   598    60    58   ar
   599    67    61   ar
   600    67    66   ar
   601    83    84   ar
   602   168   167   ar
   603   239   241    1
   604   643   638    1
   605   628   627   ar
   606   628   630   ar
   607    32    31    1
   608   262   264    1
   609   788   790    1
   610   227   222    1
   611   224   223    1
   612   654   675    2
   613   654   674    1
   614   654   640    1
   615    59    58    1
   616   627   625   ar
   617   213   212    1
   618   530   532    1
   619   530   531    1
   620    84    85    2
   621   223   221    1
   622   532   533    1
   623   796   798   ar
   624   796   797    1
   625    61    62   ar
   626   125   124   ar
   627   125   126   ar
   628   566   567   ar
   629   794   792    1
   630   559   560   ar
   631   243   241    1
   632   243   245    1
   633    58    57   ar
   634   124   123   ar
   635   569   548    2
   636    66    65   ar
   637   639   640    1
   638   639   637    1
   639   264   265    1
   640   946   945    1
   641   561   560   ar
   642   561   567   ar
   643   790   792    1
   644   790   791    1
   645   136   137    1
   646   136   138    1
   647   268   269    1
   648   268   270    1
   649   172   173   ar
   650    31    29    1
   651    31    33    1
   652   153   139    1
   653   153   174    1
   654   153   155    1
   655   241   242    1
   656   279   280   ar
   657   279   276   ar
   658   630   631   ar
   659   828   808    2
   660   137   142    1
   661    29    27    1
   662   829   808    1
   663   280   281   ar
   664   138   139    1
   665   138   140    1
   666   164   165    1
   667   164   166   ar
   668   143   142    1
   669   143   144   ar
   670   146   144   ar
   671   167   173   ar
   672   167   166   ar
   673   278   277    2
   674   212   211   ar
   675   212   214   ar
   676   638   637    1
   677   907   906   ar
   678   907   908   ar
   679   625   626    2
   680   625   624   ar
   681   567   557    1
   682   930   929    2
   683   531   548    1
   684   792   793    1
   685   211   209   ar
   686   222   221    1
   687   126   127    2
   688   126   120   ar
   689    62    65   ar
   690    62    63   ar
   691   276   277   ar
   692   276   275   ar
   693   950   949    2
   694   885   884    1
   695   926   925    1
   696   281   270    1
   697   281   275   ar
   698   947   942    1
   699   947   945    1
   700   947   948    1
   701    36    35    1
   702   942   941    1
   703   808   791    1
   704   808   810    1
   705   277   271   ar
   706   221   219    1
   707    57    63   ar
   708   123   121   ar
   709   906   911   ar
   710   245   246    1
   711   245   247    1
   712   265   270    1
   713   548   568    1
   714   548   550    1
   715   155   154    1
   716   173   162    1
   717   142   140    1
   718   275   274   ar
   719   637   635    1
   720   144   145    2
   721    27    25    1
   722    27    28    1
   723   945   943    1
   724   941   939    1
   725   941   943    1
   726   257   256   ar
   727   257   258   ar
   728   242   247    1
   729   197   176    2
   730   908   909   ar
   731   631   624   ar
   732   271   272   ar
   733    63    64    2
   734    37    35   ar
   735    37    38   ar
   736   140   141    1
   737   256   253   ar
   738   962   961    1
   739   962   967    1
   740   966   965    1
   741   883   884   ar
   742   883   889   ar
   743   624   623    1
   744    33    28    1
   745    33    44    1
   746    35    34   ar
   747   214   215   ar
   748   274   272   ar
   749   949   948   ar
   750   949   951   ar
   751   961   959    1
   752   961   963    1
   753   219   220    1
   754   272   273    1
   755   884   886   ar
   756   929   931   ar
   757   929   928   ar
   758   948   955   ar
   759   209   210    2
   760   209   208   ar
   761   636   635    1
   762   636   634    1
   763   927   925    1
   764   927   922    1
   765   927   928    1
   766   120   121   ar
   767   258   247    1
   768   258   252   ar
   769   959   960    1
   770    25    26    1
   771   925   923    1
   772   121   122    1
   773   939   940    1
   774   943   944    1
   775   944   958    1
   776   557   552    1
   777   557   555    1
   778   653   634    2
   779   847   846    2
   780   967   965    1
   781   967   968    1
   782   550   549    1
   783   253   252   ar
   784   253   254   ar
   785   911   912    1
   786   911   910   ar
   787   890   889    2
   788   552   551    1
   789    38    44   ar
   790    38    39   ar
   791   196   176    1
   792   192   191    1
   793   810   809    1
   794   931   932   ar
   795   252   251   ar
   796    44    43   ar
   797   154   156    1
   798   922   921    1
   799   162   157    1
   800   162   160    1
   801   928   935   ar
   802   889   888   ar
   803   255   254    2
   804    34    40   ar
   805   176   159    1
   806   176   178    1
   807   951   952   ar
   808   965   963    1
   809    26    24    1
   810   909   910   ar
   811   909   915   ar
   812   158   160    1
   813   158   156    1
   814   158   159    1
   815   254   248   ar
   816   157   156    1
   817   555   556    1
   818   555   553    1
   819   215   208   ar
   820   963   964    1
   821   621   623    1
   822   621   619    1
   823   621   622    1
   824   634   652    1
   825   634   620    1
   826   964   978    1
   827   955   954   ar
   828   160   161    1
   829    45    24    2
   830   208   207    1
   831   623   618    1
   832   193   194   ar
   833   193   190   ar
   834   886   887   ar
   835   960   958    1
   836   251   249   ar
   837   921   923    1
   838   921   919    1
   839   910   913   ar
   840   549   551    1
   841   220   218    1
   842   970   969    2
   843   968   969   ar
   844   968   975   ar
   845   809   811    1
   846   923   924    1
   847   976   958    2
   848   846   840   ar
   849   846   845   ar
   850   940   938    1
   851   904   903    1
   852    39    40   ar
   853    39    42   ar
   854   248   249   ar
   855   619   620    1
   856   619   617    1
   857   958   977    1
   858   924   938    1
   859   581   580   ar
   860   581   582   ar
   861   868   867    1
   862    40    41    2
   863    43    42   ar
   864   825   826   ar
   865   825   822   ar
   866   249   250    1
   867   551   553    1
   868   580   585   ar
   869   952   954   ar
   870   952   953    1
   871   191   190   ar
   872   191   186   ar
   873   178   177    1
   874    24    46    1
   875    24     7    1
   876   826   827   ar
   877   600   599    1
   878   932   933    1
   879   932   934   ar
   880   969   971   ar
   881   905   915    1
   882   905   903    1
   883   905   900    1
   884   915   914   ar
   885   194   195   ar
   886   975   974   ar
   887   840   841   ar
   888   888   887   ar
   889   888   891   ar
   890   190   189   ar
   891   237   218    2
   892   935   934   ar
   893   618   617    1
   894   887   893   ar
   895   903   901    1
   896   996   978    2
   897   582   583   ar
   898   553   554    1
   899   205   207    1
   900   205   203    1
   901   205   206    1
   902   848   845   ar
   903   848   849   ar
   904   207   202    1
   905   845   844   ar
   906   938   956    2
   907   938   957    1
   908   978   980    1
   909   978   997    1
   910   596   595    1
   911   596   601    1
   912   866   867   ar
   913   866   864   ar
   914   595   593    1
   915   595   597    1
   916   812   811    1
   917   812   817    1
   918    13    12    1
   919   218   236    1
   920   218   204    1
   921   617   615    1
   922   824   823    1
   923   919   920    1
   924   979   980    1
   925   979   981    1
   926   913   914   ar
   927   601   599    1
   928   601   611    1
   929   585   586    1
   930   585   584   ar
   931   867   869   ar
   932   811   813    1
   933   217   198    2
   934   604   603   ar
   935   604   605   ar
   936   186   187   ar
   937   615   616    1
   938   822   823   ar
   939   822   821   ar
   940   971   972   ar
   941   900   899    1
   942   974   972   ar
   943   203   204    1
   944   203   201    1
   945     7     6    1
   946     9     8    1
   947   593   594    1
   948   599   597    1
   949   598   597    1
   950   598   614    1
   951   827   817    1
   952   827   821   ar
   953   982   981    1
   954   982   987    1
   955   177   179    1
   956   583   584   ar
   957   583   589   ar
   958   603   602   ar
   959   554   570    1
   960   891   892   ar
   961   852   830    2
   962   195   189   ar
   963   195   185    1
   964   841   842    1
   965   841   843   ar
   966   981   983    1
   967   189   188   ar
   968   823   818   ar
   969   972   973    1
   970   584   587   ar
   971   893   892   ar
   972   893   882    1
   973    12    14   ar
   974    12    11   ar
   975   202   201    1
   976   849   850   ar
   977   865   864    2
   978     8     6    1
   979     8    10    1
   980   864   863   ar
   981   920   918    1
   982   817   815    1
   983   591   570    2
   984   844   843   ar
   985   844   850   ar
   986   611   605   ar
   987   611   610   ar
   988   200   198    1
   989   200   199    1
   990   901   899    1
   991   901   902    1
   992   605   606   ar
   993   813   814    1
   994   813   815    1
   995   633   614    2
   996    14    15   ar
   997   821   820   ar
   998   574   579    1
   999   574   573    1
  1000    11    17   ar
  1001   899   897    1
  1002   869   870   ar
  1003     6     4    1
  1004   180   179    1
  1005   180   185    1
  1006   616   614    1
  1007   589   579    1
  1008   589   588   ar
  1009   187   188   ar
  1010   579   577    1
  1011   882   880    1
  1012   882   877    1
  1013   198   182    1
  1014   198   216    1
  1015   201   199    1
  1016   614   632    1
  1017   181   179    1
  1018   181   182    1
  1019   181   183    1
  1020   602   607   ar
  1021   902   918    1
  1022   987   988    1
  1023   987   985    1
  1024   881   880    1
  1025   570   572    1
  1026   570   590    1
  1027   850   839    1
  1028   185   183    1
  1029   594   592    1
  1030   814   830    1
  1031   587   588   ar
  1032   880   878    1
  1033   576   592    1
  1034   576   575    1
  1035   612   592    2
  1036   830   832    1
  1037   830   851    1
  1038   818   819   ar
  1039   815   816    1
  1040    15    21   ar
  1041    15    16   ar
  1042   995   988   ar
  1043   995   994   ar
  1044   573   575    1
  1045   573   571    1
  1046   610   609   ar
  1047   606   607   ar
  1048   606   609   ar
  1049   983   984    1
  1050   983   985    1
  1051    17    16   ar
  1052    17    18    2
  1053   863   870   ar
  1054   863   862    1
  1055   918   937    2
  1056   918   936    1
  1057   183   184    1
  1058    10    21    1
  1059    10     5    1
  1060   986   985    1
  1061   988   989   ar
  1062   607   608    1
  1063   820   819   ar
  1064   572   571    1
  1065   592   613    1
  1066    21    20   ar
  1067    16    19   ar
  1068   984   998    1
  1069   994   992   ar
  1070   877   876    1
  1071     4     5    1
  1072     4     2    1
  1073   832   831    1
  1074   897   898    1
  1075   575   577    1
  1076   577   578    1
  1077   839   834    1
  1078   839   837    1
  1079   989   990    2
  1080   989   991   ar
  1081   898   896    1
  1082   834   833    1
  1083   878   876    1
  1084   878   879    1
  1085   862   860    1
  1086   862   857    1
  1087    20    19   ar
  1088   992   991   ar
  1089   992   993    2
  1090     2     3    1
  1091     3     1    1
  1092   876   874    1
  1093   998  1017    2
  1094   998  1016    1
  1095   998  1000    1
  1096   860   861    1
  1097   860   858    1
  1098   831   833    1
  1099   879   896    1
  1100   837   835    1
  1101   837   838    1
  1102   857   856    1
  1103   833   835    1
  1104   835   836    1
  1105     1    22    1
  1106     1    23    1
  1107   896   917    2
  1108   896   916    1
  1109   872   853    2
  1110   875   874    1
  1111   875   873    1
  1112   858   856    1
  1113   858   859    1
  1114  1000   999    1
  1115   999  1001    1
  1116  1368  1369   ar
  1117  1368  1373   ar
  1118  1374  1373    1
  1119   855   853    1
  1120   855   854    1
  1121   895   873    2
  1122   856   854    1
  1123  1002  1001    1
  1124  1002  1007    1
  1125   836   853    1
  1126  1369  1370   ar
  1127  1373  1372   ar
  1128   853   871    1
  1129  1014  1015   ar
  1130  1014  1012   ar
  1131   873   859    1
  1132   873   894    1
  1133  1015  1008   ar
  1134  1001  1003    1
  1135  1370  1371   ar
  1136  1372  1371   ar
  1137  1372  1375   ar
  1138  1364  1363    1
  1139  1371  1377   ar
  1140  1008  1007    1
  1141  1008  1009   ar
  1142  1012  1013    2
  1143  1012  1011   ar
  1144  1007  1005    1
  1145  1365  1366    1
  1146  1365  1363    1
  1147  1365  1367    1
  1148  1375  1376   ar
  1149  1363  1361    1
  1150  1377  1376   ar
  1151  1377  1367    1
  1152  1011  1009   ar
  1153  1009  1010    2
  1154  1003  1005    1
  1155  1003  1004    1
  1156  1367  1362    1
  1157  1005  1006    1
  1158  1352  1351    1
  1159  1004  1018    1
  1160  1379  1358    2
  1161  1361  1362    1
  1162  1361  1359    1
  1163  1360  1358    1
  1164  1360  1359    1
  1165  1346  1351   ar
  1166  1346  1347   ar
  1167  1351  1350   ar
  1168  1378  1358    1
  1169  1358  1342    1
  1170  1347  1348   ar
  1171  1350  1353   ar
  1172  1350  1349   ar
  1173  1018  1040    2
  1174  1018  1039    1
  1175  1018  1020    1
  1176  1353  1354   ar
  1177  1036  1037   ar
  1178  1036  1033   ar
  1179  1349  1348   ar
  1180  1349  1355   ar
  1181  1037  1038   ar
  1182  1331  1330    1
  1183  1020  1019    1
  1184  1342  1341    1
  1185  1354  1355   ar
  1186  1035  1034    2
  1187  1357  1336    2
  1188  1291  1270    2
  1189  1341  1343    1
  1190  1341  1339    1
  1191  1033  1034   ar
  1192  1033  1032   ar
  1193  1355  1345    1
  1194  1343  1344    1
  1195  1343  1345    1
  1196  1022  1027    1
  1197  1022  1021    1
  1198  1034  1028   ar
  1199  1038  1032   ar
  1200  1038  1027    1
  1201  1315  1293    2
  1202  1335  1316    2
  1203  1330  1332   ar
  1204  1330  1329   ar
  1205  1032  1031   ar
  1206  1027  1025    1
  1207  1268  1247    2
  1208  1338  1336    1
  1209  1338  1337    1
  1210  1336  1356    1
  1211  1336  1322    1
  1212  1292  1270    1
  1213  1332  1333   ar
  1214  1314  1293    1
  1215  1028  1029   ar
  1216  1345  1340    1
  1217  1019  1021    1
  1218  1270  1272    1
  1219  1270  1253    1
  1220  1329  1327   ar
  1221  1021  1023    1
  1222  1031  1029   ar
  1223  1339  1337    1
  1224  1339  1340    1
  1225  1293  1295    1
  1226  1293  1276    1
  1227  1269  1247    1
  1228  1029  1030    1
  1229  1334  1316    1
  1230  1316  1318    1
  1231  1316  1299    1
  1232  1247  1249    1
  1233  1247  1233    1
  1234  1333  1326   ar
  1235  1272  1271    1
  1236  1318  1317    1
  1237  1327  1326   ar
  1238  1327  1328    2
  1239  1253  1252    1
  1240  1025  1026    1
  1241  1025  1023    1
  1242  1245  1227    2
  1243  1295  1294    1
  1244  1322  1321    1
  1245  1310  1309    2
  1246  1321  1323    1
  1247  1321  1319    1
  1248  1326  1325    1
  1249  1023  1024    1
  1250  1249  1248    1
  1251  1276  1275    1
  1252  1248  1250    1
  1253  1311  1312   ar
  1254  1311  1308   ar
  1255  1271  1273    1
  1256  1056  1055    1
  1257  1233  1232    1
  1258  1323  1325    1
  1259  1323  1324    1
  1260  1299  1298    1
  1261  1309  1308   ar
  1262  1309  1303   ar
  1263  1275  1273    1
  1264  1275  1277    1
  1265  1252  1250    1
  1266  1252  1254    1
  1267  1312  1313   ar
  1268  1317  1319    1
  1269  1294  1296    1
  1270  1308  1307   ar
  1271  1298  1296    1
  1272  1298  1300    1
  1273  1055  1057   ar
  1274  1055  1054   ar
  1275  1246  1227    1
  1276  1057  1058   ar
  1277  1227  1229    1
  1278  1227  1213    1
  1279  1325  1320    1
  1280  1319  1320    1
  1281  1250  1251    1
  1282  1024  1041    1
  1283  1273  1274    1
  1284  1288  1289   ar
  1285  1288  1285   ar
  1286  1289  1290   ar
  1287  1303  1304   ar
  1288  1228  1229    1
  1289  1228  1230    1
  1290  1054  1052   ar
  1291  1296  1297    1
  1292  1313  1307   ar
  1293  1313  1302    1
  1294  1232  1230    1
  1295  1232  1234    1
  1296  1307  1306   ar
  1297  1058  1051   ar
  1298  1300  1302    1
  1299  1300  1301    1
  1300  1277  1279    1
  1301  1277  1278    1
  1302  1060  1041    2
  1303  1287  1286    2
  1304  1254  1255    1
  1305  1254  1256    1
  1306  1285  1286   ar
  1307  1285  1284   ar
  1308  1274  1279    1
  1309  1297  1302    1
  1310  1213  1212    1
  1311  1230  1231    1
  1312  1052  1051   ar
  1313  1052  1053    2
  1314  1290  1279    1
  1315  1290  1284   ar
  1316  1304  1306   ar
  1317  1304  1305    1
  1318  1051  1050    1
  1319  1225  1207    2
  1320  1251  1256    1
  1321  1266  1265   ar
  1322  1266  1267   ar
  1323  1286  1280   ar
  1324  1041  1043    1
  1325  1041  1059    1
  1326  1265  1262   ar
  1327  1045  1050    1
  1328  1045  1044    1
  1329  1284  1283   ar
  1330  1234  1235    1
  1331  1234  1236    1
  1332  1076  1075    1
  1333  1256  1267    1
  1334  1267  1261   ar
  1335  1050  1048    1
  1336  1043  1042    1
  1337  1280  1281   ar
  1338  1262  1261   ar
  1339  1262  1263   ar
  1340  1212  1210    1
  1341  1212  1214    1
  1342  1042  1044    1
  1343  1208  1209    1
  1344  1208  1210    1
  1345  1261  1260   ar
  1346  1231  1236    1
  1347  1207  1209    1
  1348  1207  1226    1
  1349  1207  1193    1
  1350  1283  1281   ar
  1351  1264  1263    2
  1352  1263  1257   ar
  1353  1044  1046    1
  1354  1281  1282    1
  1355  1244  1243   ar
  1356  1244  1237   ar
  1357  1075  1077   ar
  1358  1075  1074   ar
  1359  1236  1237    1
  1360  1210  1211    1
  1361  1243  1241   ar
  1362  1260  1258   ar
  1363  1237  1238   ar
  1364  1077  1078   ar
  1365  1214  1215    1
  1366  1214  1216    1
  1367  1074  1072   ar
  1368  1257  1258   ar
  1369  1048  1046    1
  1370  1048  1049    1
  1371  1258  1259    1
  1372  1193  1192    1
  1373  1046  1047    1
  1374  1241  1242    2
  1375  1241  1240   ar
  1376  1238  1240   ar
  1377  1238  1239    2
  1378  1078  1071   ar
  1379  1211  1216    1
  1380  1072  1071   ar
  1381  1072  1073    2
  1382  1216  1217    1
  1383  1098  1097    2
  1384  1071  1070    1
  1385  1224  1217   ar
  1386  1224  1223   ar
  1387  1205  1187    2
  1388  1192  1194    1
  1389  1192  1190    1
  1390  1047  1061    1
  1391  1217  1218   ar
  1392  1223  1221   ar
  1393  1080  1061    2
  1394  1195  1194    1
  1395  1091  1097   ar
  1396  1091  1092   ar
  1397  1097  1096   ar
  1398  1194  1196    1
  1399  1188  1189    1
  1400  1188  1190    1
  1401  1218  1219    2
  1402  1218  1220   ar
  1403  1189  1187    1
  1404  1190  1191    1
  1405  1065  1070    1
  1406  1065  1064    1
  1407  1221  1220   ar
  1408  1221  1222    1
  1409  1070  1068    1
  1410  1187  1206    1
  1411  1187  1170    1
  1412  1061  1063    1
  1413  1061  1079    1
  1414  1063  1062    1
  1415  1093  1092    1
  1416  1092  1094   ar
  1417  1062  1064    1
  1418  1096  1099   ar
  1419  1096  1095   ar
  1420  1064  1066    1
  1421  1196  1191    1
  1422  1196  1197    1
  1423  1068  1066    1
  1424  1068  1069    1
  1425  1170  1169    1
  1426  1099  1100   ar
  1427  1197  1204   ar
  1428  1197  1198   ar
  1429  1066  1067    1
  1430  1204  1203   ar
  1431  1094  1095   ar
  1432  1095  1101   ar
  1433  1199  1198    2
  1434  1198  1200   ar
  1435  1203  1201   ar
  1436  1200  1201   ar
  1437  1103  1081    2
  1438  1201  1202    1
  1439  1169  1171    1
  1440  1169  1167    1
  1441  1100  1101   ar
  1442  1119  1118    1
  1443  1172  1171    1
  1444  1185  1164    2
  1445  1067  1081    1
  1446  1101  1090    1
  1447  1171  1173    1
  1448  1081  1083    1
  1449  1081  1102    1
  1450  1166  1165    1
  1451  1166  1164    1
  1452  1117  1118   ar
  1453  1117  1115   ar
  1454  1167  1165    1
  1455  1167  1168    1
  1456  1118  1120   ar
  1457  1164  1186    1
  1458  1164  1150    1
  1459  1083  1082    1
  1460  1090  1085    1
  1461  1090  1088    1
  1462  1085  1084    1
  1463  1173  1168    1
  1464  1173  1184    1
  1465  1116  1115    2
  1466  1115  1114   ar
  1467  1120  1121   ar
  1468  1088  1089    1
  1469  1088  1086    1
  1470  1177  1178   ar
  1471  1177  1175   ar
  1472  1184  1178   ar
  1473  1184  1183   ar
  1474  1082  1084    1
  1475  1176  1175    1
  1476  1178  1179   ar
  1477  1175  1174   ar
  1478  1183  1182   ar
  1479  1150  1149    1
  1480  1179  1182   ar
  1481  1179  1180   ar
  1482  1174  1180   ar
  1483  1084  1086    1
  1484  1180  1181    2
  1485  1114  1121   ar
  1486  1114  1113    1
  1487  1086  1087    1
  1488  1149  1151    1
  1489  1149  1147    1
  1490  1162  1144    2
  1491  1113  1108    1
  1492  1113  1111    1
  1493  1163  1144    1
  1494  1151  1152    1
  1495  1151  1153    1
  1496  1087  1104    1
  1497  1108  1107    1
  1498  1144  1146    1
  1499  1144  1130    1
  1500  1146  1145    1
  1501  1145  1147    1
  1502  1147  1148    1
  1503  1111  1112    1
  1504  1111  1109    1
  1505  1153  1154    1
  1506  1153  1148    1
  1507  1106  1104    1
  1508  1106  1105    1
  1509  1161  1154   ar
  1510  1161  1160   ar
  1511  1154  1155   ar
  1512  1160  1158   ar
  1513  1155  1156    2
  1514  1155  1157   ar
  1515  1104  1123    2
  1516  1104  1122    1
  1517  1158  1157   ar
  1518  1158  1159    1
  1519  1107  1109    1
  1520  1107  1105    1
  1521  1130  1129    1
  1522  1109  1110    1
  1523  1129  1131    1
  1524  1129  1127    1
  1525  1110  1124    1
  1526  1143  1124    2
  1527  1126  1125    1
  1528  1126  1124    1
  1529  1131  1132    1
  1530  1131  1133    1
  1531  1125  1127    1
  1532  1124  1142    1
  1533  1127  1128    1
  1534  1140  1141   ar
  1535  1140  1138   ar
  1536  1141  1134   ar
  1537  1139  1138    1
  1538  1138  1137   ar
  1539  1134  1133    1
  1540  1134  1135   ar
  1541  1133  1128    1
  1542  1137  1135   ar
  1543  1135  1136    2
