2oe8_lig
 OpenBabel11021811463D
libRbt.so/2013.1/901 2013/11/27
 37 40  0  0  0  0  0  0  0  0999 V2000
   20.2427    1.5661   53.2147 C   0  0  1  0  0  0  0  0  0  0  0  0
   19.2108    2.0690   52.1350 C   0  0  1  0  0  0  0  0  0  0  0  0
   18.6277    0.8553   51.3817 C   0  0  0  0  0  0  0  0  0  0  0  0
   19.8416    0.1358   50.7148 C   0  0  1  0  0  0  0  0  0  0  0  0
   20.9180   -0.3671   51.8077 C   0  0  1  0  0  0  0  0  0  0  0  0
   22.1417   -1.0692   51.1491 C   0  0  1  0  0  0  0  0  0  0  0  0
   21.5871   -2.2872   50.3031 C   0  0  1  0  0  0  0  0  0  0  0  0
   20.5147   -1.7542   49.2903 C   0  0  2  0  0  0  0  0  0  0  0  0
   23.6964   -3.8506   50.3596 C   0  0  0  0  0  0  0  0  0  0  0  0
   18.1025    2.8373   52.7858 N   0  0  0  0  0  0  0  0  0  0  0  0
   22.7151   -3.0150   49.5769 N   0  0  0  0  0  0  0  0  0  0  0  0
   19.6186    0.7237   54.1918 O   0  0  0  0  0  0  0  0  0  0  0  0
   21.3585    0.7954   52.5913 O   0  0  0  0  0  0  0  0  0  0  0  0
   19.3940   -1.0251   49.9538 O   0  0  0  0  0  0  0  0  0  0  0  0
   22.7976   -0.0949   50.3359 O   0  0  0  0  0  0  0  0  0  0  0  0
   19.9849   -2.8230   48.5946 O   0  0  0  0  0  0  0  0  0  0  0  0
   19.1864   -2.4282   47.4662 C   0  0  2  0  0  0  0  0  0  0  0  0
   17.9614   -3.3632   47.3221 C   0  0  1  0  0  0  0  0  0  0  0  0
   18.3838   -4.8196   46.9576 C   0  0  2  0  0  0  0  0  0  0  0  0
   19.1916   -4.8034   45.6264 C   0  0  1  0  0  0  0  0  0  0  0  0
   20.4677   -3.8955   45.8725 C   0  0  1  0  0  0  0  0  0  0  0  0
   21.3402   -3.7859   44.6253 C   0  0  0  0  0  0  0  0  0  0  0  0
   19.5964   -6.1947   45.2757 N   0  0  0  0  0  0  0  0  0  0  0  0
   20.0103   -2.5066   46.2319 O   0  0  0  0  0  0  0  0  0  0  0  0
   17.2335   -3.3077   48.5638 O   0  0  0  0  0  0  0  0  0  0  0  0
   17.2148   -5.5954   46.7965 O   0  0  0  0  0  0  0  0  0  0  0  0
   20.5480   -3.4000   43.5332 O   0  0  0  0  0  0  0  0  0  0  0  0
   20.3263    0.6517   55.4124 C   0  0  1  0  0  0  0  0  0  0  0  0
   19.4723    1.3603   56.5125 C   0  0  1  0  0  0  0  0  0  0  0  0
   20.2550    1.3162   57.8572 C   0  0  2  0  0  0  0  0  0  0  0  0
   20.5500   -0.1565   58.2788 C   0  0  1  0  0  0  0  0  0  0  0  0
   21.4021   -0.8831   57.1693 C   0  0  0  0  0  0  0  0  0  0  0  0
   20.5989   -0.8414   55.8035 C   0  0  2  0  0  0  0  0  0  0  0  0
   21.3033   -0.1719   59.5633 N   0  0  0  0  0  0  0  0  0  0  0  0
   21.4040   -1.5287   54.7687 N   0  0  0  0  0  0  0  0  0  0  0  0
   19.2325    2.7337   56.1525 O   0  0  0  0  0  0  0  0  0  0  0  0
   19.4564    1.9582   58.8375 O   0  0  0  0  0  0  0  0  0  0  0  0
  1  2  1  0  0  0  0
  1 12  1  1  0  0  0
  1 13  1  0  0  0  0
  2  3  1  0  0  0  0
  2 10  1  1  0  0  0
  4  3  1  1  0  0  0
  4  5  1  0  0  0  0
  4 14  1  0  0  0  0
  5  6  1  0  0  0  0
  5 13  1  6  0  0  0
  6  7  1  0  0  0  0
  6 15  1  6  0  0  0
  7  8  1  0  0  0  0
  7 11  1  6  0  0  0
  8 14  1  0  0  0  0
  8 16  1  1  0  0  0
  9 11  1  0  0  0  0
 17 16  1  1  0  0  0
 17 18  1  0  0  0  0
 17 24  1  0  0  0  0
 18 19  1  0  0  0  0
 18 25  1  1  0  0  0
 19 20  1  0  0  0  0
 19 26  1  6  0  0  0
 20 21  1  0  0  0  0
 20 23  1  1  0  0  0
 21 22  1  6  0  0  0
 21 24  1  0  0  0  0
 22 27  1  0  0  0  0
 28 12  1  6  0  0  0
 28 29  1  0  0  0  0
 28 33  1  0  0  0  0
 29 30  1  0  0  0  0
 29 36  1  6  0  0  0
 30 31  1  0  0  0  0
 30 37  1  1  0  0  0
 31 32  1  0  0  0  0
 31 34  1  1  0  0  0
 32 33  1  0  0  0  0
 33 35  1  6  0  0  0
M  END
>  <CHROM.1>
-157.77708891,71.27052993,-168.60769152,-142.23040607,51.65831656,112.03084424
20.15094607,-1.27443841,51.22990681,1.51320995,-0.65357487,1.09449520

>  <Name>
2oe8_lig

>  <RI>
0

>  <Rbt.Current_Directory>
/home/itssahil/PROJECTS/Mol_Feturizer/New_Systems/rnas/2oe8

>  <Rbt.Executable>
rbdock ($Id: //depot/dev/client3/rdock/2013.1/src/exe/rbdock.cxx#4 $)

>  <Rbt.Library>
libRbt.so (2013.1, Build901 2013/11/27)

>  <Rbt.Parameter_File>
/export/apps/rDock/src/rDock_2013.1_src/data/scripts/dock_solv.prm

>  <Rbt.Receptor>
prm/pocket_docking_2.prm

>  <SCORE>
-18.8785

>  <SCORE.INTER>
-18.1043

>  <SCORE.INTER.CONST>
1

>  <SCORE.INTER.POLAR>
-1.8564

>  <SCORE.INTER.ROT>
6

>  <SCORE.INTER.SOLV>
18.3933

>  <SCORE.INTER.VDW>
-19.6126

>  <SCORE.INTER.norm>
-0.489305

>  <SCORE.INTRA>
-0.774197

>  <SCORE.INTRA.DIHEDRAL>
-1.30296

>  <SCORE.INTRA.DIHEDRAL.0>
16.4056

>  <SCORE.INTRA.POLAR>
0

>  <SCORE.INTRA.POLAR.0>
0

>  <SCORE.INTRA.REPUL>
0

>  <SCORE.INTRA.REPUL.0>
0

>  <SCORE.INTRA.SOLV>
0.228205

>  <SCORE.INTRA.SOLV.lig_0>
-90.9627

>  <SCORE.INTRA.VDW>
-0.236818

>  <SCORE.INTRA.VDW.0>
-3.28744

>  <SCORE.INTRA.norm>
-0.0209242

>  <SCORE.RESTR>
0

>  <SCORE.RESTR.CAVITY>
0

>  <SCORE.RESTR.norm>
0

>  <SCORE.SYSTEM>
0

>  <SCORE.SYSTEM.CONST>
0

>  <SCORE.SYSTEM.DIHEDRAL>
0

>  <SCORE.SYSTEM.SOLV>
0

>  <SCORE.SYSTEM.norm>
0

>  <SCORE.heavy>
37

>  <SCORE.norm>
-0.510229

>  <RMSD>
0.563

$$$$
2oe8_lig
 OpenBabel11021811463D
libRbt.so/2013.1/901 2013/11/27
 37 40  0  0  0  0  0  0  0  0999 V2000
   20.2076    1.5264   53.2180 C   0  0  1  0  0  0  0  0  0  0  0  0
   19.1944    2.0381   52.1248 C   0  0  1  0  0  0  0  0  0  0  0  0
   18.6216    0.8303   51.3542 C   0  0  0  0  0  0  0  0  0  0  0  0
   19.8450    0.1128   50.7027 C   0  0  1  0  0  0  0  0  0  0  0  0
   20.9025   -0.3991   51.8098 C   0  0  1  0  0  0  0  0  0  0  0  0
   22.1355   -1.0992   51.1670 C   0  0  1  0  0  0  0  0  0  0  0  0
   21.5927   -2.3108   50.3042 C   0  0  1  0  0  0  0  0  0  0  0  0
   20.5380   -1.7694   49.2774 C   0  0  2  0  0  0  0  0  0  0  0  0
   23.7317   -3.8319   50.3916 C   0  0  0  0  0  0  0  0  0  0  0  0
   18.0769    2.8044   52.7622 N   0  0  0  0  0  0  0  0  0  0  0  0
   22.7312   -3.0361   49.5919 N   0  0  0  0  0  0  0  0  0  0  0  0
   19.5661    0.6789   54.1793 O   0  0  0  0  0  0  0  0  0  0  0  0
   21.3321    0.7576   52.6080 O   0  0  0  0  0  0  0  0  0  0  0  0
   19.4079   -1.0424   49.9271 O   0  0  0  0  0  0  0  0  0  0  0  0
   22.8064   -0.1211   50.3708 O   0  0  0  0  0  0  0  0  0  0  0  0
   20.0178   -2.8327   48.5663 O   0  0  0  0  0  0  0  0  0  0  0  0
   19.1924   -2.4288   47.4606 C   0  0  2  0  0  0  0  0  0  0  0  0
   17.9556   -3.3525   47.3485 C   0  0  1  0  0  0  0  0  0  0  0  0
   18.3547   -4.8120   46.9706 C   0  0  2  0  0  0  0  0  0  0  0  0
   19.1261   -4.8009   45.6179 C   0  0  1  0  0  0  0  0  0  0  0  0
   20.4166   -3.9049   45.8304 C   0  0  1  0  0  0  0  0  0  0  0  0
   21.2558   -3.8011   44.5601 C   0  0  0  0  0  0  0  0  0  0  0  0
   19.5087   -6.1952   45.2542 N   0  0  0  0  0  0  0  0  0  0  0  0
   19.9817   -2.5125   46.2042 O   0  0  0  0  0  0  0  0  0  0  0  0
   17.2623   -3.2926   48.6097 O   0  0  0  0  0  0  0  0  0  0  0  0
   17.1748   -5.5770   46.8403 O   0  0  0  0  0  0  0  0  0  0  0  0
   20.4398   -3.3956   43.4929 O   0  0  0  0  0  0  0  0  0  0  0  0
   20.2164    0.6512   55.4331 C   0  0  1  0  0  0  0  0  0  0  0  0
   19.2450    1.2537   56.4986 C   0  0  1  0  0  0  0  0  0  0  0  0
   19.9611    1.2584   57.8806 C   0  0  2  0  0  0  0  0  0  0  0  0
   20.3755   -0.1873   58.2951 C   0  0  1  0  0  0  0  0  0  0  0  0
   21.3472   -0.8076   57.2200 C   0  0  0  0  0  0  0  0  0  0  0  0
   20.6120   -0.8163   55.8159 C   0  0  2  0  0  0  0  0  0  0  0  0
   21.0626   -0.1555   59.6160 N   0  0  0  0  0  0  0  0  0  0  0  0
   21.5295   -1.4035   54.8135 N   0  0  0  0  0  0  0  0  0  0  0  0
   18.8921    2.6046   56.1468 O   0  0  0  0  0  0  0  0  0  0  0  0
   19.0571    1.8022   58.8282 O   0  0  0  0  0  0  0  0  0  0  0  0
  1  2  1  0  0  0  0
  1 12  1  1  0  0  0
  1 13  1  0  0  0  0
  2  3  1  0  0  0  0
  2 10  1  1  0  0  0
  4  3  1  1  0  0  0
  4  5  1  0  0  0  0
  4 14  1  0  0  0  0
  5  6  1  0  0  0  0
  5 13  1  6  0  0  0
  6  7  1  0  0  0  0
  6 15  1  6  0  0  0
  7  8  1  0  0  0  0
  7 11  1  6  0  0  0
  8 14  1  0  0  0  0
  8 16  1  1  0  0  0
  9 11  1  0  0  0  0
 17 16  1  1  0  0  0
 17 18  1  0  0  0  0
 17 24  1  0  0  0  0
 18 19  1  0  0  0  0
 18 25  1  1  0  0  0
 19 20  1  0  0  0  0
 19 26  1  6  0  0  0
 20 21  1  0  0  0  0
 20 23  1  1  0  0  0
 21 22  1  6  0  0  0
 21 24  1  0  0  0  0
 22 27  1  0  0  0  0
 28 12  1  6  0  0  0
 28 29  1  0  0  0  0
 28 33  1  0  0  0  0
 29 30  1  0  0  0  0
 29 36  1  6  0  0  0
 30 31  1  0  0  0  0
 30 37  1  1  0  0  0
 31 32  1  0  0  0  0
 31 34  1  1  0  0  0
 32 33  1  0  0  0  0
 33 35  1  6  0  0  0
M  END
>  <CHROM.1>
-154.73450472,68.73216321,-171.07266354,-140.08407647,52.13421496,116.08576281
20.09030390,-1.29128740,51.23199529,1.53137408,-0.56832635,1.11420703

>  <Name>
2oe8_lig

>  <RI>
0

>  <Rbt.Current_Directory>
/home/itssahil/PROJECTS/Mol_Feturizer/New_Systems/rnas/2oe8

>  <Rbt.Executable>
rbdock ($Id: //depot/dev/client3/rdock/2013.1/src/exe/rbdock.cxx#4 $)

>  <Rbt.Library>
libRbt.so (2013.1, Build901 2013/11/27)

>  <Rbt.Parameter_File>
/export/apps/rDock/src/rDock_2013.1_src/data/scripts/dock_solv.prm

>  <Rbt.Receptor>
prm/pocket_docking_2.prm

>  <SCORE>
-18.7467

>  <SCORE.INTER>
-18.459

>  <SCORE.INTER.CONST>
1

>  <SCORE.INTER.POLAR>
-1.87428

>  <SCORE.INTER.ROT>
6

>  <SCORE.INTER.SOLV>
17.7443

>  <SCORE.INTER.VDW>
-19.5732

>  <SCORE.INTER.norm>
-0.498892

>  <SCORE.INTRA>
-0.292065

>  <SCORE.INTRA.DIHEDRAL>
-0.469889

>  <SCORE.INTRA.DIHEDRAL.0>
16.4056

>  <SCORE.INTRA.POLAR>
0

>  <SCORE.INTRA.POLAR.0>
0

>  <SCORE.INTRA.REPUL>
0

>  <SCORE.INTRA.REPUL.0>
0

>  <SCORE.INTRA.SOLV>
0.33587

>  <SCORE.INTRA.SOLV.lig_0>
-90.9627

>  <SCORE.INTRA.VDW>
-0.225056

>  <SCORE.INTRA.VDW.0>
-3.28744

>  <SCORE.INTRA.norm>
-0.00789366

>  <SCORE.RESTR>
0.0043526

>  <SCORE.RESTR.CAVITY>
0.0043526

>  <SCORE.RESTR.norm>
0.000117638

>  <SCORE.SYSTEM>
0

>  <SCORE.SYSTEM.CONST>
0

>  <SCORE.SYSTEM.DIHEDRAL>
0

>  <SCORE.SYSTEM.SOLV>
0

>  <SCORE.SYSTEM.norm>
0

>  <SCORE.heavy>
37

>  <SCORE.norm>
-0.506668

>  <RMSD>
0.579

$$$$
2oe8_lig
 OpenBabel11021811463D
libRbt.so/2013.1/901 2013/11/27
 37 40  0  0  0  0  0  0  0  0999 V2000
   20.2439    1.5237   53.1807 C   0  0  1  0  0  0  0  0  0  0  0  0
   19.1733    2.0049   52.1291 C   0  0  1  0  0  0  0  0  0  0  0  0
   18.6207    0.7824   51.3671 C   0  0  0  0  0  0  0  0  0  0  0  0
   19.8470    0.1189   50.6657 C   0  0  1  0  0  0  0  0  0  0  0  0
   20.9622   -0.3608   51.7296 C   0  0  1  0  0  0  0  0  0  0  0  0
   22.1978   -1.0066   51.0367 C   0  0  1  0  0  0  0  0  0  0  0  0
   21.6721   -2.2310   50.1814 C   0  0  1  0  0  0  0  0  0  0  0  0
   20.5613   -1.7223   49.1979 C   0  0  2  0  0  0  0  0  0  0  0  0
   23.6803   -3.9220   50.1186 C   0  0  0  0  0  0  0  0  0  0  0  0
   18.0504    2.7213   52.8132 N   0  0  0  0  0  0  0  0  0  0  0  0
   22.8117   -2.9050   49.4222 N   0  0  0  0  0  0  0  0  0  0  0  0
   19.6703    0.6435   54.1555 O   0  0  0  0  0  0  0  0  0  0  0  0
   21.3749    0.8048   52.5238 O   0  0  0  0  0  0  0  0  0  0  0  0
   19.4277   -1.0457   49.8943 O   0  0  0  0  0  0  0  0  0  0  0  0
   22.8016    0.0039   50.2273 O   0  0  0  0  0  0  0  0  0  0  0  0
   20.0576   -2.7990   48.4949 O   0  0  0  0  0  0  0  0  0  0  0  0
   19.1897   -2.4174   47.4142 C   0  0  2  0  0  0  0  0  0  0  0  0
   17.9543   -3.3485   47.3637 C   0  0  1  0  0  0  0  0  0  0  0  0
   18.3465   -4.8123   46.9957 C   0  0  2  0  0  0  0  0  0  0  0  0
   19.0670   -4.8206   45.6151 C   0  0  1  0  0  0  0  0  0  0  0  0
   20.3599   -3.9153   45.7644 C   0  0  1  0  0  0  0  0  0  0  0  0
   21.1508   -3.8293   44.4621 C   0  0  0  0  0  0  0  0  0  0  0  0
   19.4428   -6.2191   45.2608 N   0  0  0  0  0  0  0  0  0  0  0  0
   19.9321   -2.5188   46.1309 O   0  0  0  0  0  0  0  0  0  0  0  0
   17.3080   -3.2703   48.6487 O   0  0  0  0  0  0  0  0  0  0  0  0
   17.1665   -5.5847   46.9222 O   0  0  0  0  0  0  0  0  0  0  0  0
   20.3034   -3.4026   43.4282 O   0  0  0  0  0  0  0  0  0  0  0  0
   20.4023    0.5807   55.3621 C   0  0  1  0  0  0  0  0  0  0  0  0
   19.5754    1.3072   56.4712 C   0  0  1  0  0  0  0  0  0  0  0  0
   20.3852    1.2732   57.8002 C   0  0  2  0  0  0  0  0  0  0  0  0
   20.6796   -0.1966   58.2324 C   0  0  1  0  0  0  0  0  0  0  0  0
   21.5041   -0.9411   57.1142 C   0  0  0  0  0  0  0  0  0  0  0  0
   20.6735   -0.9096   55.7646 C   0  0  2  0  0  0  0  0  0  0  0  0
   21.4588   -0.2023   59.5014 N   0  0  0  0  0  0  0  0  0  0  0  0
   21.4529   -1.6139   54.7216 N   0  0  0  0  0  0  0  0  0  0  0  0
   19.3370    2.6780   56.1005 O   0  0  0  0  0  0  0  0  0  0  0  0
   19.6109    1.9315   58.7891 O   0  0  0  0  0  0  0  0  0  0  0  0
  1  2  1  0  0  0  0
  1 12  1  1  0  0  0
  1 13  1  0  0  0  0
  2  3  1  0  0  0  0
  2 10  1  1  0  0  0
  4  3  1  1  0  0  0
  4  5  1  0  0  0  0
  4 14  1  0  0  0  0
  5  6  1  0  0  0  0
  5 13  1  6  0  0  0
  6  7  1  0  0  0  0
  6 15  1  6  0  0  0
  7  8  1  0  0  0  0
  7 11  1  6  0  0  0
  8 14  1  0  0  0  0
  8 16  1  1  0  0  0
  9 11  1  0  0  0  0
 17 16  1  1  0  0  0
 17 18  1  0  0  0  0
 17 24  1  0  0  0  0
 18 19  1  0  0  0  0
 18 25  1  1  0  0  0
 19 20  1  0  0  0  0
 19 26  1  6  0  0  0
 20 21  1  0  0  0  0
 20 23  1  1  0  0  0
 21 22  1  6  0  0  0
 21 24  1  0  0  0  0
 22 27  1  0  0  0  0
 28 12  1  6  0  0  0
 28 29  1  0  0  0  0
 28 33  1  0  0  0  0
 29 30  1  0  0  0  0
 29 36  1  6  0  0  0
 30 31  1  0  0  0  0
 30 37  1  1  0  0  0
 31 32  1  0  0  0  0
 31 34  1  1  0  0  0
 32 33  1  0  0  0  0
 33 35  1  6  0  0  0
M  END
>  <CHROM.1>
-157.65724429,82.91216595,-170.44637892,-137.93148854,54.08122006,109.04676399
20.16573901,-1.29170056,51.17546964,1.49671117,-0.63506777,1.09052381

>  <Name>
2oe8_lig

>  <RI>
0

>  <Rbt.Current_Directory>
/home/itssahil/PROJECTS/Mol_Feturizer/New_Systems/rnas/2oe8

>  <Rbt.Executable>
rbdock ($Id: //depot/dev/client3/rdock/2013.1/src/exe/rbdock.cxx#4 $)

>  <Rbt.Library>
libRbt.so (2013.1, Build901 2013/11/27)

>  <Rbt.Parameter_File>
/export/apps/rDock/src/rDock_2013.1_src/data/scripts/dock_solv.prm

>  <Rbt.Receptor>
prm/pocket_docking_2.prm

>  <SCORE>
-18.6904

>  <SCORE.INTER>
-17.8944

>  <SCORE.INTER.CONST>
1

>  <SCORE.INTER.POLAR>
-1.9029

>  <SCORE.INTER.ROT>
6

>  <SCORE.INTER.SOLV>
18.8097

>  <SCORE.INTER.VDW>
-19.4565

>  <SCORE.INTER.norm>
-0.483631

>  <SCORE.INTRA>
-0.796075

>  <SCORE.INTRA.DIHEDRAL>
-0.867919

>  <SCORE.INTRA.DIHEDRAL.0>
16.4056

>  <SCORE.INTRA.POLAR>
0

>  <SCORE.INTRA.POLAR.0>
0

>  <SCORE.INTRA.REPUL>
0

>  <SCORE.INTRA.REPUL.0>
0

>  <SCORE.INTRA.SOLV>
0.0238949

>  <SCORE.INTRA.SOLV.lig_0>
-90.9627

>  <SCORE.INTRA.VDW>
-0.374063

>  <SCORE.INTRA.VDW.0>
-3.28744

>  <SCORE.INTRA.norm>
-0.0215155

>  <SCORE.RESTR>
0

>  <SCORE.RESTR.CAVITY>
0

>  <SCORE.RESTR.norm>
0

>  <SCORE.SYSTEM>
0

>  <SCORE.SYSTEM.CONST>
0

>  <SCORE.SYSTEM.DIHEDRAL>
0

>  <SCORE.SYSTEM.SOLV>
0

>  <SCORE.SYSTEM.norm>
0

>  <SCORE.heavy>
37

>  <SCORE.norm>
-0.505147

>  <RMSD>
0.595

$$$$
2oe8_lig
 OpenBabel11021811463D
libRbt.so/2013.1/901 2013/11/27
 37 40  0  0  0  0  0  0  0  0999 V2000
   20.2554    1.5798   53.2113 C   0  0  1  0  0  0  0  0  0  0  0  0
   19.1901    2.0580   52.1530 C   0  0  1  0  0  0  0  0  0  0  0  0
   18.6269    0.8315   51.4053 C   0  0  0  0  0  0  0  0  0  0  0  0
   19.8476    0.1483   50.7131 C   0  0  1  0  0  0  0  0  0  0  0  0
   20.9575   -0.3287   51.7839 C   0  0  1  0  0  0  0  0  0  0  0  0
   22.1877   -0.9942   51.1000 C   0  0  1  0  0  0  0  0  0  0  0  0
   21.6513   -2.2240   50.2591 C   0  0  1  0  0  0  0  0  0  0  0  0
   20.5461   -1.7170   49.2685 C   0  0  2  0  0  0  0  0  0  0  0  0
   23.5205   -4.0656   50.1537 C   0  0  0  0  0  0  0  0  0  0  0  0
   18.0733    2.7930   52.8273 N   0  0  0  0  0  0  0  0  0  0  0  0
   22.7853   -2.9176   49.5092 N   0  0  0  0  0  0  0  0  0  0  0  0
   19.6730    0.7168   54.1962 O   0  0  0  0  0  0  0  0  0  0  0  0
   21.3803    0.8426   52.5642 O   0  0  0  0  0  0  0  0  0  0  0  0
   19.4182   -1.0217   49.9556 O   0  0  0  0  0  0  0  0  0  0  0  0
   22.8013    0.0008   50.2789 O   0  0  0  0  0  0  0  0  0  0  0  0
   20.0331   -2.7975   48.5782 O   0  0  0  0  0  0  0  0  0  0  0  0
   19.1858   -2.4208   47.4795 C   0  0  2  0  0  0  0  0  0  0  0  0
   17.9626   -3.3655   47.3967 C   0  0  1  0  0  0  0  0  0  0  0  0
   18.3798   -4.8231   47.0313 C   0  0  2  0  0  0  0  0  0  0  0  0
   19.1317   -4.8168   45.6676 C   0  0  1  0  0  0  0  0  0  0  0  0
   20.4104   -3.8978   45.8505 C   0  0  1  0  0  0  0  0  0  0  0  0
   21.2298   -3.7968   44.5670 C   0  0  0  0  0  0  0  0  0  0  0  0
   19.5315   -6.2094   45.3159 N   0  0  0  0  0  0  0  0  0  0  0  0
   19.9585   -2.5079   46.2131 O   0  0  0  0  0  0  0  0  0  0  0  0
   17.2863   -3.3006   48.6668 O   0  0  0  0  0  0  0  0  0  0  0  0
   17.2107   -5.6084   46.9274 O   0  0  0  0  0  0  0  0  0  0  0  0
   20.3983   -3.3895   43.5126 O   0  0  0  0  0  0  0  0  0  0  0  0
   20.4419    0.6037   55.3759 C   0  0  1  0  0  0  0  0  0  0  0  0
   19.6936    1.3618   56.5191 C   0  0  1  0  0  0  0  0  0  0  0  0
   20.5459    1.2720   57.8185 C   0  0  2  0  0  0  0  0  0  0  0  0
   20.7767   -0.2153   58.2283 C   0  0  1  0  0  0  0  0  0  0  0  0
   21.5215   -0.9913   57.0760 C   0  0  0  0  0  0  0  0  0  0  0  0
   20.6475   -0.9028   55.7567 C   0  0  2  0  0  0  0  0  0  0  0  0
   21.5980   -0.2747   59.4692 N   0  0  0  0  0  0  0  0  0  0  0  0
   21.3519   -1.6368   54.6814 N   0  0  0  0  0  0  0  0  0  0  0  0
   19.5155    2.7468   56.1679 O   0  0  0  0  0  0  0  0  0  0  0  0
   19.8423    1.9605   58.8392 O   0  0  0  0  0  0  0  0  0  0  0  0
  1  2  1  0  0  0  0
  1 12  1  1  0  0  0
  1 13  1  0  0  0  0
  2  3  1  0  0  0  0
  2 10  1  1  0  0  0
  4  3  1  1  0  0  0
  4  5  1  0  0  0  0
  4 14  1  0  0  0  0
  5  6  1  0  0  0  0
  5 13  1  6  0  0  0
  6  7  1  0  0  0  0
  6 15  1  6  0  0  0
  7  8  1  0  0  0  0
  7 11  1  6  0  0  0
  8 14  1  0  0  0  0
  8 16  1  1  0  0  0
  9 11  1  0  0  0  0
 17 16  1  1  0  0  0
 17 18  1  0  0  0  0
 17 24  1  0  0  0  0
 18 19  1  0  0  0  0
 18 25  1  1  0  0  0
 19 20  1  0  0  0  0
 19 26  1  6  0  0  0
 20 21  1  0  0  0  0
 20 23  1  1  0  0  0
 21 22  1  6  0  0  0
 21 24  1  0  0  0  0
 22 27  1  0  0  0  0
 28 12  1  6  0  0  0
 28 29  1  0  0  0  0
 28 33  1  0  0  0  0
 29 30  1  0  0  0  0
 29 36  1  6  0  0  0
 30 31  1  0  0  0  0
 30 37  1  1  0  0  0
 31 32  1  0  0  0  0
 31 34  1  1  0  0  0
 32 33  1  0  0  0  0
 33 35  1  6  0  0  0
M  END
>  <CHROM.1>
-160.99549654,91.32243950,-169.55486596,-140.07868713,53.41805002,108.78421601
20.19621814,-1.28333237,51.21693922,1.48291171,-0.73914376,1.07017362

>  <Name>
2oe8_lig

>  <RI>
0

>  <Rbt.Current_Directory>
/home/itssahil/PROJECTS/Mol_Feturizer/New_Systems/rnas/2oe8

>  <Rbt.Executable>
rbdock ($Id: //depot/dev/client3/rdock/2013.1/src/exe/rbdock.cxx#4 $)

>  <Rbt.Library>
libRbt.so (2013.1, Build901 2013/11/27)

>  <Rbt.Parameter_File>
/export/apps/rDock/src/rDock_2013.1_src/data/scripts/dock_solv.prm

>  <Rbt.Receptor>
prm/pocket_docking_2.prm

>  <SCORE>
-18.8384

>  <SCORE.INTER>
-17.7764

>  <SCORE.INTER.CONST>
1

>  <SCORE.INTER.POLAR>
-1.876

>  <SCORE.INTER.ROT>
6

>  <SCORE.INTER.SOLV>
19.0592

>  <SCORE.INTER.VDW>
-19.5507

>  <SCORE.INTER.norm>
-0.480444

>  <SCORE.INTRA>
-1.07334

>  <SCORE.INTRA.DIHEDRAL>
-1.41349

>  <SCORE.INTRA.DIHEDRAL.0>
16.4056

>  <SCORE.INTRA.POLAR>
0

>  <SCORE.INTRA.POLAR.0>
0

>  <SCORE.INTRA.REPUL>
0

>  <SCORE.INTRA.REPUL.0>
0

>  <SCORE.INTRA.SOLV>
0.0413237

>  <SCORE.INTRA.SOLV.lig_0>
-90.9627

>  <SCORE.INTRA.VDW>
-0.387256

>  <SCORE.INTRA.VDW.0>
-3.28744

>  <SCORE.INTRA.norm>
-0.0290092

>  <SCORE.RESTR>
0.0113865

>  <SCORE.RESTR.CAVITY>
0.0113865

>  <SCORE.RESTR.norm>
0.000307742

>  <SCORE.SYSTEM>
0

>  <SCORE.SYSTEM.CONST>
0

>  <SCORE.SYSTEM.DIHEDRAL>
0

>  <SCORE.SYSTEM.SOLV>
0

>  <SCORE.SYSTEM.norm>
0

>  <SCORE.heavy>
37

>  <SCORE.norm>
-0.509146

>  <RMSD>
0.596

$$$$
2oe8_lig
 OpenBabel11021811463D
libRbt.so/2013.1/901 2013/11/27
 37 40  0  0  0  0  0  0  0  0999 V2000
   20.2518    1.5383   53.2634 C   0  0  1  0  0  0  0  0  0  0  0  0
   19.3095    2.0998   52.1319 C   0  0  1  0  0  0  0  0  0  0  0  0
   18.6787    0.9214   51.3612 C   0  0  0  0  0  0  0  0  0  0  0  0
   19.8690    0.1116   50.7585 C   0  0  1  0  0  0  0  0  0  0  0  0
   20.8550   -0.4530   51.9054 C   0  0  1  0  0  0  0  0  0  0  0  0
   22.0558   -1.2461   51.3114 C   0  0  1  0  0  0  0  0  0  0  0  0
   21.4574   -2.4318   50.4495 C   0  0  1  0  0  0  0  0  0  0  0  0
   20.4738   -1.8366   49.3826 C   0  0  2  0  0  0  0  0  0  0  0  0
   23.5513   -4.0064   50.6318 C   0  0  0  0  0  0  0  0  0  0  0  0
   18.2286    2.9508   52.7232 N   0  0  0  0  0  0  0  0  0  0  0  0
   22.5643   -3.2447   49.7835 N   0  0  0  0  0  0  0  0  0  0  0  0
   19.5249    0.7523   54.2163 O   0  0  0  0  0  0  0  0  0  0  0  0
   21.3388    0.6846   52.6999 O   0  0  0  0  0  0  0  0  0  0  0  0
   19.3772   -1.0237   49.9863 O   0  0  0  0  0  0  0  0  0  0  0  0
   22.8160   -0.3291   50.5226 O   0  0  0  0  0  0  0  0  0  0  0  0
   19.9034   -2.8736   48.6709 O   0  0  0  0  0  0  0  0  0  0  0  0
   19.2037   -2.4383   47.4929 C   0  0  2  0  0  0  0  0  0  0  0  0
   17.9530   -3.3187   47.2555 C   0  0  1  0  0  0  0  0  0  0  0  0
   18.3372   -4.7898   46.9090 C   0  0  2  0  0  0  0  0  0  0  0  0
   19.2364   -4.8013   45.6376 C   0  0  1  0  0  0  0  0  0  0  0  0
   20.5297   -3.9508   45.9801 C   0  0  1  0  0  0  0  0  0  0  0  0
   21.4915   -3.8721   44.7979 C   0  0  0  0  0  0  0  0  0  0  0  0
   19.6050   -6.2068   45.3041 N   0  0  0  0  0  0  0  0  0  0  0  0
   20.1081   -2.5454   46.3186 O   0  0  0  0  0  0  0  0  0  0  0  0
   17.1428   -3.2386   48.4438 O   0  0  0  0  0  0  0  0  0  0  0  0
   17.1503   -5.5135   46.6600 O   0  0  0  0  0  0  0  0  0  0  0  0
   20.8028   -3.4124   43.6650 O   0  0  0  0  0  0  0  0  0  0  0  0
   20.1067    0.7425   55.5037 C   0  0  1  0  0  0  0  0  0  0  0  0
   19.0473    1.2767   56.5205 C   0  0  1  0  0  0  0  0  0  0  0  0
   19.6859    1.3010   57.9398 C   0  0  2  0  0  0  0  0  0  0  0  0
   20.1556   -0.1258   58.3608 C   0  0  1  0  0  0  0  0  0  0  0  0
   21.2168   -0.6777   57.3341 C   0  0  0  0  0  0  0  0  0  0  0  0
   20.5606   -0.7067   55.8916 C   0  0  2  0  0  0  0  0  0  0  0  0
   20.7671   -0.0753   59.7177 N   0  0  0  0  0  0  0  0  0  0  0  0
   21.5619   -1.2295   54.9349 N   0  0  0  0  0  0  0  0  0  0  0  0
   18.6407    2.6113   56.1646 O   0  0  0  0  0  0  0  0  0  0  0  0
   18.7034    1.7820   58.8421 O   0  0  0  0  0  0  0  0  0  0  0  0
  1  2  1  0  0  0  0
  1 12  1  1  0  0  0
  1 13  1  0  0  0  0
  2  3  1  0  0  0  0
  2 10  1  1  0  0  0
  4  3  1  1  0  0  0
  4  5  1  0  0  0  0
  4 14  1  0  0  0  0
  5  6  1  0  0  0  0
  5 13  1  6  0  0  0
  6  7  1  0  0  0  0
  6 15  1  6  0  0  0
  7  8  1  0  0  0  0
  7 11  1  6  0  0  0
  8 14  1  0  0  0  0
  8 16  1  1  0  0  0
  9 11  1  0  0  0  0
 17 16  1  1  0  0  0
 17 18  1  0  0  0  0
 17 24  1  0  0  0  0
 18 19  1  0  0  0  0
 18 25  1  1  0  0  0
 19 20  1  0  0  0  0
 19 26  1  6  0  0  0
 20 21  1  0  0  0  0
 20 23  1  1  0  0  0
 21 22  1  6  0  0  0
 21 24  1  0  0  0  0
 22 27  1  0  0  0  0
 28 12  1  6  0  0  0
 28 29  1  0  0  0  0
 28 33  1  0  0  0  0
 29 30  1  0  0  0  0
 29 36  1  6  0  0  0
 30 31  1  0  0  0  0
 30 37  1  1  0  0  0
 31 32  1  0  0  0  0
 31 34  1  1  0  0  0
 32 33  1  0  0  0  0
 33 35  1  6  0  0  0
M  END
>  <CHROM.1>
-152.46046078,63.88093136,-167.81791940,-144.65955615,53.20478194,122.22225092
20.05207476,-1.29252710,51.29586664,1.55461441,-0.58140649,1.11955602

>  <Name>
2oe8_lig

>  <RI>
0

>  <Rbt.Current_Directory>
/home/itssahil/PROJECTS/Mol_Feturizer/New_Systems/rnas/2oe8

>  <Rbt.Executable>
rbdock ($Id: //depot/dev/client3/rdock/2013.1/src/exe/rbdock.cxx#4 $)

>  <Rbt.Library>
libRbt.so (2013.1, Build901 2013/11/27)

>  <Rbt.Parameter_File>
/export/apps/rDock/src/rDock_2013.1_src/data/scripts/dock_solv.prm

>  <Rbt.Receptor>
prm/pocket_docking_2.prm

>  <SCORE>
-18.7132

>  <SCORE.INTER>
-18.4588

>  <SCORE.INTER.CONST>
1

>  <SCORE.INTER.POLAR>
-1.71838

>  <SCORE.INTER.ROT>
6

>  <SCORE.INTER.SOLV>
17.0422

>  <SCORE.INTER.VDW>
-19.8587

>  <SCORE.INTER.norm>
-0.498886

>  <SCORE.INTRA>
-0.254407

>  <SCORE.INTRA.DIHEDRAL>
-0.580716

>  <SCORE.INTRA.DIHEDRAL.0>
16.4056

>  <SCORE.INTRA.POLAR>
0

>  <SCORE.INTRA.POLAR.0>
0

>  <SCORE.INTRA.REPUL>
0

>  <SCORE.INTRA.REPUL.0>
0

>  <SCORE.INTRA.SOLV>
0.531908

>  <SCORE.INTRA.SOLV.lig_0>
-90.9627

>  <SCORE.INTRA.VDW>
-0.230003

>  <SCORE.INTRA.VDW.0>
-3.28744

>  <SCORE.INTRA.norm>
-0.00687587

>  <SCORE.RESTR>
0

>  <SCORE.RESTR.CAVITY>
0

>  <SCORE.RESTR.norm>
0

>  <SCORE.SYSTEM>
0

>  <SCORE.SYSTEM.CONST>
0

>  <SCORE.SYSTEM.DIHEDRAL>
0

>  <SCORE.SYSTEM.SOLV>
0

>  <SCORE.SYSTEM.norm>
0

>  <SCORE.heavy>
37

>  <SCORE.norm>
-0.505762

>  <RMSD>
0.606

$$$$
2oe8_lig
 OpenBabel11021811463D
libRbt.so/2013.1/901 2013/11/27
 37 40  0  0  0  0  0  0  0  0999 V2000
   20.1851    1.5708   53.2933 C   0  0  1  0  0  0  0  0  0  0  0  0
   19.2482    2.1226   52.1526 C   0  0  1  0  0  0  0  0  0  0  0  0
   18.6238    0.9375   51.3868 C   0  0  0  0  0  0  0  0  0  0  0  0
   19.8188    0.1255   50.7966 C   0  0  1  0  0  0  0  0  0  0  0  0
   20.7994   -0.4290   51.9529 C   0  0  1  0  0  0  0  0  0  0  0  0
   22.0049   -1.2241   51.3713 C   0  0  1  0  0  0  0  0  0  0  0  0
   21.4135   -2.4171   50.5146 C   0  0  1  0  0  0  0  0  0  0  0  0
   20.4348   -1.8313   49.4380 C   0  0  2  0  0  0  0  0  0  0  0  0
   23.4742   -4.0323   50.7177 C   0  0  0  0  0  0  0  0  0  0  0  0
   18.1624    2.9758   52.7317 N   0  0  0  0  0  0  0  0  0  0  0  0
   22.5255   -3.2327   49.8607 N   0  0  0  0  0  0  0  0  0  0  0  0
   19.4543    0.7904   54.2477 O   0  0  0  0  0  0  0  0  0  0  0  0
   21.2767    0.7151   52.7420 O   0  0  0  0  0  0  0  0  0  0  0  0
   19.3334   -1.0161   50.0297 O   0  0  0  0  0  0  0  0  0  0  0  0
   22.7679   -0.3115   50.5803 O   0  0  0  0  0  0  0  0  0  0  0  0
   19.8703   -2.8743   48.7306 O   0  0  0  0  0  0  0  0  0  0  0  0
   19.1672   -2.4477   47.5514 C   0  0  2  0  0  0  0  0  0  0  0  0
   17.9397   -3.3564   47.3001 C   0  0  1  0  0  0  0  0  0  0  0  0
   18.3617   -4.8153   46.9456 C   0  0  2  0  0  0  0  0  0  0  0  0
   19.2684   -4.7958   45.6797 C   0  0  1  0  0  0  0  0  0  0  0  0
   20.5386   -3.9166   46.0361 C   0  0  1  0  0  0  0  0  0  0  0  0
   21.5052   -3.8062   44.8604 C   0  0  0  0  0  0  0  0  0  0  0  0
   19.6730   -6.1895   45.3386 N   0  0  0  0  0  0  0  0  0  0  0  0
   20.0809   -2.5244   46.3819 O   0  0  0  0  0  0  0  0  0  0  0  0
   17.1207   -3.3046   48.4840 O   0  0  0  0  0  0  0  0  0  0  0  0
   17.1942   -5.5657   46.6842 O   0  0  0  0  0  0  0  0  0  0  0  0
   20.8102   -3.3653   43.7239 O   0  0  0  0  0  0  0  0  0  0  0  0
   20.0434    0.7688   55.5315 C   0  0  1  0  0  0  0  0  0  0  0  0
   18.9882    1.2891   56.5599 C   0  0  1  0  0  0  0  0  0  0  0  0
   19.6349    1.3005   57.9758 C   0  0  2  0  0  0  0  0  0  0  0  0
   20.1113   -0.1292   58.3791 C   0  0  1  0  0  0  0  0  0  0  0  0
   21.1682   -0.6671   57.3406 C   0  0  0  0  0  0  0  0  0  0  0  0
   20.5039   -0.6830   55.9016 C   0  0  2  0  0  0  0  0  0  0  0  0
   20.7303   -0.0910   59.7330 N   0  0  0  0  0  0  0  0  0  0  0  0
   21.5013   -1.1926   54.9339 N   0  0  0  0  0  0  0  0  0  0  0  0
   18.5756    2.6261   56.2203 O   0  0  0  0  0  0  0  0  0  0  0  0
   18.6560    1.7690   58.8886 O   0  0  0  0  0  0  0  0  0  0  0  0
  1  2  1  0  0  0  0
  1 12  1  1  0  0  0
  1 13  1  0  0  0  0
  2  3  1  0  0  0  0
  2 10  1  1  0  0  0
  4  3  1  1  0  0  0
  4  5  1  0  0  0  0
  4 14  1  0  0  0  0
  5  6  1  0  0  0  0
  5 13  1  6  0  0  0
  6  7  1  0  0  0  0
  6 15  1  6  0  0  0
  7  8  1  0  0  0  0
  7 11  1  6  0  0  0
  8 14  1  0  0  0  0
  8 16  1  1  0  0  0
  9 11  1  0  0  0  0
 17 16  1  1  0  0  0
 17 18  1  0  0  0  0
 17 24  1  0  0  0  0
 18 19  1  0  0  0  0
 18 25  1  1  0  0  0
 19 20  1  0  0  0  0
 19 26  1  6  0  0  0
 20 21  1  0  0  0  0
 20 23  1  1  0  0  0
 21 22  1  6  0  0  0
 21 24  1  0  0  0  0
 22 27  1  0  0  0  0
 28 12  1  6  0  0  0
 28 29  1  0  0  0  0
 28 33  1  0  0  0  0
 29 30  1  0  0  0  0
 29 36  1  6  0  0  0
 30 31  1  0  0  0  0
 30 37  1  1  0  0  0
 31 32  1  0  0  0  0
 31 34  1  1  0  0  0
 32 33  1  0  0  0  0
 33 35  1  6  0  0  0
M  END
>  <CHROM.1>
-153.66439416,66.40316040,-168.29194646,-145.93583301,52.73794426,123.18134064
20.01708345,-1.28342251,51.33741879,1.56041534,-0.61771145,1.12057230

>  <Name>
2oe8_lig

>  <RI>
0

>  <Rbt.Current_Directory>
/home/itssahil/PROJECTS/Mol_Feturizer/New_Systems/rnas/2oe8

>  <Rbt.Executable>
rbdock ($Id: //depot/dev/client3/rdock/2013.1/src/exe/rbdock.cxx#4 $)

>  <Rbt.Library>
libRbt.so (2013.1, Build901 2013/11/27)

>  <Rbt.Parameter_File>
/export/apps/rDock/src/rDock_2013.1_src/data/scripts/dock_solv.prm

>  <Rbt.Receptor>
prm/pocket_docking_2.prm

>  <SCORE>
-18.737

>  <SCORE.INTER>
-18.2728

>  <SCORE.INTER.CONST>
1

>  <SCORE.INTER.POLAR>
-1.74532

>  <SCORE.INTER.ROT>
6

>  <SCORE.INTER.SOLV>
17.3497

>  <SCORE.INTER.VDW>
-19.7474

>  <SCORE.INTER.norm>
-0.493861

>  <SCORE.INTRA>
-0.475941

>  <SCORE.INTRA.DIHEDRAL>
-1.06906

>  <SCORE.INTRA.DIHEDRAL.0>
16.4056

>  <SCORE.INTRA.POLAR>
0

>  <SCORE.INTRA.POLAR.0>
0

>  <SCORE.INTRA.REPUL>
0

>  <SCORE.INTRA.REPUL.0>
0

>  <SCORE.INTRA.SOLV>
0.55976

>  <SCORE.INTRA.SOLV.lig_0>
-90.9627

>  <SCORE.INTRA.VDW>
-0.221293

>  <SCORE.INTRA.VDW.0>
-3.28744

>  <SCORE.INTRA.norm>
-0.0128633

>  <SCORE.RESTR>
0.0117641

>  <SCORE.RESTR.CAVITY>
0.0117641

>  <SCORE.RESTR.norm>
0.00031795

>  <SCORE.SYSTEM>
0

>  <SCORE.SYSTEM.CONST>
0

>  <SCORE.SYSTEM.DIHEDRAL>
0

>  <SCORE.SYSTEM.SOLV>
0

>  <SCORE.SYSTEM.norm>
0

>  <SCORE.heavy>
37

>  <SCORE.norm>
-0.506406

>  <RMSD>
0.621

$$$$
2oe8_lig
 OpenBabel11021811463D
libRbt.so/2013.1/901 2013/11/27
 37 40  0  0  0  0  0  0  0  0999 V2000
   20.1896    1.6232   53.3125 C   0  0  1  0  0  0  0  0  0  0  0  0
   19.1948    2.1437   52.2066 C   0  0  1  0  0  0  0  0  0  0  0  0
   18.5930    0.9391   51.4533 C   0  0  0  0  0  0  0  0  0  0  0  0
   19.7993    0.1786   50.8190 C   0  0  1  0  0  0  0  0  0  0  0  0
   20.8382   -0.3431   51.9391 C   0  0  1  0  0  0  0  0  0  0  0  0
   22.0546   -1.0864   51.3132 C   0  0  1  0  0  0  0  0  0  0  0  0
   21.4830   -2.2971   50.4679 C   0  0  1  0  0  0  0  0  0  0  0  0
   20.4473   -1.7446   49.4277 C   0  0  2  0  0  0  0  0  0  0  0  0
   23.5211   -3.9495   50.5786 C   0  0  0  0  0  0  0  0  0  0  0  0
   18.0957    2.9499   52.8265 N   0  0  0  0  0  0  0  0  0  0  0  0
   22.6045   -3.0642   49.7726 N   0  0  0  0  0  0  0  0  0  0  0  0
   19.5218    0.8090   54.2847 O   0  0  0  0  0  0  0  0  0  0  0  0
   21.2955    0.8146   52.7202 O   0  0  0  0  0  0  0  0  0  0  0  0
   19.3345   -0.9771   50.0605 O   0  0  0  0  0  0  0  0  0  0  0  0
   22.7547   -0.1398   50.5042 O   0  0  0  0  0  0  0  0  0  0  0  0
   19.9016   -2.8052   48.7318 O   0  0  0  0  0  0  0  0  0  0  0  0
   19.1228   -2.3989   47.5937 C   0  0  2  0  0  0  0  0  0  0  0  0
   17.9490   -3.3822   47.3679 C   0  0  1  0  0  0  0  0  0  0  0  0
   18.4517   -4.8004   46.9579 C   0  0  2  0  0  0  0  0  0  0  0  0
   19.3013   -4.6894   45.6575 C   0  0  1  0  0  0  0  0  0  0  0  0
   20.5240   -3.7353   45.9857 C   0  0  1  0  0  0  0  0  0  0  0  0
   21.4310   -3.5318   44.7754 C   0  0  0  0  0  0  0  0  0  0  0  0
   19.7829   -6.0441   45.2633 N   0  0  0  0  0  0  0  0  0  0  0  0
   19.9897   -2.3858   46.3867 O   0  0  0  0  0  0  0  0  0  0  0  0
   17.1788   -3.4141   48.5847 O   0  0  0  0  0  0  0  0  0  0  0  0
   17.3268   -5.6214   46.7238 O   0  0  0  0  0  0  0  0  0  0  0  0
   22.1208   -4.7230   44.5030 O   0  0  0  0  0  0  0  0  0  0  0  0
   20.1802    0.7635   55.5338 C   0  0  1  0  0  0  0  0  0  0  0  0
   19.2058    1.3257   56.6183 C   0  0  1  0  0  0  0  0  0  0  0  0
   19.9304    1.3108   57.9958 C   0  0  2  0  0  0  0  0  0  0  0  0
   20.3708   -0.1370   58.3749 C   0  0  1  0  0  0  0  0  0  0  0  0
   21.3456   -0.7168   57.2803 C   0  0  0  0  0  0  0  0  0  0  0  0
   20.6019   -0.7057   55.8806 C   0  0  2  0  0  0  0  0  0  0  0  0
   21.0654   -0.1239   59.6921 N   0  0  0  0  0  0  0  0  0  0  0  0
   21.5225   -1.2549   54.8598 N   0  0  0  0  0  0  0  0  0  0  0  0
   18.8290    2.6783   56.2994 O   0  0  0  0  0  0  0  0  0  0  0  0
   19.0237    1.8182   58.9609 O   0  0  0  0  0  0  0  0  0  0  0  0
  1  2  1  0  0  0  0
  1 12  1  1  0  0  0
  1 13  1  0  0  0  0
  2  3  1  0  0  0  0
  2 10  1  1  0  0  0
  4  3  1  1  0  0  0
  4  5  1  0  0  0  0
  4 14  1  0  0  0  0
  5  6  1  0  0  0  0
  5 13  1  6  0  0  0
  6  7  1  0  0  0  0
  6 15  1  6  0  0  0
  7  8  1  0  0  0  0
  7 11  1  6  0  0  0
  8 14  1  0  0  0  0
  8 16  1  1  0  0  0
  9 11  1  0  0  0  0
 17 16  1  1  0  0  0
 17 18  1  0  0  0  0
 17 24  1  0  0  0  0
 18 19  1  0  0  0  0
 18 25  1  1  0  0  0
 19 20  1  0  0  0  0
 19 26  1  6  0  0  0
 20 21  1  0  0  0  0
 20 23  1  1  0  0  0
 21 22  1  6  0  0  0
 21 24  1  0  0  0  0
 22 27  1  0  0  0  0
 28 12  1  6  0  0  0
 28 29  1  0  0  0  0
 28 33  1  0  0  0  0
 29 30  1  0  0  0  0
 29 36  1  6  0  0  0
 30 31  1  0  0  0  0
 30 37  1  1  0  0  0
 31 32  1  0  0  0  0
 31 34  1  1  0  0  0
 32 33  1  0  0  0  0
 33 35  1  6  0  0  0
M  END
>  <CHROM.1>
-155.91058168,72.99341754,-169.41101934,-147.17887005,-70.16949992,119.76265079
20.12769726,-1.27466435,51.36015787,1.56101959,-0.56550518,1.10872833

>  <Name>
2oe8_lig

>  <RI>
0

>  <Rbt.Current_Directory>
/home/itssahil/PROJECTS/Mol_Feturizer/New_Systems/rnas/2oe8

>  <Rbt.Executable>
rbdock ($Id: //depot/dev/client3/rdock/2013.1/src/exe/rbdock.cxx#4 $)

>  <Rbt.Library>
libRbt.so (2013.1, Build901 2013/11/27)

>  <Rbt.Parameter_File>
/export/apps/rDock/src/rDock_2013.1_src/data/scripts/dock_solv.prm

>  <Rbt.Receptor>
prm/pocket_docking_2.prm

>  <SCORE>
-18.8235

>  <SCORE.INTER>
-18.1525

>  <SCORE.INTER.CONST>
1

>  <SCORE.INTER.POLAR>
-1.85336

>  <SCORE.INTER.ROT>
6

>  <SCORE.INTER.SOLV>
18.255

>  <SCORE.INTER.VDW>
-19.6088

>  <SCORE.INTER.norm>
-0.490609

>  <SCORE.INTRA>
-0.677846

>  <SCORE.INTRA.DIHEDRAL>
-1.49429

>  <SCORE.INTRA.DIHEDRAL.0>
16.4056

>  <SCORE.INTRA.POLAR>
0

>  <SCORE.INTRA.POLAR.0>
0

>  <SCORE.INTRA.REPUL>
0

>  <SCORE.INTRA.REPUL.0>
0

>  <SCORE.INTRA.SOLV>
0.721104

>  <SCORE.INTRA.SOLV.lig_0>
-90.9627

>  <SCORE.INTRA.VDW>
-0.291255

>  <SCORE.INTRA.VDW.0>
-3.28744

>  <SCORE.INTRA.norm>
-0.0183202

>  <SCORE.RESTR>
0.00689338

>  <SCORE.RESTR.CAVITY>
0.00689338

>  <SCORE.RESTR.norm>
0.000186308

>  <SCORE.SYSTEM>
0

>  <SCORE.SYSTEM.CONST>
0

>  <SCORE.SYSTEM.DIHEDRAL>
0

>  <SCORE.SYSTEM.SOLV>
0

>  <SCORE.SYSTEM.norm>
0

>  <SCORE.heavy>
37

>  <SCORE.norm>
-0.508742

>  <RMSD>
0.642

$$$$
2oe8_lig
 OpenBabel11021811463D
libRbt.so/2013.1/901 2013/11/27
 37 40  0  0  0  0  0  0  0  0999 V2000
   20.2413    1.5561   53.2055 C   0  0  1  0  0  0  0  0  0  0  0  0
   19.2199    2.0642   52.1183 C   0  0  1  0  0  0  0  0  0  0  0  0
   18.6328    0.8532   51.3637 C   0  0  0  0  0  0  0  0  0  0  0  0
   19.8456    0.1235   50.7059 C   0  0  1  0  0  0  0  0  0  0  0  0
   20.9114   -0.3849   51.8066 C   0  0  1  0  0  0  0  0  0  0  0  0
   22.1340   -1.0972   51.1573 C   0  0  1  0  0  0  0  0  0  0  0  0
   21.5760   -2.3130   50.3102 C   0  0  1  0  0  0  0  0  0  0  0  0
   20.5139   -1.7743   49.2896 C   0  0  2  0  0  0  0  0  0  0  0  0
   22.5724   -4.5248   49.3045 C   0  0  0  0  0  0  0  0  0  0  0  0
   18.1131    2.8419   52.7605 N   0  0  0  0  0  0  0  0  0  0  0  0
   22.7031   -3.0505   49.5926 N   0  0  0  0  0  0  0  0  0  0  0  0
   19.6050    0.7202   54.1803 O   0  0  0  0  0  0  0  0  0  0  0  0
   21.3554    0.7760   52.5907 O   0  0  0  0  0  0  0  0  0  0  0  0
   19.3944   -1.0357   49.9445 O   0  0  0  0  0  0  0  0  0  0  0  0
   22.8022   -0.1295   50.3462 O   0  0  0  0  0  0  0  0  0  0  0  0
   19.9806   -2.8406   48.5927 O   0  0  0  0  0  0  0  0  0  0  0  0
   19.1670   -2.4416   47.4766 C   0  0  2  0  0  0  0  0  0  0  0  0
   17.9398   -3.3757   47.3459 C   0  0  1  0  0  0  0  0  0  0  0  0
   18.3566   -4.8310   46.9708 C   0  0  2  0  0  0  0  0  0  0  0  0
   19.1463   -4.8106   45.6288 C   0  0  1  0  0  0  0  0  0  0  0  0
   20.4259   -3.9039   45.8606 C   0  0  1  0  0  0  0  0  0  0  0  0
   21.2815   -3.7904   44.6020 C   0  0  0  0  0  0  0  0  0  0  0  0
   19.5457   -6.2008   45.2678 N   0  0  0  0  0  0  0  0  0  0  0  0
   19.9741   -2.5161   46.2310 O   0  0  0  0  0  0  0  0  0  0  0  0
   17.2289   -3.3242   48.5977 O   0  0  0  0  0  0  0  0  0  0  0  0
   17.1853   -5.6058   46.8230 O   0  0  0  0  0  0  0  0  0  0  0  0
   20.4720   -3.4149   43.5191 O   0  0  0  0  0  0  0  0  0  0  0  0
   20.2892    0.6686   55.4152 C   0  0  1  0  0  0  0  0  0  0  0  0
   19.3675    1.2979   56.5089 C   0  0  1  0  0  0  0  0  0  0  0  0
   20.1221    1.2763   57.8701 C   0  0  2  0  0  0  0  0  0  0  0  0
   20.5025   -0.1829   58.2699 C   0  0  1  0  0  0  0  0  0  0  0  0
   21.4236   -0.8301   57.1665 C   0  0  0  0  0  0  0  0  0  0  0  0
   20.6493   -0.8117   55.7836 C   0  0  2  0  0  0  0  0  0  0  0  0
   21.2271   -0.1764   59.5709 N   0  0  0  0  0  0  0  0  0  0  0  0
   21.5193   -1.4244   54.7546 N   0  0  0  0  0  0  0  0  0  0  0  0
   19.0473    2.6602   56.1700 O   0  0  0  0  0  0  0  0  0  0  0  0
   19.2626    1.8453   58.8440 O   0  0  0  0  0  0  0  0  0  0  0  0
  1  2  1  0  0  0  0
  1 12  1  1  0  0  0
  1 13  1  0  0  0  0
  2  3  1  0  0  0  0
  2 10  1  1  0  0  0
  4  3  1  1  0  0  0
  4  5  1  0  0  0  0
  4 14  1  0  0  0  0
  5  6  1  0  0  0  0
  5 13  1  6  0  0  0
  6  7  1  0  0  0  0
  6 15  1  6  0  0  0
  7  8  1  0  0  0  0
  7 11  1  6  0  0  0
  8 14  1  0  0  0  0
  8 16  1  1  0  0  0
  9 11  1  0  0  0  0
 17 16  1  1  0  0  0
 17 18  1  0  0  0  0
 17 24  1  0  0  0  0
 18 19  1  0  0  0  0
 18 25  1  1  0  0  0
 19 20  1  0  0  0  0
 19 26  1  6  0  0  0
 20 21  1  0  0  0  0
 20 23  1  1  0  0  0
 21 22  1  6  0  0  0
 21 24  1  0  0  0  0
 22 27  1  0  0  0  0
 28 12  1  6  0  0  0
 28 29  1  0  0  0  0
 28 33  1  0  0  0  0
 29 30  1  0  0  0  0
 29 36  1  6  0  0  0
 30 31  1  0  0  0  0
 30 37  1  1  0  0  0
 31 32  1  0  0  0  0
 31 34  1  1  0  0  0
 32 33  1  0  0  0  0
 33 35  1  6  0  0  0
M  END
>  <CHROM.1>
-156.48355208,150.44826759,-169.95266362,-141.86675868,51.00815495,115.74971075
20.09003815,-1.30701831,51.19955705,1.51428341,-0.76475429,1.08751651

>  <Name>
2oe8_lig

>  <RI>
0

>  <Rbt.Current_Directory>
/home/itssahil/PROJECTS/Mol_Feturizer/New_Systems/rnas/2oe8

>  <Rbt.Executable>
rbdock ($Id: //depot/dev/client3/rdock/2013.1/src/exe/rbdock.cxx#4 $)

>  <Rbt.Library>
libRbt.so (2013.1, Build901 2013/11/27)

>  <Rbt.Parameter_File>
/export/apps/rDock/src/rDock_2013.1_src/data/scripts/dock_solv.prm

>  <Rbt.Receptor>
prm/pocket_docking_2.prm

>  <SCORE>
-18.6174

>  <SCORE.INTER>
-17.9784

>  <SCORE.INTER.CONST>
1

>  <SCORE.INTER.POLAR>
-1.87375

>  <SCORE.INTER.ROT>
6

>  <SCORE.INTER.SOLV>
17.8196

>  <SCORE.INTER.VDW>
-19.2797

>  <SCORE.INTER.norm>
-0.485904

>  <SCORE.INTRA>
-0.638912

>  <SCORE.INTRA.DIHEDRAL>
-0.405807

>  <SCORE.INTRA.DIHEDRAL.0>
16.4056

>  <SCORE.INTRA.POLAR>
0

>  <SCORE.INTRA.POLAR.0>
0

>  <SCORE.INTRA.REPUL>
0

>  <SCORE.INTRA.REPUL.0>
0

>  <SCORE.INTRA.SOLV>
0.377019

>  <SCORE.INTRA.SOLV.lig_0>
-90.9627

>  <SCORE.INTRA.VDW>
-0.624518

>  <SCORE.INTRA.VDW.0>
-3.28744

>  <SCORE.INTRA.norm>
-0.0172679

>  <SCORE.RESTR>
0

>  <SCORE.RESTR.CAVITY>
0

>  <SCORE.RESTR.norm>
0

>  <SCORE.SYSTEM>
0

>  <SCORE.SYSTEM.CONST>
0

>  <SCORE.SYSTEM.DIHEDRAL>
0

>  <SCORE.SYSTEM.SOLV>
0

>  <SCORE.SYSTEM.norm>
0

>  <SCORE.heavy>
37

>  <SCORE.norm>
-0.503172

>  <RMSD>
0.654

$$$$
2oe8_lig
 OpenBabel11021811463D
libRbt.so/2013.1/901 2013/11/27
 37 40  0  0  0  0  0  0  0  0999 V2000
   20.2688    1.5039   53.1241 C   0  0  1  0  0  0  0  0  0  0  0  0
   19.1902    1.9800   52.0784 C   0  0  1  0  0  0  0  0  0  0  0  0
   18.6362    0.7543   51.3224 C   0  0  0  0  0  0  0  0  0  0  0  0
   19.8599    0.0929   50.6145 C   0  0  1  0  0  0  0  0  0  0  0  0
   20.9832   -0.3815   51.6723 C   0  0  1  0  0  0  0  0  0  0  0  0
   22.2162   -1.0253   50.9728 C   0  0  1  0  0  0  0  0  0  0  0  0
   21.6884   -2.2529   50.1234 C   0  0  1  0  0  0  0  0  0  0  0  0
   20.5700   -1.7493   49.1460 C   0  0  2  0  0  0  0  0  0  0  0  0
   23.4458   -4.1907   49.8940 C   0  0  0  0  0  0  0  0  0  0  0  0
   18.0696    2.6946   52.7682 N   0  0  0  0  0  0  0  0  0  0  0  0
   22.8250   -2.9252   49.3583 N   0  0  0  0  0  0  0  0  0  0  0  0
   19.7039    0.6240   54.1043 O   0  0  0  0  0  0  0  0  0  0  0  0
   21.3976    0.7868   52.4615 O   0  0  0  0  0  0  0  0  0  0  0  0
   19.4389   -1.0745   49.8482 O   0  0  0  0  0  0  0  0  0  0  0  0
   22.8119   -0.0148   50.1576 O   0  0  0  0  0  0  0  0  0  0  0  0
   20.0649   -2.8288   48.4484 O   0  0  0  0  0  0  0  0  0  0  0  0
   19.1701   -2.4529   47.3877 C   0  0  2  0  0  0  0  0  0  0  0  0
   17.9291   -3.3779   47.3793 C   0  0  1  0  0  0  0  0  0  0  0  0
   18.3041   -4.8472   47.0149 C   0  0  2  0  0  0  0  0  0  0  0  0
   18.9871   -4.8722   45.6156 C   0  0  1  0  0  0  0  0  0  0  0  0
   20.2880   -3.9724   45.7215 C   0  0  1  0  0  0  0  0  0  0  0  0
   21.0440   -3.9027   44.3977 C   0  0  0  0  0  0  0  0  0  0  0  0
   19.3463   -6.2759   45.2648 N   0  0  0  0  0  0  0  0  0  0  0  0
   19.8772   -2.5703   46.0859 O   0  0  0  0  0  0  0  0  0  0  0  0
   17.3181   -3.2842   48.6804 O   0  0  0  0  0  0  0  0  0  0  0  0
   17.1187   -5.6140   46.9805 O   0  0  0  0  0  0  0  0  0  0  0  0
   22.3384   -3.4105   44.6242 O   0  0  0  0  0  0  0  0  0  0  0  0
   20.4468    0.5615   55.3043 C   0  0  1  0  0  0  0  0  0  0  0  0
   19.6551    1.3346   56.4076 C   0  0  1  0  0  0  0  0  0  0  0  0
   20.4780    1.3006   57.7285 C   0  0  2  0  0  0  0  0  0  0  0  0
   20.7312   -0.1691   58.1861 C   0  0  1  0  0  0  0  0  0  0  0  0
   21.5200   -0.9603   57.0741 C   0  0  0  0  0  0  0  0  0  0  0  0
   20.6760   -0.9287   55.7329 C   0  0  2  0  0  0  0  0  0  0  0  0
   21.5238   -0.1750   59.4469 N   0  0  0  0  0  0  0  0  0  0  0  0
   21.4216   -1.6767   54.6957 N   0  0  0  0  0  0  0  0  0  0  0  0
   19.4554    2.7048   56.0127 O   0  0  0  0  0  0  0  0  0  0  0  0
   19.7354    2.0016   58.7124 O   0  0  0  0  0  0  0  0  0  0  0  0
  1  2  1  0  0  0  0
  1 12  1  1  0  0  0
  1 13  1  0  0  0  0
  2  3  1  0  0  0  0
  2 10  1  1  0  0  0
  4  3  1  1  0  0  0
  4  5  1  0  0  0  0
  4 14  1  0  0  0  0
  5  6  1  0  0  0  0
  5 13  1  6  0  0  0
  6  7  1  0  0  0  0
  6 15  1  6  0  0  0
  7  8  1  0  0  0  0
  7 11  1  6  0  0  0
  8 14  1  0  0  0  0
  8 16  1  1  0  0  0
  9 11  1  0  0  0  0
 17 16  1  1  0  0  0
 17 18  1  0  0  0  0
 17 24  1  0  0  0  0
 18 19  1  0  0  0  0
 18 25  1  1  0  0  0
 19 20  1  0  0  0  0
 19 26  1  6  0  0  0
 20 21  1  0  0  0  0
 20 23  1  1  0  0  0
 21 22  1  6  0  0  0
 21 24  1  0  0  0  0
 22 27  1  0  0  0  0
 28 12  1  6  0  0  0
 28 29  1  0  0  0  0
 28 33  1  0  0  0  0
 29 30  1  0  0  0  0
 29 36  1  6  0  0  0
 30 31  1  0  0  0  0
 30 37  1  1  0  0  0
 31 32  1  0  0  0  0
 31 34  1  1  0  0  0
 32 33  1  0  0  0  0
 33 35  1  6  0  0  0
M  END
>  <CHROM.1>
-157.90831079,100.14428526,-171.50345616,-136.60342318,-164.40560729,106.96074825
20.22921365,-1.31805324,51.16726648,1.51556582,-0.48601093,1.09415994

>  <Name>
2oe8_lig

>  <RI>
0

>  <Rbt.Current_Directory>
/home/itssahil/PROJECTS/Mol_Feturizer/New_Systems/rnas/2oe8

>  <Rbt.Executable>
rbdock ($Id: //depot/dev/client3/rdock/2013.1/src/exe/rbdock.cxx#4 $)

>  <Rbt.Library>
libRbt.so (2013.1, Build901 2013/11/27)

>  <Rbt.Parameter_File>
/export/apps/rDock/src/rDock_2013.1_src/data/scripts/dock_solv.prm

>  <Rbt.Receptor>
prm/pocket_docking_2.prm

>  <SCORE>
-18.7373

>  <SCORE.INTER>
-17.8849

>  <SCORE.INTER.CONST>
1

>  <SCORE.INTER.POLAR>
-1.92847

>  <SCORE.INTER.ROT>
6

>  <SCORE.INTER.SOLV>
19.6985

>  <SCORE.INTER.VDW>
-19.6612

>  <SCORE.INTER.norm>
-0.483377

>  <SCORE.INTRA>
-0.852328

>  <SCORE.INTRA.DIHEDRAL>
0.188315

>  <SCORE.INTRA.DIHEDRAL.0>
16.4056

>  <SCORE.INTRA.POLAR>
0

>  <SCORE.INTRA.POLAR.0>
0

>  <SCORE.INTRA.REPUL>
0

>  <SCORE.INTRA.REPUL.0>
0

>  <SCORE.INTRA.SOLV>
-0.843195

>  <SCORE.INTRA.SOLV.lig_0>
-90.9627

>  <SCORE.INTRA.VDW>
-0.524889

>  <SCORE.INTRA.VDW.0>
-3.28744

>  <SCORE.INTRA.norm>
-0.0230359

>  <SCORE.RESTR>
0

>  <SCORE.RESTR.CAVITY>
0

>  <SCORE.RESTR.norm>
0

>  <SCORE.SYSTEM>
0

>  <SCORE.SYSTEM.CONST>
0

>  <SCORE.SYSTEM.DIHEDRAL>
0

>  <SCORE.SYSTEM.SOLV>
0

>  <SCORE.SYSTEM.norm>
0

>  <SCORE.heavy>
37

>  <SCORE.norm>
-0.506413

>  <RMSD>
0.670

$$$$
2oe8_lig
 OpenBabel11021811463D
libRbt.so/2013.1/901 2013/11/27
 37 40  0  0  0  0  0  0  0  0999 V2000
   20.2045    1.5816   53.3443 C   0  0  1  0  0  0  0  0  0  0  0  0
   19.2569    2.1404   52.2159 C   0  0  1  0  0  0  0  0  0  0  0  0
   18.6220    0.9601   51.4514 C   0  0  0  0  0  0  0  0  0  0  0  0
   19.8092    0.1483   50.8451 C   0  0  1  0  0  0  0  0  0  0  0  0
   20.8005   -0.4134   51.9887 C   0  0  1  0  0  0  0  0  0  0  0  0
   21.9983   -1.2084   51.3910 C   0  0  1  0  0  0  0  0  0  0  0  0
   21.3954   -2.3963   50.5352 C   0  0  1  0  0  0  0  0  0  0  0  0
   20.4068   -1.8037   49.4715 C   0  0  2  0  0  0  0  0  0  0  0  0
   23.3922   -4.0939   50.7007 C   0  0  0  0  0  0  0  0  0  0  0  0
   18.1791    2.9933   52.8101 N   0  0  0  0  0  0  0  0  0  0  0  0
   22.4988   -3.2113   49.8661 N   0  0  0  0  0  0  0  0  0  0  0  0
   19.4820    0.7985   54.3028 O   0  0  0  0  0  0  0  0  0  0  0  0
   21.2885    0.7262   52.7778 O   0  0  0  0  0  0  0  0  0  0  0  0
   19.3133   -0.9889   50.0783 O   0  0  0  0  0  0  0  0  0  0  0  0
   22.7549   -0.2938   50.5961 O   0  0  0  0  0  0  0  0  0  0  0  0
   19.8327   -2.8424   48.7654 O   0  0  0  0  0  0  0  0  0  0  0  0
   19.0789   -2.4052   47.6219 C   0  0  2  0  0  0  0  0  0  0  0  0
   17.9039   -3.3755   47.3508 C   0  0  1  0  0  0  0  0  0  0  0  0
   18.4061   -4.7872   46.9182 C   0  0  2  0  0  0  0  0  0  0  0  0
   19.2817   -4.6519   45.6375 C   0  0  1  0  0  0  0  0  0  0  0  0
   20.5034   -3.7134   46.0113 C   0  0  1  0  0  0  0  0  0  0  0  0
   21.4351   -3.4881   44.8239 C   0  0  0  0  0  0  0  0  0  0  0  0
   19.7629   -6.0003   45.2217 N   0  0  0  0  0  0  0  0  0  0  0  0
   19.9694   -2.3700   46.4327 O   0  0  0  0  0  0  0  0  0  0  0  0
   17.1097   -3.4303   48.5513 O   0  0  0  0  0  0  0  0  0  0  0  0
   17.2811   -5.5954   46.6434 O   0  0  0  0  0  0  0  0  0  0  0  0
   22.1115   -4.6814   44.5278 O   0  0  0  0  0  0  0  0  0  0  0  0
   20.0811    0.7751   55.5820 C   0  0  1  0  0  0  0  0  0  0  0  0
   19.0204    1.2535   56.6249 C   0  0  1  0  0  0  0  0  0  0  0  0
   19.6771    1.2628   58.0361 C   0  0  2  0  0  0  0  0  0  0  0  0
   20.1938   -0.1592   58.4164 C   0  0  1  0  0  0  0  0  0  0  0  0
   21.2566   -0.6550   57.3632 C   0  0  0  0  0  0  0  0  0  0  0  0
   20.5822   -0.6689   55.9289 C   0  0  2  0  0  0  0  0  0  0  0  0
   20.8218   -0.1230   59.7662 N   0  0  0  0  0  0  0  0  0  0  0  0
   21.5854   -1.1391   54.9472 N   0  0  0  0  0  0  0  0  0  0  0  0
   18.5703    2.5837   56.3066 O   0  0  0  0  0  0  0  0  0  0  0  0
   18.6932    1.6931   58.9622 O   0  0  0  0  0  0  0  0  0  0  0  0
  1  2  1  0  0  0  0
  1 12  1  1  0  0  0
  1 13  1  0  0  0  0
  2  3  1  0  0  0  0
  2 10  1  1  0  0  0
  4  3  1  1  0  0  0
  4  5  1  0  0  0  0
  4 14  1  0  0  0  0
  5  6  1  0  0  0  0
  5 13  1  6  0  0  0
  6  7  1  0  0  0  0
  6 15  1  6  0  0  0
  7  8  1  0  0  0  0
  7 11  1  6  0  0  0
  8 14  1  0  0  0  0
  8 16  1  1  0  0  0
  9 11  1  0  0  0  0
 17 16  1  1  0  0  0
 17 18  1  0  0  0  0
 17 24  1  0  0  0  0
 18 19  1  0  0  0  0
 18 25  1  1  0  0  0
 19 20  1  0  0  0  0
 19 26  1  6  0  0  0
 20 21  1  0  0  0  0
 20 23  1  1  0  0  0
 21 22  1  6  0  0  0
 21 24  1  0  0  0  0
 22 27  1  0  0  0  0
 28 12  1  6  0  0  0
 28 29  1  0  0  0  0
 28 33  1  0  0  0  0
 29 30  1  0  0  0  0
 29 36  1  6  0  0  0
 30 31  1  0  0  0  0
 30 37  1  1  0  0  0
 31 32  1  0  0  0  0
 31 34  1  1  0  0  0
 32 33  1  0  0  0  0
 33 35  1  6  0  0  0
M  END
>  <CHROM.1>
-153.38316793,70.77782566,-170.35744717,-149.14300964,-69.48436004,124.76420147
20.06406644,-1.29886723,51.38961201,1.57202169,-0.55281645,1.11926433

>  <Name>
2oe8_lig

>  <RI>
0

>  <Rbt.Current_Directory>
/home/itssahil/PROJECTS/Mol_Feturizer/New_Systems/rnas/2oe8

>  <Rbt.Executable>
rbdock ($Id: //depot/dev/client3/rdock/2013.1/src/exe/rbdock.cxx#4 $)

>  <Rbt.Library>
libRbt.so (2013.1, Build901 2013/11/27)

>  <Rbt.Parameter_File>
/export/apps/rDock/src/rDock_2013.1_src/data/scripts/dock_solv.prm

>  <Rbt.Receptor>
prm/pocket_docking_2.prm

>  <SCORE>
-18.9706

>  <SCORE.INTER>
-18.287

>  <SCORE.INTER.CONST>
1

>  <SCORE.INTER.POLAR>
-1.7946

>  <SCORE.INTER.ROT>
6

>  <SCORE.INTER.SOLV>
17.8349

>  <SCORE.INTER.VDW>
-19.7543

>  <SCORE.INTER.norm>
-0.494242

>  <SCORE.INTRA>
-0.683694

>  <SCORE.INTRA.DIHEDRAL>
-1.69173

>  <SCORE.INTRA.DIHEDRAL.0>
16.4056

>  <SCORE.INTRA.POLAR>
0

>  <SCORE.INTRA.POLAR.0>
0

>  <SCORE.INTRA.REPUL>
0

>  <SCORE.INTRA.REPUL.0>
0

>  <SCORE.INTRA.SOLV>
0.803285

>  <SCORE.INTRA.SOLV.lig_0>
-90.9627

>  <SCORE.INTRA.VDW>
-0.239472

>  <SCORE.INTRA.VDW.0>
-3.28744

>  <SCORE.INTRA.norm>
-0.0184782

>  <SCORE.RESTR>
0

>  <SCORE.RESTR.CAVITY>
0

>  <SCORE.RESTR.norm>
0

>  <SCORE.SYSTEM>
0

>  <SCORE.SYSTEM.CONST>
0

>  <SCORE.SYSTEM.DIHEDRAL>
0

>  <SCORE.SYSTEM.SOLV>
0

>  <SCORE.SYSTEM.norm>
0

>  <SCORE.heavy>
37

>  <SCORE.norm>
-0.51272

>  <RMSD>
0.684

$$$$
2oe8_lig
 OpenBabel11021811463D
libRbt.so/2013.1/901 2013/11/27
 37 40  0  0  0  0  0  0  0  0999 V2000
   20.2476    1.4949   53.1925 C   0  0  1  0  0  0  0  0  0  0  0  0
   19.1260    1.9464   52.1818 C   0  0  1  0  0  0  0  0  0  0  0  0
   18.6137    0.7160   51.4045 C   0  0  0  0  0  0  0  0  0  0  0  0
   19.8514    0.1313   50.6548 C   0  0  1  0  0  0  0  0  0  0  0  0
   21.0179   -0.3168   51.6769 C   0  0  1  0  0  0  0  0  0  0  0  0
   22.2643   -0.8837   50.9358 C   0  0  1  0  0  0  0  0  0  0  0  0
   21.7762   -2.1124   50.0647 C   0  0  1  0  0  0  0  0  0  0  0  0
   20.6150   -1.6370   49.1237 C   0  0  2  0  0  0  0  0  0  0  0  0
   24.0242   -3.4663   49.9646 C   0  0  0  0  0  0  0  0  0  0  0  0
   17.9883    2.5895   52.9128 N   0  0  0  0  0  0  0  0  0  0  0  0
   22.9264   -2.7106   49.2592 N   0  0  0  0  0  0  0  0  0  0  0  0
   19.7452    0.5645   54.1600 O   0  0  0  0  0  0  0  0  0  0  0  0
   21.3942    0.8490   52.4885 O   0  0  0  0  0  0  0  0  0  0  0  0
   19.4690   -1.0345   49.8662 O   0  0  0  0  0  0  0  0  0  0  0  0
   22.7949    0.1745   50.1361 O   0  0  0  0  0  0  0  0  0  0  0  0
   20.1460   -2.7207   48.4077 O   0  0  0  0  0  0  0  0  0  0  0  0
   19.2282   -2.3582   47.3622 C   0  0  2  0  0  0  0  0  0  0  0  0
   17.9922   -3.2895   47.3863 C   0  0  1  0  0  0  0  0  0  0  0  0
   18.3673   -4.7598   47.0264 C   0  0  2  0  0  0  0  0  0  0  0  0
   19.0224   -4.7930   45.6140 C   0  0  1  0  0  0  0  0  0  0  0  0
   20.3204   -3.8858   45.6864 C   0  0  1  0  0  0  0  0  0  0  0  0
   21.0494   -3.8233   44.3472 C   0  0  0  0  0  0  0  0  0  0  0  0
   19.3818   -6.1978   45.2675 N   0  0  0  0  0  0  0  0  0  0  0  0
   19.9097   -2.4828   46.0475 O   0  0  0  0  0  0  0  0  0  0  0  0
   17.4068   -3.1881   48.6985 O   0  0  0  0  0  0  0  0  0  0  0  0
   17.1855   -5.5329   47.0221 O   0  0  0  0  0  0  0  0  0  0  0  0
   20.1581   -3.4001   43.3494 O   0  0  0  0  0  0  0  0  0  0  0  0
   20.4208    0.6164   55.3996 C   0  0  1  0  0  0  0  0  0  0  0  0
   19.3862    1.0131   56.5014 C   0  0  1  0  0  0  0  0  0  0  0  0
   20.1241    1.1049   57.8689 C   0  0  2  0  0  0  0  0  0  0  0  0
   20.7915   -0.2578   58.2312 C   0  0  1  0  0  0  0  0  0  0  0  0
   21.8291   -0.6718   57.1192 C   0  0  0  0  0  0  0  0  0  0  0  0
   21.0726   -0.7702   55.7299 C   0  0  2  0  0  0  0  0  0  0  0  0
   21.4946   -0.1428   59.5389 N   0  0  0  0  0  0  0  0  0  0  0  0
   22.0530   -1.1630   54.6926 N   0  0  0  0  0  0  0  0  0  0  0  0
   18.7973    2.2914   56.1977 O   0  0  0  0  0  0  0  0  0  0  0  0
   19.1632    1.4587   58.8498 O   0  0  0  0  0  0  0  0  0  0  0  0
  1  2  1  0  0  0  0
  1 12  1  1  0  0  0
  1 13  1  0  0  0  0
  2  3  1  0  0  0  0
  2 10  1  1  0  0  0
  4  3  1  1  0  0  0
  4  5  1  0  0  0  0
  4 14  1  0  0  0  0
  5  6  1  0  0  0  0
  5 13  1  6  0  0  0
  6  7  1  0  0  0  0
  6 15  1  6  0  0  0
  7  8  1  0  0  0  0
  7 11  1  6  0  0  0
  8 14  1  0  0  0  0
  8 16  1  1  0  0  0
  9 11  1  0  0  0  0
 17 16  1  1  0  0  0
 17 18  1  0  0  0  0
 17 24  1  0  0  0  0
 18 19  1  0  0  0  0
 18 25  1  1  0  0  0
 19 20  1  0  0  0  0
 19 26  1  6  0  0  0
 20 21  1  0  0  0  0
 20 23  1  1  0  0  0
 21 22  1  6  0  0  0
 21 24  1  0  0  0  0
 22 27  1  0  0  0  0
 28 12  1  6  0  0  0
 28 29  1  0  0  0  0
 28 33  1  0  0  0  0
 29 30  1  0  0  0  0
 29 36  1  6  0  0  0
 30 31  1  0  0  0  0
 30 37  1  1  0  0  0
 31 32  1  0  0  0  0
 31 34  1  1  0  0  0
 32 33  1  0  0  0  0
 33 35  1  6  0  0  0
M  END
>  <CHROM.1>
-150.99034882,70.22990982,-170.59590275,-133.97686292,54.75076140,118.72208781
20.18140040,-1.26690669,51.15837409,1.51230135,-0.32907165,1.13308004

>  <Name>
2oe8_lig

>  <RI>
0

>  <Rbt.Current_Directory>
/home/itssahil/PROJECTS/Mol_Feturizer/New_Systems/rnas/2oe8

>  <Rbt.Executable>
rbdock ($Id: //depot/dev/client3/rdock/2013.1/src/exe/rbdock.cxx#4 $)

>  <Rbt.Library>
libRbt.so (2013.1, Build901 2013/11/27)

>  <Rbt.Parameter_File>
/export/apps/rDock/src/rDock_2013.1_src/data/scripts/dock_solv.prm

>  <Rbt.Receptor>
prm/pocket_docking_2.prm

>  <SCORE>
-18.1375

>  <SCORE.INTER>
-18.5448

>  <SCORE.INTER.CONST>
1

>  <SCORE.INTER.POLAR>
-1.86577

>  <SCORE.INTER.ROT>
6

>  <SCORE.INTER.SOLV>
18.0231

>  <SCORE.INTER.VDW>
-19.7517

>  <SCORE.INTER.norm>
-0.501211

>  <SCORE.INTRA>
0.407294

>  <SCORE.INTRA.DIHEDRAL>
1.12166

>  <SCORE.INTRA.DIHEDRAL.0>
16.4056

>  <SCORE.INTRA.POLAR>
0

>  <SCORE.INTRA.POLAR.0>
0

>  <SCORE.INTRA.REPUL>
0

>  <SCORE.INTRA.REPUL.0>
0

>  <SCORE.INTRA.SOLV>
0.398156

>  <SCORE.INTRA.SOLV.lig_0>
-90.9627

>  <SCORE.INTRA.VDW>
-0.352617

>  <SCORE.INTRA.VDW.0>
-3.28744

>  <SCORE.INTRA.norm>
0.0110079

>  <SCORE.RESTR>
0

>  <SCORE.RESTR.CAVITY>
0

>  <SCORE.RESTR.norm>
0

>  <SCORE.SYSTEM>
0

>  <SCORE.SYSTEM.CONST>
0

>  <SCORE.SYSTEM.DIHEDRAL>
0

>  <SCORE.SYSTEM.SOLV>
0

>  <SCORE.SYSTEM.norm>
0

>  <SCORE.heavy>
37

>  <SCORE.norm>
-0.490203

>  <RMSD>
0.687

$$$$
2oe8_lig
 OpenBabel11021811463D
libRbt.so/2013.1/901 2013/11/27
 37 40  0  0  0  0  0  0  0  0999 V2000
   20.2383    1.5287   53.1891 C   0  0  1  0  0  0  0  0  0  0  0  0
   19.1136    1.9733   52.1787 C   0  0  1  0  0  0  0  0  0  0  0  0
   18.5994    0.7377   51.4109 C   0  0  0  0  0  0  0  0  0  0  0  0
   19.8352    0.1486   50.6614 C   0  0  1  0  0  0  0  0  0  0  0  0
   21.0048   -0.2925   51.6829 C   0  0  1  0  0  0  0  0  0  0  0  0
   22.2493   -0.8636   50.9418 C   0  0  1  0  0  0  0  0  0  0  0  0
   21.7591   -2.0981   50.0801 C   0  0  1  0  0  0  0  0  0  0  0  0
   20.5950   -1.6292   49.1394 C   0  0  2  0  0  0  0  0  0  0  0  0
   23.0536   -4.1990   49.1816 C   0  0  0  0  0  0  0  0  0  0  0  0
   17.9778    2.6207   52.9089 N   0  0  0  0  0  0  0  0  0  0  0  0
   22.9071   -2.7011   49.2751 N   0  0  0  0  0  0  0  0  0  0  0  0
   19.7392    0.6044   54.1640 O   0  0  0  0  0  0  0  0  0  0  0  0
   21.3831    0.8787   52.4858 O   0  0  0  0  0  0  0  0  0  0  0  0
   19.4509   -1.0223   49.8815 O   0  0  0  0  0  0  0  0  0  0  0  0
   22.7771    0.1895   50.1337 O   0  0  0  0  0  0  0  0  0  0  0  0
   20.1242   -2.7177   48.4319 O   0  0  0  0  0  0  0  0  0  0  0  0
   19.2319   -2.3594   47.3631 C   0  0  2  0  0  0  0  0  0  0  0  0
   17.9915   -3.2851   47.3664 C   0  0  1  0  0  0  0  0  0  0  0  0
   18.3681   -4.7598   47.0264 C   0  0  2  0  0  0  0  0  0  0  0  0
   19.0547   -4.8067   45.6294 C   0  0  1  0  0  0  0  0  0  0  0  0
   20.3549   -3.9046   45.7242 C   0  0  1  0  0  0  0  0  0  0  0  0
   21.1142   -3.8557   44.4014 C   0  0  0  0  0  0  0  0  0  0  0  0
   19.4156   -6.2157   45.3019 N   0  0  0  0  0  0  0  0  0  0  0  0
   19.9425   -2.4971   46.0652 O   0  0  0  0  0  0  0  0  0  0  0  0
   17.3771   -3.1710   48.6642 O   0  0  0  0  0  0  0  0  0  0  0  0
   17.1832   -5.5277   47.0012 O   0  0  0  0  0  0  0  0  0  0  0  0
   20.2589   -3.3956   43.3885 O   0  0  0  0  0  0  0  0  0  0  0  0
   20.5057    0.5633   55.3500 C   0  0  1  0  0  0  0  0  0  0  0  0
   19.7210    1.3288   56.4634 C   0  0  1  0  0  0  0  0  0  0  0  0
   20.5692    1.3185   57.7685 C   0  0  2  0  0  0  0  0  0  0  0  0
   20.8582   -0.1433   58.2302 C   0  0  1  0  0  0  0  0  0  0  0  0
   21.6402   -0.9271   57.1082 C   0  0  0  0  0  0  0  0  0  0  0  0
   20.7705   -0.9196   55.7832 C   0  0  2  0  0  0  0  0  0  0  0  0
   21.6745   -0.1264   59.4757 N   0  0  0  0  0  0  0  0  0  0  0  0
   21.5099   -1.6606   54.7366 N   0  0  0  0  0  0  0  0  0  0  0  0
   19.4885    2.6925   56.0641 O   0  0  0  0  0  0  0  0  0  0  0  0
   19.8327    2.0121   58.7621 O   0  0  0  0  0  0  0  0  0  0  0  0
  1  2  1  0  0  0  0
  1 12  1  1  0  0  0
  1 13  1  0  0  0  0
  2  3  1  0  0  0  0
  2 10  1  1  0  0  0
  4  3  1  1  0  0  0
  4  5  1  0  0  0  0
  4 14  1  0  0  0  0
  5  6  1  0  0  0  0
  5 13  1  6  0  0  0
  6  7  1  0  0  0  0
  6 15  1  6  0  0  0
  7  8  1  0  0  0  0
  7 11  1  6  0  0  0
  8 14  1  0  0  0  0
  8 16  1  1  0  0  0
  9 11  1  0  0  0  0
 17 16  1  1  0  0  0
 17 18  1  0  0  0  0
 17 24  1  0  0  0  0
 18 19  1  0  0  0  0
 18 25  1  1  0  0  0
 19 20  1  0  0  0  0
 19 26  1  6  0  0  0
 20 21  1  0  0  0  0
 20 23  1  1  0  0  0
 21 22  1  6  0  0  0
 21 24  1  0  0  0  0
 22 27  1  0  0  0  0
 28 12  1  6  0  0  0
 28 29  1  0  0  0  0
 28 33  1  0  0  0  0
 29 30  1  0  0  0  0
 29 36  1  6  0  0  0
 30 31  1  0  0  0  0
 30 37  1  1  0  0  0
 31 32  1  0  0  0  0
 31 34  1  1  0  0  0
 32 33  1  0  0  0  0
 33 35  1  6  0  0  0
M  END
>  <CHROM.1>
-157.33624495,137.69456533,-168.97682312,-134.73861768,56.61128095,104.55317948
20.19743233,-1.26090498,51.13099761,1.48503409,-0.66727745,1.08153307

>  <Name>
2oe8_lig

>  <RI>
0

>  <Rbt.Current_Directory>
/home/itssahil/PROJECTS/Mol_Feturizer/New_Systems/rnas/2oe8

>  <Rbt.Executable>
rbdock ($Id: //depot/dev/client3/rdock/2013.1/src/exe/rbdock.cxx#4 $)

>  <Rbt.Library>
libRbt.so (2013.1, Build901 2013/11/27)

>  <Rbt.Parameter_File>
/export/apps/rDock/src/rDock_2013.1_src/data/scripts/dock_solv.prm

>  <Rbt.Receptor>
prm/pocket_docking_2.prm

>  <SCORE>
-18.2526

>  <SCORE.INTER>
-17.3347

>  <SCORE.INTER.CONST>
1

>  <SCORE.INTER.POLAR>
-1.8583

>  <SCORE.INTER.ROT>
6

>  <SCORE.INTER.SOLV>
19.6574

>  <SCORE.INTER.VDW>
-19.5146

>  <SCORE.INTER.norm>
-0.468506

>  <SCORE.INTRA>
-0.922267

>  <SCORE.INTRA.DIHEDRAL>
-0.264003

>  <SCORE.INTRA.DIHEDRAL.0>
16.4056

>  <SCORE.INTRA.POLAR>
0

>  <SCORE.INTRA.POLAR.0>
0

>  <SCORE.INTRA.REPUL>
0

>  <SCORE.INTRA.REPUL.0>
0

>  <SCORE.INTRA.SOLV>
-0.201282

>  <SCORE.INTRA.SOLV.lig_0>
-90.9627

>  <SCORE.INTRA.VDW>
-0.689625

>  <SCORE.INTRA.VDW.0>
-3.28744

>  <SCORE.INTRA.norm>
-0.0249261

>  <SCORE.RESTR>
0.00438195

>  <SCORE.RESTR.CAVITY>
0.00438195

>  <SCORE.RESTR.norm>
0.000118431

>  <SCORE.SYSTEM>
0

>  <SCORE.SYSTEM.CONST>
0

>  <SCORE.SYSTEM.DIHEDRAL>
0

>  <SCORE.SYSTEM.SOLV>
0

>  <SCORE.SYSTEM.norm>
0

>  <SCORE.heavy>
37

>  <SCORE.norm>
-0.493314

>  <RMSD>
0.693

$$$$
2oe8_lig
 OpenBabel11021811463D
libRbt.so/2013.1/901 2013/11/27
 37 40  0  0  0  0  0  0  0  0999 V2000
   20.1901    1.5991   53.3526 C   0  0  1  0  0  0  0  0  0  0  0  0
   19.2560    2.1611   52.2146 C   0  0  1  0  0  0  0  0  0  0  0  0
   18.6178    0.9829   51.4496 C   0  0  0  0  0  0  0  0  0  0  0  0
   19.8033    0.1594   50.8558 C   0  0  1  0  0  0  0  0  0  0  0  0
   20.7810   -0.4058   52.0094 C   0  0  1  0  0  0  0  0  0  0  0  0
   21.9772   -1.2125   51.4242 C   0  0  1  0  0  0  0  0  0  0  0  0
   21.3717   -2.3989   50.5682 C   0  0  1  0  0  0  0  0  0  0  0  0
   20.3963   -1.8026   49.4944 C   0  0  2  0  0  0  0  0  0  0  0  0
   23.4282   -4.0200   50.7660 C   0  0  0  0  0  0  0  0  0  0  0  0
   18.1803    3.0247   52.7970 N   0  0  0  0  0  0  0  0  0  0  0  0
   22.4739   -3.2251   49.9110 N   0  0  0  0  0  0  0  0  0  0  0  0
   19.4539    0.8254   54.3083 O   0  0  0  0  0  0  0  0  0  0  0  0
   21.2717    0.7330   52.7981 O   0  0  0  0  0  0  0  0  0  0  0  0
   19.3045   -0.9768   50.0894 O   0  0  0  0  0  0  0  0  0  0  0  0
   22.7473   -0.3070   50.6320 O   0  0  0  0  0  0  0  0  0  0  0  0
   19.8196   -2.8394   48.7877 O   0  0  0  0  0  0  0  0  0  0  0  0
   19.0705   -2.4000   47.6420 C   0  0  2  0  0  0  0  0  0  0  0  0
   17.9043   -3.3768   47.3563 C   0  0  1  0  0  0  0  0  0  0  0  0
   18.4196   -4.7819   46.9179 C   0  0  2  0  0  0  0  0  0  0  0  0
   19.3029   -4.6319   45.6442 C   0  0  1  0  0  0  0  0  0  0  0  0
   20.5154   -3.6873   46.0326 C   0  0  1  0  0  0  0  0  0  0  0  0
   21.4536   -3.4475   44.8532 C   0  0  0  0  0  0  0  0  0  0  0  0
   19.7966   -5.9741   45.2229 N   0  0  0  0  0  0  0  0  0  0  0  0
   19.9689   -2.3506   46.4592 O   0  0  0  0  0  0  0  0  0  0  0  0
   17.1024   -3.4451   48.5509 O   0  0  0  0  0  0  0  0  0  0  0  0
   17.3023   -5.5962   46.6300 O   0  0  0  0  0  0  0  0  0  0  0  0
   22.0793   -4.6532   44.5013 O   0  0  0  0  0  0  0  0  0  0  0  0
   20.0367    0.8113   55.5951 C   0  0  1  0  0  0  0  0  0  0  0  0
   18.9638    1.3002   56.6206 C   0  0  1  0  0  0  0  0  0  0  0  0
   19.6027    1.3197   58.0399 C   0  0  2  0  0  0  0  0  0  0  0  0
   20.1117   -0.1000   58.4383 C   0  0  1  0  0  0  0  0  0  0  0  0
   21.1868   -0.6065   57.4026 C   0  0  0  0  0  0  0  0  0  0  0  0
   20.5305   -0.6308   55.9601 C   0  0  2  0  0  0  0  0  0  0  0  0
   20.7226   -0.0541   59.7956 N   0  0  0  0  0  0  0  0  0  0  0  0
   21.5451   -1.1108   54.9950 N   0  0  0  0  0  0  0  0  0  0  0  0
   18.5205    2.6286   56.2859 O   0  0  0  0  0  0  0  0  0  0  0  0
   18.6080    1.7594   58.9500 O   0  0  0  0  0  0  0  0  0  0  0  0
  1  2  1  0  0  0  0
  1 12  1  1  0  0  0
  1 13  1  0  0  0  0
  2  3  1  0  0  0  0
  2 10  1  1  0  0  0
  4  3  1  1  0  0  0
  4  5  1  0  0  0  0
  4 14  1  0  0  0  0
  5  6  1  0  0  0  0
  5 13  1  6  0  0  0
  6  7  1  0  0  0  0
  6 15  1  6  0  0  0
  7  8  1  0  0  0  0
  7 11  1  6  0  0  0
  8 14  1  0  0  0  0
  8 16  1  1  0  0  0
  9 11  1  0  0  0  0
 17 16  1  1  0  0  0
 17 18  1  0  0  0  0
 17 24  1  0  0  0  0
 18 19  1  0  0  0  0
 18 25  1  1  0  0  0
 19 20  1  0  0  0  0
 19 26  1  6  0  0  0
 20 21  1  0  0  0  0
 20 23  1  1  0  0  0
 21 22  1  6  0  0  0
 21 24  1  0  0  0  0
 22 27  1  0  0  0  0
 28 12  1  6  0  0  0
 28 29  1  0  0  0  0
 28 33  1  0  0  0  0
 29 30  1  0  0  0  0
 29 36  1  6  0  0  0
 30 31  1  0  0  0  0
 30 37  1  1  0  0  0
 31 32  1  0  0  0  0
 31 34  1  1  0  0  0
 32 33  1  0  0  0  0
 33 35  1  6  0  0  0
M  END
>  <CHROM.1>
-152.88713350,65.57953552,-170.76891947,-149.95937967,-65.89234801,124.77679036
20.04410260,-1.27599407,51.40381530,1.57815843,-0.54865637,1.12034851

>  <Name>
2oe8_lig

>  <RI>
0

>  <Rbt.Current_Directory>
/home/itssahil/PROJECTS/Mol_Feturizer/New_Systems/rnas/2oe8

>  <Rbt.Executable>
rbdock ($Id: //depot/dev/client3/rdock/2013.1/src/exe/rbdock.cxx#4 $)

>  <Rbt.Library>
libRbt.so (2013.1, Build901 2013/11/27)

>  <Rbt.Parameter_File>
/export/apps/rDock/src/rDock_2013.1_src/data/scripts/dock_solv.prm

>  <Rbt.Receptor>
prm/pocket_docking_2.prm

>  <SCORE>
-18.8985

>  <SCORE.INTER>
-18.1945

>  <SCORE.INTER.CONST>
1

>  <SCORE.INTER.POLAR>
-1.8055

>  <SCORE.INTER.ROT>
6

>  <SCORE.INTER.SOLV>
17.6635

>  <SCORE.INTER.VDW>
-19.5992

>  <SCORE.INTER.norm>
-0.491743

>  <SCORE.INTRA>
-0.704008

>  <SCORE.INTRA.DIHEDRAL>
-2.05333

>  <SCORE.INTRA.DIHEDRAL.0>
16.4056

>  <SCORE.INTRA.POLAR>
0

>  <SCORE.INTRA.POLAR.0>
0

>  <SCORE.INTRA.REPUL>
0

>  <SCORE.INTRA.REPUL.0>
0

>  <SCORE.INTRA.SOLV>
0.843848

>  <SCORE.INTRA.SOLV.lig_0>
-90.9627

>  <SCORE.INTRA.VDW>
-0.0992649

>  <SCORE.INTRA.VDW.0>
-3.28744

>  <SCORE.INTRA.norm>
-0.0190273

>  <SCORE.RESTR>
0

>  <SCORE.RESTR.CAVITY>
0

>  <SCORE.RESTR.norm>
0

>  <SCORE.SYSTEM>
0

>  <SCORE.SYSTEM.CONST>
0

>  <SCORE.SYSTEM.DIHEDRAL>
0

>  <SCORE.SYSTEM.SOLV>
0

>  <SCORE.SYSTEM.norm>
0

>  <SCORE.heavy>
37

>  <SCORE.norm>
-0.51077

>  <RMSD>
0.703

$$$$
2oe8_lig
 OpenBabel11021811463D
libRbt.so/2013.1/901 2013/11/27
 37 40  0  0  0  0  0  0  0  0999 V2000
   20.3148    1.4478   53.1453 C   0  0  1  0  0  0  0  0  0  0  0  0
   19.1861    1.9089   52.1468 C   0  0  1  0  0  0  0  0  0  0  0  0
   18.6652    0.6851   51.3647 C   0  0  0  0  0  0  0  0  0  0  0  0
   19.8958    0.1036   50.6010 C   0  0  1  0  0  0  0  0  0  0  0  0
   21.0694   -0.3543   51.6104 C   0  0  1  0  0  0  0  0  0  0  0  0
   22.3088   -0.9180   50.8553 C   0  0  1  0  0  0  0  0  0  0  0  0
   21.8114   -2.1394   49.9791 C   0  0  1  0  0  0  0  0  0  0  0  0
   20.6437   -1.6549   49.0509 C   0  0  2  0  0  0  0  0  0  0  0  0
   24.0578   -3.4937   49.8516 C   0  0  0  0  0  0  0  0  0  0  0  0
   18.0555    2.5488   52.8915 N   0  0  0  0  0  0  0  0  0  0  0  0
   22.9539   -2.7340   49.1602 N   0  0  0  0  0  0  0  0  0  0  0  0
   19.8183    0.5113   54.1099 O   0  0  0  0  0  0  0  0  0  0  0  0
   21.4545    0.8049   52.4275 O   0  0  0  0  0  0  0  0  0  0  0  0
   19.5048   -1.0557   49.8069 O   0  0  0  0  0  0  0  0  0  0  0  0
   22.8351    0.1449   50.0591 O   0  0  0  0  0  0  0  0  0  0  0  0
   20.1668   -2.7325   48.3308 O   0  0  0  0  0  0  0  0  0  0  0  0
   19.2093   -2.3651   47.3233 C   0  0  2  0  0  0  0  0  0  0  0  0
   17.9530   -3.2635   47.4238 C   0  0  1  0  0  0  0  0  0  0  0  0
   18.2737   -4.7493   47.0746 C   0  0  2  0  0  0  0  0  0  0  0  0
   18.8592   -4.8246   45.6336 C   0  0  1  0  0  0  0  0  0  0  0  0
   20.1815   -3.9501   45.6270 C   0  0  1  0  0  0  0  0  0  0  0  0
   20.8468   -3.9304   44.2537 C   0  0  0  0  0  0  0  0  0  0  0  0
   19.1664   -6.2441   45.2972 N   0  0  0  0  0  0  0  0  0  0  0  0
   19.8238   -2.5307   45.9804 O   0  0  0  0  0  0  0  0  0  0  0  0
   17.4339   -3.1237   48.7601 O   0  0  0  0  0  0  0  0  0  0  0  0
   17.0740   -5.4915   47.1411 O   0  0  0  0  0  0  0  0  0  0  0  0
   22.1518   -3.4288   44.3740 O   0  0  0  0  0  0  0  0  0  0  0  0
   20.5664    0.4820   55.3079 C   0  0  1  0  0  0  0  0  0  0  0  0
   19.8186    1.3505   56.3700 C   0  0  1  0  0  0  0  0  0  0  0  0
   20.6489    1.3528   57.6867 C   0  0  2  0  0  0  0  0  0  0  0  0
   20.8389   -0.0991   58.2247 C   0  0  1  0  0  0  0  0  0  0  0  0
   21.5829   -0.9861   57.1549 C   0  0  0  0  0  0  0  0  0  0  0  0
   20.7313   -0.9908   55.8181 C   0  0  2  0  0  0  0  0  0  0  0  0
   21.6397   -0.0708   59.4799 N   0  0  0  0  0  0  0  0  0  0  0  0
   21.4347   -1.8287   54.8209 N   0  0  0  0  0  0  0  0  0  0  0  0
   19.6780    2.7043   55.9001 O   0  0  0  0  0  0  0  0  0  0  0  0
   19.9460    2.1406   58.6335 O   0  0  0  0  0  0  0  0  0  0  0  0
  1  2  1  0  0  0  0
  1 12  1  1  0  0  0
  1 13  1  0  0  0  0
  2  3  1  0  0  0  0
  2 10  1  1  0  0  0
  4  3  1  1  0  0  0
  4  5  1  0  0  0  0
  4 14  1  0  0  0  0
  5  6  1  0  0  0  0
  5 13  1  6  0  0  0
  6  7  1  0  0  0  0
  6 15  1  6  0  0  0
  7  8  1  0  0  0  0
  7 11  1  6  0  0  0
  8 14  1  0  0  0  0
  8 16  1  1  0  0  0
  9 11  1  0  0  0  0
 17 16  1  1  0  0  0
 17 18  1  0  0  0  0
 17 24  1  0  0  0  0
 18 19  1  0  0  0  0
 18 25  1  1  0  0  0
 19 20  1  0  0  0  0
 19 26  1  6  0  0  0
 20 21  1  0  0  0  0
 20 23  1  1  0  0  0
 21 22  1  6  0  0  0
 21 24  1  0  0  0  0
 22 27  1  0  0  0  0
 28 12  1  6  0  0  0
 28 29  1  0  0  0  0
 28 33  1  0  0  0  0
 29 30  1  0  0  0  0
 29 36  1  6  0  0  0
 30 31  1  0  0  0  0
 30 37  1  1  0  0  0
 31 32  1  0  0  0  0
 31 34  1  1  0  0  0
 32 33  1  0  0  0  0
 33 35  1  6  0  0  0
M  END
>  <CHROM.1>
-155.48136267,70.06716055,-172.45557381,-130.73814186,-165.85595258,98.93283482
20.28633358,-1.26686482,51.14228304,1.50479482,-0.27598665,1.11392848

>  <Name>
2oe8_lig

>  <RI>
0

>  <Rbt.Current_Directory>
/home/itssahil/PROJECTS/Mol_Feturizer/New_Systems/rnas/2oe8

>  <Rbt.Executable>
rbdock ($Id: //depot/dev/client3/rdock/2013.1/src/exe/rbdock.cxx#4 $)

>  <Rbt.Library>
libRbt.so (2013.1, Build901 2013/11/27)

>  <Rbt.Parameter_File>
/export/apps/rDock/src/rDock_2013.1_src/data/scripts/dock_solv.prm

>  <Rbt.Receptor>
prm/pocket_docking_2.prm

>  <SCORE>
-19.1698

>  <SCORE.INTER>
-17.9961

>  <SCORE.INTER.CONST>
1

>  <SCORE.INTER.POLAR>
-1.85558

>  <SCORE.INTER.ROT>
6

>  <SCORE.INTER.SOLV>
20.5631

>  <SCORE.INTER.VDW>
-20.2665

>  <SCORE.INTER.norm>
-0.486382

>  <SCORE.INTRA>
-1.17365

>  <SCORE.INTRA.DIHEDRAL>
-0.865462

>  <SCORE.INTRA.DIHEDRAL.0>
16.4056

>  <SCORE.INTRA.POLAR>
0

>  <SCORE.INTRA.POLAR.0>
0

>  <SCORE.INTRA.REPUL>
0

>  <SCORE.INTRA.REPUL.0>
0

>  <SCORE.INTRA.SOLV>
-1.12683

>  <SCORE.INTRA.SOLV.lig_0>
-90.9627

>  <SCORE.INTRA.VDW>
-0.177507

>  <SCORE.INTRA.VDW.0>
-3.28744

>  <SCORE.INTRA.norm>
-0.0317203

>  <SCORE.RESTR>
0

>  <SCORE.RESTR.CAVITY>
0

>  <SCORE.RESTR.norm>
0

>  <SCORE.SYSTEM>
0

>  <SCORE.SYSTEM.CONST>
0

>  <SCORE.SYSTEM.DIHEDRAL>
0

>  <SCORE.SYSTEM.SOLV>
0

>  <SCORE.SYSTEM.norm>
0

>  <SCORE.heavy>
37

>  <SCORE.norm>
-0.518103

>  <RMSD>
0.706

$$$$
2oe8_lig
 OpenBabel11021811463D
libRbt.so/2013.1/901 2013/11/27
 37 40  0  0  0  0  0  0  0  0999 V2000
   20.2702    1.4918   53.1810 C   0  0  1  0  0  0  0  0  0  0  0  0
   19.1345    1.9325   52.1813 C   0  0  1  0  0  0  0  0  0  0  0  0
   18.6289    0.6977   51.4064 C   0  0  0  0  0  0  0  0  0  0  0  0
   19.8663    0.1283   50.6445 C   0  0  1  0  0  0  0  0  0  0  0  0
   21.0469   -0.3085   51.6550 C   0  0  1  0  0  0  0  0  0  0  0  0
   22.2928   -0.8600   50.9017 C   0  0  1  0  0  0  0  0  0  0  0  0
   21.8107   -2.0926   50.0327 C   0  0  1  0  0  0  0  0  0  0  0  0
   20.6357   -1.6287   49.1031 C   0  0  2  0  0  0  0  0  0  0  0  0
   23.5579   -4.0055   49.6032 C   0  0  0  0  0  0  0  0  0  0  0  0
   17.9964    2.5615   52.9237 N   0  0  0  0  0  0  0  0  0  0  0  0
   22.9601   -2.6765   49.2157 N   0  0  0  0  0  0  0  0  0  0  0  0
   19.7871    0.5541   54.1512 O   0  0  0  0  0  0  0  0  0  0  0  0
   21.4175    0.8600   52.4654 O   0  0  0  0  0  0  0  0  0  0  0  0
   19.4898   -1.0403   49.8572 O   0  0  0  0  0  0  0  0  0  0  0  0
   22.8042    0.2054   50.0991 O   0  0  0  0  0  0  0  0  0  0  0  0
   20.1723   -2.7163   48.3895 O   0  0  0  0  0  0  0  0  0  0  0  0
   19.2565   -2.3604   47.3400 C   0  0  2  0  0  0  0  0  0  0  0  0
   18.0076   -3.2736   47.3849 C   0  0  1  0  0  0  0  0  0  0  0  0
   18.3610   -4.7554   47.0514 C   0  0  2  0  0  0  0  0  0  0  0  0
   19.0111   -4.8240   45.6379 C   0  0  1  0  0  0  0  0  0  0  0  0
   20.3220   -3.9339   45.6898 C   0  0  1  0  0  0  0  0  0  0  0  0
   21.0476   -3.9065   44.3476 C   0  0  0  0  0  0  0  0  0  0  0  0
   19.3497   -6.2399   45.3166 N   0  0  0  0  0  0  0  0  0  0  0  0
   19.9321   -2.5189   46.0260 O   0  0  0  0  0  0  0  0  0  0  0  0
   17.4278   -3.1397   48.6967 O   0  0  0  0  0  0  0  0  0  0  0  0
   17.1685   -5.5117   47.0647 O   0  0  0  0  0  0  0  0  0  0  0  0
   22.3428   -3.3973   44.5270 O   0  0  0  0  0  0  0  0  0  0  0  0
   20.5488    0.5269   55.3407 C   0  0  1  0  0  0  0  0  0  0  0  0
   19.8078    1.3888   56.4129 C   0  0  1  0  0  0  0  0  0  0  0  0
   20.6527    1.3935   57.7202 C   0  0  2  0  0  0  0  0  0  0  0  0
   20.8575   -0.0583   58.2530 C   0  0  1  0  0  0  0  0  0  0  0  0
   21.5948   -0.9387   57.1732 C   0  0  0  0  0  0  0  0  0  0  0  0
   20.7283   -0.9459   55.8460 C   0  0  2  0  0  0  0  0  0  0  0  0
   21.6722   -0.0276   59.4993 N   0  0  0  0  0  0  0  0  0  0  0  0
   21.4255   -1.7775   54.8392 N   0  0  0  0  0  0  0  0  0  0  0  0
   19.6538    2.7426   55.9473 O   0  0  0  0  0  0  0  0  0  0  0  0
   19.9558    2.1751   58.6764 O   0  0  0  0  0  0  0  0  0  0  0  0
  1  2  1  0  0  0  0
  1 12  1  1  0  0  0
  1 13  1  0  0  0  0
  2  3  1  0  0  0  0
  2 10  1  1  0  0  0
  4  3  1  1  0  0  0
  4  5  1  0  0  0  0
  4 14  1  0  0  0  0
  5  6  1  0  0  0  0
  5 13  1  6  0  0  0
  6  7  1  0  0  0  0
  6 15  1  6  0  0  0
  7  8  1  0  0  0  0
  7 11  1  6  0  0  0
  8 14  1  0  0  0  0
  8 16  1  1  0  0  0
  9 11  1  0  0  0  0
 17 16  1  1  0  0  0
 17 18  1  0  0  0  0
 17 24  1  0  0  0  0
 18 19  1  0  0  0  0
 18 25  1  1  0  0  0
 19 20  1  0  0  0  0
 19 26  1  6  0  0  0
 20 21  1  0  0  0  0
 20 23  1  1  0  0  0
 21 22  1  6  0  0  0
 21 24  1  0  0  0  0
 22 27  1  0  0  0  0
 28 12  1  6  0  0  0
 28 29  1  0  0  0  0
 28 33  1  0  0  0  0
 29 30  1  0  0  0  0
 29 36  1  6  0  0  0
 30 31  1  0  0  0  0
 30 37  1  1  0  0  0
 31 32  1  0  0  0  0
 31 34  1  1  0  0  0
 32 33  1  0  0  0  0
 33 35  1  6  0  0  0
M  END
>  <CHROM.1>
-156.37628683,107.56537738,-169.71719454,-132.61463507,-165.49358973,99.16166995
20.29633421,-1.25453280,51.16699990,1.51367699,-0.39190803,1.10407499

>  <Name>
2oe8_lig

>  <RI>
0

>  <Rbt.Current_Directory>
/home/itssahil/PROJECTS/Mol_Feturizer/New_Systems/rnas/2oe8

>  <Rbt.Executable>
rbdock ($Id: //depot/dev/client3/rdock/2013.1/src/exe/rbdock.cxx#4 $)

>  <Rbt.Library>
libRbt.so (2013.1, Build901 2013/11/27)

>  <Rbt.Parameter_File>
/export/apps/rDock/src/rDock_2013.1_src/data/scripts/dock_solv.prm

>  <Rbt.Receptor>
prm/pocket_docking_2.prm

>  <SCORE>
-18.7468

>  <SCORE.INTER>
-17.6781

>  <SCORE.INTER.CONST>
1

>  <SCORE.INTER.POLAR>
-1.79763

>  <SCORE.INTER.ROT>
6

>  <SCORE.INTER.SOLV>
20.8233

>  <SCORE.INTER.VDW>
-20.3344

>  <SCORE.INTER.norm>
-0.477786

>  <SCORE.INTRA>
-1.06964

>  <SCORE.INTRA.DIHEDRAL>
0.0682595

>  <SCORE.INTRA.DIHEDRAL.0>
16.4056

>  <SCORE.INTRA.POLAR>
0

>  <SCORE.INTRA.POLAR.0>
0

>  <SCORE.INTRA.REPUL>
0

>  <SCORE.INTRA.REPUL.0>
0

>  <SCORE.INTRA.SOLV>
-1.18005

>  <SCORE.INTRA.SOLV.lig_0>
-90.9627

>  <SCORE.INTRA.VDW>
-0.513748

>  <SCORE.INTRA.VDW.0>
-3.28744

>  <SCORE.INTRA.norm>
-0.0289093

>  <SCORE.RESTR>
0.000922727

>  <SCORE.RESTR.CAVITY>
0.000922727

>  <SCORE.RESTR.norm>
2.49386e-05

>  <SCORE.SYSTEM>
0

>  <SCORE.SYSTEM.CONST>
0

>  <SCORE.SYSTEM.DIHEDRAL>
0

>  <SCORE.SYSTEM.SOLV>
0

>  <SCORE.SYSTEM.norm>
0

>  <SCORE.heavy>
37

>  <SCORE.norm>
-0.506671

>  <RMSD>
0.708

$$$$
2oe8_lig
 OpenBabel11021811463D
libRbt.so/2013.1/901 2013/11/27
 37 40  0  0  0  0  0  0  0  0999 V2000
   20.2104    1.4460   53.1989 C   0  0  1  0  0  0  0  0  0  0  0  0
   19.0296    1.8456   52.2347 C   0  0  1  0  0  0  0  0  0  0  0  0
   18.5745    0.6023   51.4423 C   0  0  0  0  0  0  0  0  0  0  0  0
   19.8233    0.1191   50.6404 C   0  0  1  0  0  0  0  0  0  0  0  0
   21.0490   -0.2743   51.6145 C   0  0  1  0  0  0  0  0  0  0  0  0
   22.3055   -0.7393   50.8214 C   0  0  1  0  0  0  0  0  0  0  0  0
   21.8715   -1.9770   49.9344 C   0  0  1  0  0  0  0  0  0  0  0  0
   20.6519   -1.5579   49.0418 C   0  0  2  0  0  0  0  0  0  0  0  0
   24.2568   -3.0584   49.7403 C   0  0  0  0  0  0  0  0  0  0  0  0
   17.8762    2.3941   53.0164 N   0  0  0  0  0  0  0  0  0  0  0  0
   23.0320   -2.4782   49.0792 N   0  0  0  0  0  0  0  0  0  0  0  0
   19.8018    0.4618   54.1571 O   0  0  0  0  0  0  0  0  0  0  0  0
   21.3737    0.8946   52.4438 O   0  0  0  0  0  0  0  0  0  0  0  0
   19.4932   -1.0506   49.8343 O   0  0  0  0  0  0  0  0  0  0  0  0
   22.7393    0.3703   50.0332 O   0  0  0  0  0  0  0  0  0  0  0  0
   20.2323   -2.6534   48.3131 O   0  0  0  0  0  0  0  0  0  0  0  0
   19.2730   -2.3255   47.2938 C   0  0  2  0  0  0  0  0  0  0  0  0
   18.0375   -3.2515   47.4017 C   0  0  1  0  0  0  0  0  0  0  0  0
   18.3952   -4.7348   47.0795 C   0  0  2  0  0  0  0  0  0  0  0  0
   18.9917   -4.8203   45.6435 C   0  0  1  0  0  0  0  0  0  0  0  0
   20.2931   -3.9151   45.6303 C   0  0  1  0  0  0  0  0  0  0  0  0
   20.9666   -3.9026   44.2609 C   0  0  0  0  0  0  0  0  0  0  0  0
   19.3343   -6.2376   45.3329 N   0  0  0  0  0  0  0  0  0  0  0  0
   19.8998   -2.4989   45.9576 O   0  0  0  0  0  0  0  0  0  0  0  0
   17.5066   -3.1017   48.7323 O   0  0  0  0  0  0  0  0  0  0  0  0
   17.2130   -5.5039   47.1511 O   0  0  0  0  0  0  0  0  0  0  0  0
   20.0660   -3.4146   43.3018 O   0  0  0  0  0  0  0  0  0  0  0  0
   20.5717    0.4707   55.3416 C   0  0  1  0  0  0  0  0  0  0  0  0
   19.8248    1.3435   56.4008 C   0  0  1  0  0  0  0  0  0  0  0  0
   20.6783    1.3880   57.7019 C   0  0  2  0  0  0  0  0  0  0  0  0
   20.9084   -0.0492   58.2632 C   0  0  1  0  0  0  0  0  0  0  0  0
   21.6517   -0.9408   57.1966 C   0  0  0  0  0  0  0  0  0  0  0  0
   20.7766   -0.9885   55.8760 C   0  0  2  0  0  0  0  0  0  0  0  0
   21.7308    0.0195   59.5028 N   0  0  0  0  0  0  0  0  0  0  0  0
   21.4796   -1.8303   54.8817 N   0  0  0  0  0  0  0  0  0  0  0  0
   19.6474    2.6849   55.9085 O   0  0  0  0  0  0  0  0  0  0  0  0
   19.9760    2.1788   58.6465 O   0  0  0  0  0  0  0  0  0  0  0  0
  1  2  1  0  0  0  0
  1 12  1  1  0  0  0
  1 13  1  0  0  0  0
  2  3  1  0  0  0  0
  2 10  1  1  0  0  0
  4  3  1  1  0  0  0
  4  5  1  0  0  0  0
  4 14  1  0  0  0  0
  5  6  1  0  0  0  0
  5 13  1  6  0  0  0
  6  7  1  0  0  0  0
  6 15  1  6  0  0  0
  7  8  1  0  0  0  0
  7 11  1  6  0  0  0
  8 14  1  0  0  0  0
  8 16  1  1  0  0  0
  9 11  1  0  0  0  0
 17 16  1  1  0  0  0
 17 18  1  0  0  0  0
 17 24  1  0  0  0  0
 18 19  1  0  0  0  0
 18 25  1  1  0  0  0
 19 20  1  0  0  0  0
 19 26  1  6  0  0  0
 20 21  1  0  0  0  0
 20 23  1  1  0  0  0
 21 22  1  6  0  0  0
 21 24  1  0  0  0  0
 22 27  1  0  0  0  0
 28 12  1  6  0  0  0
 28 29  1  0  0  0  0
 28 33  1  0  0  0  0
 29 30  1  0  0  0  0
 29 36  1  6  0  0  0
 30 31  1  0  0  0  0
 30 37  1  1  0  0  0
 31 32  1  0  0  0  0
 31 34  1  1  0  0  0
 32 33  1  0  0  0  0
 33 35  1  6  0  0  0
M  END
>  <CHROM.1>
-155.00494869,64.49629151,-169.80265838,-129.08284199,59.23495183,95.33956590
20.25038866,-1.22048609,51.12093772,1.48980477,-0.33807002,1.11647412

>  <Name>
2oe8_lig

>  <RI>
0

>  <Rbt.Current_Directory>
/home/itssahil/PROJECTS/Mol_Feturizer/New_Systems/rnas/2oe8

>  <Rbt.Executable>
rbdock ($Id: //depot/dev/client3/rdock/2013.1/src/exe/rbdock.cxx#4 $)

>  <Rbt.Library>
libRbt.so (2013.1, Build901 2013/11/27)

>  <Rbt.Parameter_File>
/export/apps/rDock/src/rDock_2013.1_src/data/scripts/dock_solv.prm

>  <Rbt.Receptor>
prm/pocket_docking_2.prm

>  <SCORE>
-18.6149

>  <SCORE.INTER>
-17.4326

>  <SCORE.INTER.CONST>
1

>  <SCORE.INTER.POLAR>
-1.74481

>  <SCORE.INTER.ROT>
6

>  <SCORE.INTER.SOLV>
20.7579

>  <SCORE.INTER.VDW>
-20.325

>  <SCORE.INTER.norm>
-0.471152

>  <SCORE.INTRA>
-1.18225

>  <SCORE.INTRA.DIHEDRAL>
-1.78371

>  <SCORE.INTRA.DIHEDRAL.0>
16.4056

>  <SCORE.INTRA.POLAR>
0

>  <SCORE.INTRA.POLAR.0>
0

>  <SCORE.INTRA.REPUL>
0

>  <SCORE.INTRA.REPUL.0>
0

>  <SCORE.INTRA.SOLV>
-0.580793

>  <SCORE.INTRA.SOLV.lig_0>
-90.9627

>  <SCORE.INTRA.VDW>
-5.17115e-07

>  <SCORE.INTRA.VDW.0>
-3.28744

>  <SCORE.INTRA.norm>
-0.0319527

>  <SCORE.RESTR>
0

>  <SCORE.RESTR.CAVITY>
0

>  <SCORE.RESTR.norm>
0

>  <SCORE.SYSTEM>
0

>  <SCORE.SYSTEM.CONST>
0

>  <SCORE.SYSTEM.DIHEDRAL>
0

>  <SCORE.SYSTEM.SOLV>
0

>  <SCORE.SYSTEM.norm>
0

>  <SCORE.heavy>
37

>  <SCORE.norm>
-0.503105

>  <RMSD>
0.712

$$$$
2oe8_lig
 OpenBabel11021811463D
libRbt.so/2013.1/901 2013/11/27
 37 40  0  0  0  0  0  0  0  0999 V2000
   20.2645    1.5419   53.2715 C   0  0  1  0  0  0  0  0  0  0  0  0
   19.3445    2.1165   52.1283 C   0  0  1  0  0  0  0  0  0  0  0  0
   18.6821    0.9474   51.3699 C   0  0  0  0  0  0  0  0  0  0  0  0
   19.8502    0.0945   50.7836 C   0  0  1  0  0  0  0  0  0  0  0  0
   20.8138   -0.4841   51.9424 C   0  0  1  0  0  0  0  0  0  0  0  0
   21.9930   -1.3205   51.3646 C   0  0  1  0  0  0  0  0  0  0  0  0
   21.3632   -2.4990   50.5153 C   0  0  1  0  0  0  0  0  0  0  0  0
   20.4026   -1.8888   49.4360 C   0  0  2  0  0  0  0  0  0  0  0  0
   22.1724   -4.8001   49.5423 C   0  0  0  0  0  0  0  0  0  0  0  0
   18.2869    3.0071   52.7032 N   0  0  0  0  0  0  0  0  0  0  0  0
   22.4482   -3.3533   49.8653 N   0  0  0  0  0  0  0  0  0  0  0  0
   19.5102    0.7907   54.2310 O   0  0  0  0  0  0  0  0  0  0  0  0
   21.3279    0.6489   52.7244 O   0  0  0  0  0  0  0  0  0  0  0  0
   19.3281   -1.0357   50.0238 O   0  0  0  0  0  0  0  0  0  0  0  0
   22.7838   -0.4371   50.5676 O   0  0  0  0  0  0  0  0  0  0  0  0
   19.8046   -2.9175   48.7352 O   0  0  0  0  0  0  0  0  0  0  0  0
   19.1327   -2.4785   47.5424 C   0  0  2  0  0  0  0  0  0  0  0  0
   17.9007   -3.3720   47.2605 C   0  0  1  0  0  0  0  0  0  0  0  0
   18.3136   -4.8344   46.9098 C   0  0  2  0  0  0  0  0  0  0  0  0
   19.2484   -4.8208   45.6643 C   0  0  1  0  0  0  0  0  0  0  0  0
   20.5204   -3.9577   46.0521 C   0  0  1  0  0  0  0  0  0  0  0  0
   21.5140   -3.8542   44.8985 C   0  0  0  0  0  0  0  0  0  0  0  0
   19.6444   -6.2179   45.3268 N   0  0  0  0  0  0  0  0  0  0  0  0
   20.0712   -2.5615   46.3931 O   0  0  0  0  0  0  0  0  0  0  0  0
   17.0564   -3.3150   48.4262 O   0  0  0  0  0  0  0  0  0  0  0  0
   17.1437   -5.5703   46.6197 O   0  0  0  0  0  0  0  0  0  0  0  0
   20.8444   -3.4260   43.7420 O   0  0  0  0  0  0  0  0  0  0  0  0
   20.0903    0.7728   55.5190 C   0  0  1  0  0  0  0  0  0  0  0  0
   19.0217    1.2778   56.5411 C   0  0  1  0  0  0  0  0  0  0  0  0
   19.6581    1.2932   57.9616 C   0  0  2  0  0  0  0  0  0  0  0  0
   20.1487   -0.1317   58.3647 C   0  0  1  0  0  0  0  0  0  0  0  0
   21.2193   -0.6543   57.3324 C   0  0  0  0  0  0  0  0  0  0  0  0
   20.5655   -0.6743   55.8887 C   0  0  2  0  0  0  0  0  0  0  0  0
   20.7576   -0.0897   59.7230 N   0  0  0  0  0  0  0  0  0  0  0  0
   21.5758   -1.1696   54.9268 N   0  0  0  0  0  0  0  0  0  0  0  0
   18.5956    2.6107   56.2019 O   0  0  0  0  0  0  0  0  0  0  0  0
   18.6673    1.7476   58.8686 O   0  0  0  0  0  0  0  0  0  0  0  0
  1  2  1  0  0  0  0
  1 12  1  1  0  0  0
  1 13  1  0  0  0  0
  2  3  1  0  0  0  0
  2 10  1  1  0  0  0
  4  3  1  1  0  0  0
  4  5  1  0  0  0  0
  4 14  1  0  0  0  0
  5  6  1  0  0  0  0
  5 13  1  6  0  0  0
  6  7  1  0  0  0  0
  6 15  1  6  0  0  0
  7  8  1  0  0  0  0
  7 11  1  6  0  0  0
  8 14  1  0  0  0  0
  8 16  1  1  0  0  0
  9 11  1  0  0  0  0
 17 16  1  1  0  0  0
 17 18  1  0  0  0  0
 17 24  1  0  0  0  0
 18 19  1  0  0  0  0
 18 25  1  1  0  0  0
 19 20  1  0  0  0  0
 19 26  1  6  0  0  0
 20 21  1  0  0  0  0
 20 23  1  1  0  0  0
 21 22  1  6  0  0  0
 21 24  1  0  0  0  0
 22 27  1  0  0  0  0
 28 12  1  6  0  0  0
 28 29  1  0  0  0  0
 28 33  1  0  0  0  0
 29 30  1  0  0  0  0
 29 36  1  6  0  0  0
 30 31  1  0  0  0  0
 30 37  1  1  0  0  0
 31 32  1  0  0  0  0
 31 34  1  1  0  0  0
 32 33  1  0  0  0  0
 33 35  1  6  0  0  0
M  END
>  <CHROM.1>
-152.86643459,153.20831806,-167.33685724,-147.92650097,51.60723330,125.34389128
19.99014206,-1.33326142,51.29137930,1.55182922,-0.75557792,1.10574753

>  <Name>
2oe8_lig

>  <RI>
0

>  <Rbt.Current_Directory>
/home/itssahil/PROJECTS/Mol_Feturizer/New_Systems/rnas/2oe8

>  <Rbt.Executable>
rbdock ($Id: //depot/dev/client3/rdock/2013.1/src/exe/rbdock.cxx#4 $)

>  <Rbt.Library>
libRbt.so (2013.1, Build901 2013/11/27)

>  <Rbt.Parameter_File>
/export/apps/rDock/src/rDock_2013.1_src/data/scripts/dock_solv.prm

>  <Rbt.Receptor>
prm/pocket_docking_2.prm

>  <SCORE>
-18.5167

>  <SCORE.INTER>
-17.7948

>  <SCORE.INTER.CONST>
1

>  <SCORE.INTER.POLAR>
-1.68827

>  <SCORE.INTER.ROT>
6

>  <SCORE.INTER.SOLV>
16.7068

>  <SCORE.INTER.VDW>
-19.4045

>  <SCORE.INTER.norm>
-0.48094

>  <SCORE.INTRA>
-0.721881

>  <SCORE.INTRA.DIHEDRAL>
-0.748411

>  <SCORE.INTRA.DIHEDRAL.0>
16.4056

>  <SCORE.INTRA.POLAR>
0

>  <SCORE.INTRA.POLAR.0>
0

>  <SCORE.INTRA.REPUL>
0

>  <SCORE.INTRA.REPUL.0>
0

>  <SCORE.INTRA.SOLV>
0.641601

>  <SCORE.INTRA.SOLV.lig_0>
-90.9627

>  <SCORE.INTRA.VDW>
-0.668476

>  <SCORE.INTRA.VDW.0>
-3.28744

>  <SCORE.INTRA.norm>
-0.0195103

>  <SCORE.RESTR>
0

>  <SCORE.RESTR.CAVITY>
0

>  <SCORE.RESTR.norm>
0

>  <SCORE.SYSTEM>
0

>  <SCORE.SYSTEM.CONST>
0

>  <SCORE.SYSTEM.DIHEDRAL>
0

>  <SCORE.SYSTEM.SOLV>
0

>  <SCORE.SYSTEM.norm>
0

>  <SCORE.heavy>
37

>  <SCORE.norm>
-0.500451

>  <RMSD>
0.713

$$$$
2oe8_lig
 OpenBabel11021811463D
libRbt.so/2013.1/901 2013/11/27
 37 40  0  0  0  0  0  0  0  0999 V2000
   20.2467    1.3749   53.1655 C   0  0  1  0  0  0  0  0  0  0  0  0
   19.1955    1.8942   52.1125 C   0  0  1  0  0  0  0  0  0  0  0  0
   18.6253    0.6954   51.3263 C   0  0  0  0  0  0  0  0  0  0  0  0
   19.8442    0.0184   50.6250 C   0  0  1  0  0  0  0  0  0  0  0  0
   20.9400   -0.5006   51.6908 C   0  0  1  0  0  0  0  0  0  0  0  0
   22.1685   -1.1603   50.9983 C   0  0  1  0  0  0  0  0  0  0  0  0
   21.6259   -2.3600   50.1191 C   0  0  1  0  0  0  0  0  0  0  0  0
   20.5345   -1.8134   49.1342 C   0  0  2  0  0  0  0  0  0  0  0  0
   22.7131   -4.5337   49.1243 C   0  0  0  0  0  0  0  0  0  0  0  0
   18.0811    2.6223   52.7983 N   0  0  0  0  0  0  0  0  0  0  0  0
   22.7585   -3.0449   49.3590 N   0  0  0  0  0  0  0  0  0  0  0  0
   19.6468    0.4911   54.1211 O   0  0  0  0  0  0  0  0  0  0  0  0
   21.3689    0.6437   52.5070 O   0  0  0  0  0  0  0  0  0  0  0  0
   19.4085   -1.1252   49.8315 O   0  0  0  0  0  0  0  0  0  0  0  0
   22.7997   -0.1495   50.2104 O   0  0  0  0  0  0  0  0  0  0  0  0
   20.0156   -2.8684   48.4098 O   0  0  0  0  0  0  0  0  0  0  0  0
   19.1312   -2.4541   47.3548 C   0  0  2  0  0  0  0  0  0  0  0  0
   17.8760   -3.3591   47.3204 C   0  0  1  0  0  0  0  0  0  0  0  0
   18.2294   -4.8252   46.9233 C   0  0  2  0  0  0  0  0  0  0  0  0
   18.9177   -4.8286   45.5264 C   0  0  1  0  0  0  0  0  0  0  0  0
   20.2320   -3.9520   45.6580 C   0  0  1  0  0  0  0  0  0  0  0  0
   20.9944   -3.8637   44.3390 C   0  0  0  0  0  0  0  0  0  0  0  0
   19.2563   -6.2293   45.1444 N   0  0  0  0  0  0  0  0  0  0  0  0
   19.8417   -2.5525   46.0533 O   0  0  0  0  0  0  0  0  0  0  0  0
   17.2611   -3.2860   48.6210 O   0  0  0  0  0  0  0  0  0  0  0  0
   17.0323   -5.5724   46.8667 O   0  0  0  0  0  0  0  0  0  0  0  0
   22.2959   -3.3986   44.5819 O   0  0  0  0  0  0  0  0  0  0  0  0
   20.2638    0.5275   55.3914 C   0  0  1  0  0  0  0  0  0  0  0  0
   19.2487    1.1419   56.4081 C   0  0  1  0  0  0  0  0  0  0  0  0
   19.9272    1.2172   57.8070 C   0  0  2  0  0  0  0  0  0  0  0  0
   20.3684   -0.2004   58.2860 C   0  0  1  0  0  0  0  0  0  0  0  0
   21.3846   -0.8330   57.2603 C   0  0  0  0  0  0  0  0  0  0  0  0
   20.6877   -0.9136   55.8390 C   0  0  2  0  0  0  0  0  0  0  0  0
   21.0188   -0.1012   59.6220 N   0  0  0  0  0  0  0  0  0  0  0  0
   21.6469   -1.5119   54.8834 N   0  0  0  0  0  0  0  0  0  0  0  0
   18.8698    2.4688   55.9969 O   0  0  0  0  0  0  0  0  0  0  0  0
   18.9842    1.7706   58.7099 O   0  0  0  0  0  0  0  0  0  0  0  0
  1  2  1  0  0  0  0
  1 12  1  1  0  0  0
  1 13  1  0  0  0  0
  2  3  1  0  0  0  0
  2 10  1  1  0  0  0
  4  3  1  1  0  0  0
  4  5  1  0  0  0  0
  4 14  1  0  0  0  0
  5  6  1  0  0  0  0
  5 13  1  6  0  0  0
  6  7  1  0  0  0  0
  6 15  1  6  0  0  0
  7  8  1  0  0  0  0
  7 11  1  6  0  0  0
  8 14  1  0  0  0  0
  8 16  1  1  0  0  0
  9 11  1  0  0  0  0
 17 16  1  1  0  0  0
 17 18  1  0  0  0  0
 17 24  1  0  0  0  0
 18 19  1  0  0  0  0
 18 25  1  1  0  0  0
 19 20  1  0  0  0  0
 19 26  1  6  0  0  0
 20 21  1  0  0  0  0
 20 23  1  1  0  0  0
 21 22  1  6  0  0  0
 21 24  1  0  0  0  0
 22 27  1  0  0  0  0
 28 12  1  6  0  0  0
 28 29  1  0  0  0  0
 28 33  1  0  0  0  0
 29 30  1  0  0  0  0
 29 36  1  6  0  0  0
 30 31  1  0  0  0  0
 30 37  1  1  0  0  0
 31 32  1  0  0  0  0
 31 34  1  1  0  0  0
 32 33  1  0  0  0  0
 33 35  1  6  0  0  0
M  END
>  <CHROM.1>
-149.77350445,145.30039823,-172.33523505,-136.59444808,-164.34052504,112.87478035
20.08890410,-1.37320470,51.15344283,1.54662630,-0.33932669,1.12476235

>  <Name>
2oe8_lig

>  <RI>
0

>  <Rbt.Current_Directory>
/home/itssahil/PROJECTS/Mol_Feturizer/New_Systems/rnas/2oe8

>  <Rbt.Executable>
rbdock ($Id: //depot/dev/client3/rdock/2013.1/src/exe/rbdock.cxx#4 $)

>  <Rbt.Library>
libRbt.so (2013.1, Build901 2013/11/27)

>  <Rbt.Parameter_File>
/export/apps/rDock/src/rDock_2013.1_src/data/scripts/dock_solv.prm

>  <Rbt.Receptor>
prm/pocket_docking_2.prm

>  <SCORE>
-18.5708

>  <SCORE.INTER>
-18.5438

>  <SCORE.INTER.CONST>
1

>  <SCORE.INTER.POLAR>
-1.88416

>  <SCORE.INTER.ROT>
6

>  <SCORE.INTER.SOLV>
18.6556

>  <SCORE.INTER.VDW>
-19.9006

>  <SCORE.INTER.norm>
-0.501185

>  <SCORE.INTRA>
-0.0269274

>  <SCORE.INTRA.DIHEDRAL>
2.01258

>  <SCORE.INTRA.DIHEDRAL.0>
16.4056

>  <SCORE.INTRA.POLAR>
0

>  <SCORE.INTRA.POLAR.0>
0

>  <SCORE.INTRA.REPUL>
0

>  <SCORE.INTRA.REPUL.0>
0

>  <SCORE.INTRA.SOLV>
-0.53286

>  <SCORE.INTRA.SOLV.lig_0>
-90.9627

>  <SCORE.INTRA.VDW>
-0.766785

>  <SCORE.INTRA.VDW.0>
-3.28744

>  <SCORE.INTRA.norm>
-0.000727768

>  <SCORE.RESTR>
0

>  <SCORE.RESTR.CAVITY>
0

>  <SCORE.RESTR.norm>
0

>  <SCORE.SYSTEM>
0

>  <SCORE.SYSTEM.CONST>
0

>  <SCORE.SYSTEM.DIHEDRAL>
0

>  <SCORE.SYSTEM.SOLV>
0

>  <SCORE.SYSTEM.norm>
0

>  <SCORE.heavy>
37

>  <SCORE.norm>
-0.501913

>  <RMSD>
0.726

$$$$
2oe8_lig
 OpenBabel11021811463D
libRbt.so/2013.1/901 2013/11/27
 37 40  0  0  0  0  0  0  0  0999 V2000
   20.2996    1.4333   53.1195 C   0  0  1  0  0  0  0  0  0  0  0  0
   19.1435    1.8735   52.1433 C   0  0  1  0  0  0  0  0  0  0  0  0
   18.6390    0.6427   51.3614 C   0  0  0  0  0  0  0  0  0  0  0  0
   19.8702    0.0962   50.5731 C   0  0  1  0  0  0  0  0  0  0  0  0
   21.0714   -0.3398   51.5594 C   0  0  1  0  0  0  0  0  0  0  0  0
   22.3111   -0.8684   50.7798 C   0  0  1  0  0  0  0  0  0  0  0  0
   21.8285   -2.0956   49.9034 C   0  0  1  0  0  0  0  0  0  0  0  0
   20.6339   -1.6333   48.9983 C   0  0  2  0  0  0  0  0  0  0  0  0
   24.0599   -3.4677   49.7175 C   0  0  0  0  0  0  0  0  0  0  0  0
   18.0106    2.4809   52.9113 N   0  0  0  0  0  0  0  0  0  0  0  0
   22.9710   -2.6568   49.0613 N   0  0  0  0  0  0  0  0  0  0  0  0
   19.8422    0.4786   54.0856 O   0  0  0  0  0  0  0  0  0  0  0  0
   21.4422    0.8229   52.3781 O   0  0  0  0  0  0  0  0  0  0  0  0
   19.4939   -1.0668   49.7775 O   0  0  0  0  0  0  0  0  0  0  0  0
   22.7981    0.2123   49.9824 O   0  0  0  0  0  0  0  0  0  0  0  0
   20.1711   -2.7173   48.2788 O   0  0  0  0  0  0  0  0  0  0  0  0
   19.2033   -2.3637   47.2761 C   0  0  2  0  0  0  0  0  0  0  0  0
   17.9542   -3.2704   47.3925 C   0  0  1  0  0  0  0  0  0  0  0  0
   18.2829   -4.7561   47.0510 C   0  0  2  0  0  0  0  0  0  0  0  0
   18.8580   -4.8372   45.6060 C   0  0  1  0  0  0  0  0  0  0  0  0
   20.1738   -3.9533   45.5833 C   0  0  1  0  0  0  0  0  0  0  0  0
   20.8284   -3.9384   44.2048 C   0  0  0  0  0  0  0  0  0  0  0  0
   19.1728   -6.2568   45.2771 N   0  0  0  0  0  0  0  0  0  0  0  0
   19.8086   -2.5342   45.9297 O   0  0  0  0  0  0  0  0  0  0  0  0
   17.4444   -3.1250   48.7318 O   0  0  0  0  0  0  0  0  0  0  0  0
   17.0892   -5.5064   47.1318 O   0  0  0  0  0  0  0  0  0  0  0  0
   22.1309   -3.4274   44.3117 O   0  0  0  0  0  0  0  0  0  0  0  0
   20.5945    0.4781   55.2814 C   0  0  1  0  0  0  0  0  0  0  0  0
   19.8235    1.3284   56.3417 C   0  0  1  0  0  0  0  0  0  0  0  0
   20.6572    1.3626   57.6558 C   0  0  2  0  0  0  0  0  0  0  0  0
   20.8935   -0.0801   58.2000 C   0  0  1  0  0  0  0  0  0  0  0  0
   21.6613   -0.9490   57.1321 C   0  0  0  0  0  0  0  0  0  0  0  0
   20.8062   -0.9864   55.7981 C   0  0  2  0  0  0  0  0  0  0  0  0
   21.6968   -0.0211   59.4526 N   0  0  0  0  0  0  0  0  0  0  0  0
   21.5322   -1.8070   54.8026 N   0  0  0  0  0  0  0  0  0  0  0  0
   19.6398    2.6748   55.8658 O   0  0  0  0  0  0  0  0  0  0  0  0
   19.9332    2.1329   58.6010 O   0  0  0  0  0  0  0  0  0  0  0  0
  1  2  1  0  0  0  0
  1 12  1  1  0  0  0
  1 13  1  0  0  0  0
  2  3  1  0  0  0  0
  2 10  1  1  0  0  0
  4  3  1  1  0  0  0
  4  5  1  0  0  0  0
  4 14  1  0  0  0  0
  5  6  1  0  0  0  0
  5 13  1  6  0  0  0
  6  7  1  0  0  0  0
  6 15  1  6  0  0  0
  7  8  1  0  0  0  0
  7 11  1  6  0  0  0
  8 14  1  0  0  0  0
  8 16  1  1  0  0  0
  9 11  1  0  0  0  0
 17 16  1  1  0  0  0
 17 18  1  0  0  0  0
 17 24  1  0  0  0  0
 18 19  1  0  0  0  0
 18 25  1  1  0  0  0
 19 20  1  0  0  0  0
 19 26  1  6  0  0  0
 20 21  1  0  0  0  0
 20 23  1  1  0  0  0
 21 22  1  6  0  0  0
 21 24  1  0  0  0  0
 22 27  1  0  0  0  0
 28 12  1  6  0  0  0
 28 29  1  0  0  0  0
 28 33  1  0  0  0  0
 29 30  1  0  0  0  0
 29 36  1  6  0  0  0
 30 31  1  0  0  0  0
 30 37  1  1  0  0  0
 31 32  1  0  0  0  0
 31 34  1  1  0  0  0
 32 33  1  0  0  0  0
 33 35  1  6  0  0  0
M  END
>  <CHROM.1>
-154.27960395,73.86434005,-171.55699407,-130.01942889,-165.82143931,98.42949710
20.29034256,-1.26333666,51.10357422,1.50401594,-0.24413707,1.11677213

>  <Name>
2oe8_lig

>  <RI>
0

>  <Rbt.Current_Directory>
/home/itssahil/PROJECTS/Mol_Feturizer/New_Systems/rnas/2oe8

>  <Rbt.Executable>
rbdock ($Id: //depot/dev/client3/rdock/2013.1/src/exe/rbdock.cxx#4 $)

>  <Rbt.Library>
libRbt.so (2013.1, Build901 2013/11/27)

>  <Rbt.Parameter_File>
/export/apps/rDock/src/rDock_2013.1_src/data/scripts/dock_solv.prm

>  <Rbt.Receptor>
prm/pocket_docking_2.prm

>  <SCORE>
-19.2798

>  <SCORE.INTER>
-18.2158

>  <SCORE.INTER.CONST>
1

>  <SCORE.INTER.POLAR>
-1.85034

>  <SCORE.INTER.ROT>
6

>  <SCORE.INTER.SOLV>
20.6847

>  <SCORE.INTER.VDW>
-20.4709

>  <SCORE.INTER.norm>
-0.492318

>  <SCORE.INTRA>
-1.064

>  <SCORE.INTRA.DIHEDRAL>
-0.522169

>  <SCORE.INTRA.DIHEDRAL.0>
16.4056

>  <SCORE.INTRA.POLAR>
0

>  <SCORE.INTRA.POLAR.0>
0

>  <SCORE.INTRA.REPUL>
0

>  <SCORE.INTRA.REPUL.0>
0

>  <SCORE.INTRA.SOLV>
-1.12804

>  <SCORE.INTRA.SOLV.lig_0>
-90.9627

>  <SCORE.INTRA.VDW>
-0.238898

>  <SCORE.INTRA.VDW.0>
-3.28744

>  <SCORE.INTRA.norm>
-0.0287569

>  <SCORE.RESTR>
0

>  <SCORE.RESTR.CAVITY>
0

>  <SCORE.RESTR.norm>
0

>  <SCORE.SYSTEM>
0

>  <SCORE.SYSTEM.CONST>
0

>  <SCORE.SYSTEM.DIHEDRAL>
0

>  <SCORE.SYSTEM.SOLV>
0

>  <SCORE.SYSTEM.norm>
0

>  <SCORE.heavy>
37

>  <SCORE.norm>
-0.521075

>  <RMSD>
0.732

$$$$
2oe8_lig
 OpenBabel11021811463D
libRbt.so/2013.1/901 2013/11/27
 37 40  0  0  0  0  0  0  0  0999 V2000
   20.2687    1.4678   53.1746 C   0  0  1  0  0  0  0  0  0  0  0  0
   19.2182    1.9763   52.1157 C   0  0  1  0  0  0  0  0  0  0  0  0
   18.6470    0.7693   51.3428 C   0  0  0  0  0  0  0  0  0  0  0  0
   19.8654    0.0834   50.6493 C   0  0  1  0  0  0  0  0  0  0  0  0
   20.9605   -0.4247   51.7210 C   0  0  1  0  0  0  0  0  0  0  0  0
   22.1886   -1.0932   51.0362 C   0  0  1  0  0  0  0  0  0  0  0  0
   21.6450   -2.3022   50.1703 C   0  0  1  0  0  0  0  0  0  0  0  0
   20.5542   -1.7656   49.1792 C   0  0  2  0  0  0  0  0  0  0  0  0
   22.6592   -4.4579   49.0653 C   0  0  0  0  0  0  0  0  0  0  0  0
   18.1044    2.7130   52.7931 N   0  0  0  0  0  0  0  0  0  0  0  0
   22.7770   -2.9966   49.4181 N   0  0  0  0  0  0  0  0  0  0  0  0
   19.6679    0.5953   54.1399 O   0  0  0  0  0  0  0  0  0  0  0  0
   21.3903    0.7282   52.5245 O   0  0  0  0  0  0  0  0  0  0  0  0
   19.4288   -1.0685   49.8686 O   0  0  0  0  0  0  0  0  0  0  0  0
   22.8208   -0.0919   50.2372 O   0  0  0  0  0  0  0  0  0  0  0  0
   20.0344   -2.8281   48.4665 O   0  0  0  0  0  0  0  0  0  0  0  0
   19.1683   -2.4240   47.3926 C   0  0  2  0  0  0  0  0  0  0  0  0
   17.9293   -3.3492   47.3252 C   0  0  1  0  0  0  0  0  0  0  0  0
   18.3160   -4.8077   46.9310 C   0  0  2  0  0  0  0  0  0  0  0  0
   19.0368   -4.7939   45.5507 C   0  0  1  0  0  0  0  0  0  0  0  0
   20.3331   -3.8965   45.7165 C   0  0  1  0  0  0  0  0  0  0  0  0
   21.1246   -3.7902   44.4161 C   0  0  0  0  0  0  0  0  0  0  0  0
   19.4073   -6.1873   45.1714 N   0  0  0  0  0  0  0  0  0  0  0  0
   19.9106   -2.5052   46.1078 O   0  0  0  0  0  0  0  0  0  0  0  0
   17.2830   -3.2916   48.6113 O   0  0  0  0  0  0  0  0  0  0  0  0
   17.1330   -5.5740   46.8435 O   0  0  0  0  0  0  0  0  0  0  0  0
   22.3814   -3.2241   44.6791 O   0  0  0  0  0  0  0  0  0  0  0  0
   20.3322    0.5869   55.3867 C   0  0  1  0  0  0  0  0  0  0  0  0
   19.4022    1.2733   56.4382 C   0  0  1  0  0  0  0  0  0  0  0  0
   20.1353    1.2993   57.8110 C   0  0  2  0  0  0  0  0  0  0  0  0
   20.4901   -0.1464   58.2775 C   0  0  1  0  0  0  0  0  0  0  0  0
   21.4194   -0.8510   57.2170 C   0  0  0  0  0  0  0  0  0  0  0  0
   20.6668   -0.8810   55.8224 C   0  0  2  0  0  0  0  0  0  0  0  0
   21.1946   -0.0945   59.5885 N   0  0  0  0  0  0  0  0  0  0  0  0
   21.5443   -1.5473   54.8339 N   0  0  0  0  0  0  0  0  0  0  0  0
   19.1055    2.6241   56.0375 O   0  0  0  0  0  0  0  0  0  0  0  0
   19.2686    1.9196   58.7464 O   0  0  0  0  0  0  0  0  0  0  0  0
  1  2  1  0  0  0  0
  1 12  1  1  0  0  0
  1 13  1  0  0  0  0
  2  3  1  0  0  0  0
  2 10  1  1  0  0  0
  4  3  1  1  0  0  0
  4  5  1  0  0  0  0
  4 14  1  0  0  0  0
  5  6  1  0  0  0  0
  5 13  1  6  0  0  0
  6  7  1  0  0  0  0
  6 15  1  6  0  0  0
  7  8  1  0  0  0  0
  7 11  1  6  0  0  0
  8 14  1  0  0  0  0
  8 16  1  1  0  0  0
  9 11  1  0  0  0  0
 17 16  1  1  0  0  0
 17 18  1  0  0  0  0
 17 24  1  0  0  0  0
 18 19  1  0  0  0  0
 18 25  1  1  0  0  0
 19 20  1  0  0  0  0
 19 26  1  6  0  0  0
 20 21  1  0  0  0  0
 20 23  1  1  0  0  0
 21 22  1  6  0  0  0
 21 24  1  0  0  0  0
 22 27  1  0  0  0  0
 28 12  1  6  0  0  0
 28 29  1  0  0  0  0
 28 33  1  0  0  0  0
 29 30  1  0  0  0  0
 29 36  1  6  0  0  0
 30 31  1  0  0  0  0
 30 37  1  1  0  0  0
 31 32  1  0  0  0  0
 31 34  1  1  0  0  0
 32 33  1  0  0  0  0
 33 35  1  6  0  0  0
M  END
>  <CHROM.1>
-153.25631431,152.10951402,-171.34959168,-138.63028251,-168.12456712,110.89315254
20.15354742,-1.31247526,51.17218280,1.54060800,-0.42746618,1.11508416

>  <Name>
2oe8_lig

>  <RI>
0

>  <Rbt.Current_Directory>
/home/itssahil/PROJECTS/Mol_Feturizer/New_Systems/rnas/2oe8

>  <Rbt.Executable>
rbdock ($Id: //depot/dev/client3/rdock/2013.1/src/exe/rbdock.cxx#4 $)

>  <Rbt.Library>
libRbt.so (2013.1, Build901 2013/11/27)

>  <Rbt.Parameter_File>
/export/apps/rDock/src/rDock_2013.1_src/data/scripts/dock_solv.prm

>  <Rbt.Receptor>
prm/pocket_docking_4.prm

>  <SCORE>
-18.7897

>  <SCORE.INTER>
-17.9534

>  <SCORE.INTER.CONST>
1

>  <SCORE.INTER.POLAR>
-1.89257

>  <SCORE.INTER.ROT>
6

>  <SCORE.INTER.SOLV>
18.8604

>  <SCORE.INTER.VDW>
-19.5472

>  <SCORE.INTER.norm>
-0.485227

>  <SCORE.INTRA>
-0.836248

>  <SCORE.INTRA.DIHEDRAL>
0.425202

>  <SCORE.INTRA.DIHEDRAL.0>
16.4056

>  <SCORE.INTRA.POLAR>
0

>  <SCORE.INTRA.POLAR.0>
0

>  <SCORE.INTRA.REPUL>
0

>  <SCORE.INTRA.REPUL.0>
0

>  <SCORE.INTRA.SOLV>
-0.588786

>  <SCORE.INTRA.SOLV.lig_0>
-90.9627

>  <SCORE.INTRA.VDW>
-0.754456

>  <SCORE.INTRA.VDW.0>
-3.28744

>  <SCORE.INTRA.norm>
-0.0226013

>  <SCORE.RESTR>
0

>  <SCORE.RESTR.CAVITY>
0

>  <SCORE.RESTR.norm>
0

>  <SCORE.SYSTEM>
0

>  <SCORE.SYSTEM.CONST>
0

>  <SCORE.SYSTEM.DIHEDRAL>
0

>  <SCORE.SYSTEM.SOLV>
0

>  <SCORE.SYSTEM.norm>
0

>  <SCORE.heavy>
37

>  <SCORE.norm>
-0.507828

>  <RMSD>
0.732

$$$$
2oe8_lig
 OpenBabel11021811463D
libRbt.so/2013.1/901 2013/11/27
 37 40  0  0  0  0  0  0  0  0999 V2000
   20.1882    1.4539   53.3188 C   0  0  1  0  0  0  0  0  0  0  0  0
   19.2577    2.0373   52.1887 C   0  0  1  0  0  0  0  0  0  0  0  0
   18.6382    0.8742   51.3862 C   0  0  0  0  0  0  0  0  0  0  0  0
   19.8370    0.0794   50.7803 C   0  0  1  0  0  0  0  0  0  0  0  0
   20.8110   -0.5072   51.9263 C   0  0  1  0  0  0  0  0  0  0  0  0
   22.0202   -1.2854   51.3295 C   0  0  1  0  0  0  0  0  0  0  0  0
   21.4342   -2.4539   50.4362 C   0  0  1  0  0  0  0  0  0  0  0  0
   20.4616   -1.8383   49.3708 C   0  0  2  0  0  0  0  0  0  0  0  0
   23.4766   -4.0963   50.6030 C   0  0  0  0  0  0  0  0  0  0  0  0
   18.1683    2.8737   52.7853 N   0  0  0  0  0  0  0  0  0  0  0  0
   22.5503   -3.2505   49.7660 N   0  0  0  0  0  0  0  0  0  0  0  0
   19.4521    0.6467   54.2466 O   0  0  0  0  0  0  0  0  0  0  0  0
   21.2833    0.6143   52.7500 O   0  0  0  0  0  0  0  0  0  0  0  0
   19.3565   -1.0403   49.9788 O   0  0  0  0  0  0  0  0  0  0  0  0
   22.7874   -0.3507   50.5690 O   0  0  0  0  0  0  0  0  0  0  0  0
   19.9016   -2.8611   48.6310 O   0  0  0  0  0  0  0  0  0  0  0  0
   19.1003   -2.3958   47.5318 C   0  0  2  0  0  0  0  0  0  0  0  0
   17.8887   -3.3345   47.3157 C   0  0  1  0  0  0  0  0  0  0  0  0
   18.3321   -4.7544   46.8474 C   0  0  2  0  0  0  0  0  0  0  0  0
   19.1427   -4.6301   45.5235 C   0  0  1  0  0  0  0  0  0  0  0  0
   20.4055   -3.7252   45.8395 C   0  0  1  0  0  0  0  0  0  0  0  0
   21.2794   -3.5130   44.6065 C   0  0  0  0  0  0  0  0  0  0  0  0
   19.5676   -5.9864   45.0736 N   0  0  0  0  0  0  0  0  0  0  0  0
   19.9281   -2.3726   46.2978 O   0  0  0  0  0  0  0  0  0  0  0  0
   17.1572   -3.3797   48.5557 O   0  0  0  0  0  0  0  0  0  0  0  0
   17.1744   -5.5323   46.6262 O   0  0  0  0  0  0  0  0  0  0  0  0
   21.9811   -4.6945   44.3223 O   0  0  0  0  0  0  0  0  0  0  0  0
   19.9142    0.7497   55.5776 C   0  0  1  0  0  0  0  0  0  0  0  0
   18.7297    1.2474   56.4669 C   0  0  1  0  0  0  0  0  0  0  0  0
   19.2339    1.3957   57.9321 C   0  0  2  0  0  0  0  0  0  0  0  0
   19.7710    0.0350   58.4739 C   0  0  1  0  0  0  0  0  0  0  0  0
   20.9595   -0.4807   57.5759 C   0  0  0  0  0  0  0  0  0  0  0  0
   20.4404   -0.6363   56.0865 C   0  0  2  0  0  0  0  0  0  0  0  0
   20.2518    0.2040   59.8731 N   0  0  0  0  0  0  0  0  0  0  0  0
   21.5610   -1.1243   55.2514 N   0  0  0  0  0  0  0  0  0  0  0  0
   18.2564    2.5248   56.0006 O   0  0  0  0  0  0  0  0  0  0  0  0
   18.1400    1.8408   58.7172 O   0  0  0  0  0  0  0  0  0  0  0  0
  1  2  1  0  0  0  0
  1 12  1  1  0  0  0
  1 13  1  0  0  0  0
  2  3  1  0  0  0  0
  2 10  1  1  0  0  0
  4  3  1  1  0  0  0
  4  5  1  0  0  0  0
  4 14  1  0  0  0  0
  5  6  1  0  0  0  0
  5 13  1  6  0  0  0
  6  7  1  0  0  0  0
  6 15  1  6  0  0  0
  7  8  1  0  0  0  0
  7 11  1  6  0  0  0
  8 14  1  0  0  0  0
  8 16  1  1  0  0  0
  9 11  1  0  0  0  0
 17 16  1  1  0  0  0
 17 18  1  0  0  0  0
 17 24  1  0  0  0  0
 18 19  1  0  0  0  0
 18 25  1  1  0  0  0
 19 20  1  0  0  0  0
 19 26  1  6  0  0  0
 20 21  1  0  0  0  0
 20 23  1  1  0  0  0
 21 22  1  6  0  0  0
 21 24  1  0  0  0  0
 22 27  1  0  0  0  0
 28 12  1  6  0  0  0
 28 29  1  0  0  0  0
 28 33  1  0  0  0  0
 29 30  1  0  0  0  0
 29 36  1  6  0  0  0
 30 31  1  0  0  0  0
 30 37  1  1  0  0  0
 31 32  1  0  0  0  0
 31 34  1  1  0  0  0
 32 33  1  0  0  0  0
 33 35  1  6  0  0  0
M  END
>  <CHROM.1>
-144.57564713,67.66751172,-173.81033369,-144.83336980,-73.57276320,121.39502381
19.96414579,-1.30169576,51.32633619,1.59496436,-0.41286200,1.13115468

>  <Name>
2oe8_lig

>  <RI>
0

>  <Rbt.Current_Directory>
/home/itssahil/PROJECTS/Mol_Feturizer/New_Systems/rnas/2oe8

>  <Rbt.Executable>
rbdock ($Id: //depot/dev/client3/rdock/2013.1/src/exe/rbdock.cxx#4 $)

>  <Rbt.Library>
libRbt.so (2013.1, Build901 2013/11/27)

>  <Rbt.Parameter_File>
/export/apps/rDock/src/rDock_2013.1_src/data/scripts/dock_solv.prm

>  <Rbt.Receptor>
prm/pocket_docking_2.prm

>  <SCORE>
-18.3459

>  <SCORE.INTER>
-18.9089

>  <SCORE.INTER.CONST>
1

>  <SCORE.INTER.POLAR>
-1.83734

>  <SCORE.INTER.ROT>
6

>  <SCORE.INTER.SOLV>
17.0445

>  <SCORE.INTER.VDW>
-19.7629

>  <SCORE.INTER.norm>
-0.511051

>  <SCORE.INTRA>
0.553375

>  <SCORE.INTRA.DIHEDRAL>
0.856787

>  <SCORE.INTRA.DIHEDRAL.0>
16.4056

>  <SCORE.INTRA.POLAR>
0

>  <SCORE.INTRA.POLAR.0>
0

>  <SCORE.INTRA.REPUL>
0

>  <SCORE.INTRA.REPUL.0>
0

>  <SCORE.INTRA.SOLV>
0.61851

>  <SCORE.INTRA.SOLV.lig_0>
-90.9627

>  <SCORE.INTRA.VDW>
-0.184273

>  <SCORE.INTRA.VDW.0>
-3.28744

>  <SCORE.INTRA.norm>
0.0149561

>  <SCORE.RESTR>
0.0096484

>  <SCORE.RESTR.CAVITY>
0.0096484

>  <SCORE.RESTR.norm>
0.000260768

>  <SCORE.SYSTEM>
0

>  <SCORE.SYSTEM.CONST>
0

>  <SCORE.SYSTEM.DIHEDRAL>
0

>  <SCORE.SYSTEM.SOLV>
0

>  <SCORE.SYSTEM.norm>
0

>  <SCORE.heavy>
37

>  <SCORE.norm>
-0.495834

>  <RMSD>
0.757

$$$$
2oe8_lig
 OpenBabel11021811463D
libRbt.so/2013.1/901 2013/11/27
 37 40  0  0  0  0  0  0  0  0999 V2000
   20.2353    1.5668   53.3313 C   0  0  1  0  0  0  0  0  0  0  0  0
   19.2855    2.1290   52.2065 C   0  0  1  0  0  0  0  0  0  0  0  0
   18.6139    0.9515   51.4697 C   0  0  0  0  0  0  0  0  0  0  0  0
   19.7741    0.1033   50.8611 C   0  0  1  0  0  0  0  0  0  0  0  0
   20.7679   -0.4626   52.0005 C   0  0  1  0  0  0  0  0  0  0  0  0
   21.9392   -1.2941   51.4001 C   0  0  1  0  0  0  0  0  0  0  0  0
   21.2982   -2.4814   50.5717 C   0  0  1  0  0  0  0  0  0  0  0  0
   20.3090   -1.8835   49.5116 C   0  0  2  0  0  0  0  0  0  0  0  0
   22.1003   -4.7821   49.5918 C   0  0  0  0  0  0  0  0  0  0  0  0
   18.2353    3.0156   52.8009 N   0  0  0  0  0  0  0  0  0  0  0  0
   22.3738   -3.3319   49.9015 N   0  0  0  0  0  0  0  0  0  0  0  0
   19.5084    0.8156   54.3118 O   0  0  0  0  0  0  0  0  0  0  0  0
   21.2920    0.6780   52.7646 O   0  0  0  0  0  0  0  0  0  0  0  0
   19.2424   -1.0344   50.1194 O   0  0  0  0  0  0  0  0  0  0  0  0
   22.7055   -0.4098   50.5807 O   0  0  0  0  0  0  0  0  0  0  0  0
   19.7021   -2.9199   48.8300 O   0  0  0  0  0  0  0  0  0  0  0  0
   18.9649   -2.4867   47.6742 C   0  0  2  0  0  0  0  0  0  0  0  0
   17.8307   -3.4900   47.3539 C   0  0  1  0  0  0  0  0  0  0  0  0
   18.3914   -4.8761   46.9104 C   0  0  2  0  0  0  0  0  0  0  0  0
   19.2959   -4.6883   45.6568 C   0  0  1  0  0  0  0  0  0  0  0  0
   20.4751   -3.7171   46.0804 C   0  0  1  0  0  0  0  0  0  0  0  0
   21.4303   -3.4392   44.9232 C   0  0  0  0  0  0  0  0  0  0  0  0
   19.8329   -6.0122   45.2306 N   0  0  0  0  0  0  0  0  0  0  0  0
   19.8853   -2.4001   46.5107 O   0  0  0  0  0  0  0  0  0  0  0  0
   17.0070   -3.5932   48.5311 O   0  0  0  0  0  0  0  0  0  0  0  0
   17.3018   -5.7157   46.5907 O   0  0  0  0  0  0  0  0  0  0  0  0
   22.1396   -4.6092   44.6116 O   0  0  0  0  0  0  0  0  0  0  0  0
   20.1350    0.7808   55.5775 C   0  0  1  0  0  0  0  0  0  0  0  0
   19.1088    1.2851   56.6425 C   0  0  1  0  0  0  0  0  0  0  0  0
   19.7967    1.2819   58.0388 C   0  0  2  0  0  0  0  0  0  0  0  0
   20.2892   -0.1509   58.4108 C   0  0  1  0  0  0  0  0  0  0  0  0
   21.3169   -0.6727   57.3354 C   0  0  0  0  0  0  0  0  0  0  0  0
   20.6106   -0.6737   55.9164 C   0  0  2  0  0  0  0  0  0  0  0  0
   20.9476   -0.1267   59.7463 N   0  0  0  0  0  0  0  0  0  0  0  0
   21.5808   -1.1683   54.9138 N   0  0  0  0  0  0  0  0  0  0  0  0
   18.6823    2.6247   56.3313 O   0  0  0  0  0  0  0  0  0  0  0  0
   18.8437    1.7361   58.9856 O   0  0  0  0  0  0  0  0  0  0  0  0
  1  2  1  0  0  0  0
  1 12  1  1  0  0  0
  1 13  1  0  0  0  0
  2  3  1  0  0  0  0
  2 10  1  1  0  0  0
  4  3  1  1  0  0  0
  4  5  1  0  0  0  0
  4 14  1  0  0  0  0
  5  6  1  0  0  0  0
  5 13  1  6  0  0  0
  6  7  1  0  0  0  0
  6 15  1  6  0  0  0
  7  8  1  0  0  0  0
  7 11  1  6  0  0  0
  8 14  1  0  0  0  0
  8 16  1  1  0  0  0
  9 11  1  0  0  0  0
 17 16  1  1  0  0  0
 17 18  1  0  0  0  0
 17 24  1  0  0  0  0
 18 19  1  0  0  0  0
 18 25  1  1  0  0  0
 19 20  1  0  0  0  0
 19 26  1  6  0  0  0
 20 21  1  0  0  0  0
 20 23  1  1  0  0  0
 21 22  1  6  0  0  0
 21 24  1  0  0  0  0
 22 27  1  0  0  0  0
 28 12  1  6  0  0  0
 28 29  1  0  0  0  0
 28 33  1  0  0  0  0
 29 30  1  0  0  0  0
 29 36  1  6  0  0  0
 30 31  1  0  0  0  0
 30 37  1  1  0  0  0
 31 32  1  0  0  0  0
 31 34  1  1  0  0  0
 32 33  1  0  0  0  0
 33 35  1  6  0  0  0
M  END
>  <CHROM.1>
-154.35770377,153.23879537,-169.18580004,-153.88455492,-68.61771799,125.48770301
20.02632590,-1.35062969,51.37212712,1.55859554,-0.67862823,1.09992017

>  <Name>
2oe8_lig

>  <RI>
0

>  <Rbt.Current_Directory>
/home/itssahil/PROJECTS/Mol_Feturizer/New_Systems/rnas/2oe8

>  <Rbt.Executable>
rbdock ($Id: //depot/dev/client3/rdock/2013.1/src/exe/rbdock.cxx#4 $)

>  <Rbt.Library>
libRbt.so (2013.1, Build901 2013/11/27)

>  <Rbt.Parameter_File>
/export/apps/rDock/src/rDock_2013.1_src/data/scripts/dock_solv.prm

>  <Rbt.Receptor>
prm/pocket_docking_2.prm

>  <SCORE>
-18.7029

>  <SCORE.INTER>
-17.3656

>  <SCORE.INTER.CONST>
1

>  <SCORE.INTER.POLAR>
-1.73088

>  <SCORE.INTER.ROT>
6

>  <SCORE.INTER.SOLV>
17.5566

>  <SCORE.INTER.VDW>
-19.2597

>  <SCORE.INTER.norm>
-0.469341

>  <SCORE.INTRA>
-1.33726

>  <SCORE.INTRA.DIHEDRAL>
-2.33331

>  <SCORE.INTRA.DIHEDRAL.0>
16.4056

>  <SCORE.INTRA.POLAR>
0

>  <SCORE.INTRA.POLAR.0>
0

>  <SCORE.INTRA.REPUL>
0

>  <SCORE.INTRA.REPUL.0>
0

>  <SCORE.INTRA.SOLV>
0.892899

>  <SCORE.INTRA.SOLV.lig_0>
-90.9627

>  <SCORE.INTRA.VDW>
-0.617052

>  <SCORE.INTRA.VDW.0>
-3.28744

>  <SCORE.INTRA.norm>
-0.0361421

>  <SCORE.RESTR>
0

>  <SCORE.RESTR.CAVITY>
0

>  <SCORE.RESTR.norm>
0

>  <SCORE.SYSTEM>
0

>  <SCORE.SYSTEM.CONST>
0

>  <SCORE.SYSTEM.DIHEDRAL>
0

>  <SCORE.SYSTEM.SOLV>
0

>  <SCORE.SYSTEM.norm>
0

>  <SCORE.heavy>
37

>  <SCORE.norm>
-0.505483

>  <RMSD>
0.757

$$$$
2oe8_lig
 OpenBabel11021811463D
libRbt.so/2013.1/901 2013/11/27
 37 40  0  0  0  0  0  0  0  0999 V2000
   20.2428    1.5235   53.2995 C   0  0  1  0  0  0  0  0  0  0  0  0
   19.3537    2.1159   52.1410 C   0  0  1  0  0  0  0  0  0  0  0  0
   18.6930    0.9595   51.3621 C   0  0  0  0  0  0  0  0  0  0  0  0
   19.8626    0.0958   50.7948 C   0  0  1  0  0  0  0  0  0  0  0  0
   20.7949   -0.5014   51.9697 C   0  0  1  0  0  0  0  0  0  0  0  0
   21.9756   -1.3487   51.4112 C   0  0  1  0  0  0  0  0  0  0  0  0
   21.3492   -2.5145   50.5420 C   0  0  1  0  0  0  0  0  0  0  0  0
   20.4186   -1.8863   49.4469 C   0  0  2  0  0  0  0  0  0  0  0  0
   22.1247   -4.7929   49.4913 C   0  0  0  0  0  0  0  0  0  0  0  0
   18.2953    3.0160   52.6994 N   0  0  0  0  0  0  0  0  0  0  0  0
   22.4370   -3.3782   49.9094 N   0  0  0  0  0  0  0  0  0  0  0  0
   19.4598    0.7760   54.2386 O   0  0  0  0  0  0  0  0  0  0  0  0
   21.3064    0.6207   52.7690 O   0  0  0  0  0  0  0  0  0  0  0  0
   19.3427   -1.0235   50.0175 O   0  0  0  0  0  0  0  0  0  0  0  0
   22.7933   -0.4705   50.6361 O   0  0  0  0  0  0  0  0  0  0  0  0
   19.8228   -2.9035   48.7276 O   0  0  0  0  0  0  0  0  0  0  0  0
   19.1819   -2.4494   47.5235 C   0  0  2  0  0  0  0  0  0  0  0  0
   17.9278   -3.3067   47.2270 C   0  0  1  0  0  0  0  0  0  0  0  0
   18.3015   -4.7823   46.8878 C   0  0  2  0  0  0  0  0  0  0  0  0
   19.2542   -4.8019   45.6561 C   0  0  1  0  0  0  0  0  0  0  0  0
   20.5459   -3.9758   46.0592 C   0  0  1  0  0  0  0  0  0  0  0  0
   21.5588   -3.9070   44.9198 C   0  0  0  0  0  0  0  0  0  0  0  0
   19.6129   -6.2117   45.3296 N   0  0  0  0  0  0  0  0  0  0  0  0
   20.1340   -2.5654   46.3884 O   0  0  0  0  0  0  0  0  0  0  0  0
   17.0687   -3.2195   48.3799 O   0  0  0  0  0  0  0  0  0  0  0  0
   17.1143   -5.4839   46.5833 O   0  0  0  0  0  0  0  0  0  0  0  0
   20.9298   -3.4191   43.7643 O   0  0  0  0  0  0  0  0  0  0  0  0
   19.9992    0.7656   55.5443 C   0  0  1  0  0  0  0  0  0  0  0  0
   18.8621    1.1531   56.5437 C   0  0  1  0  0  0  0  0  0  0  0  0
   19.4508    1.1763   57.9845 C   0  0  2  0  0  0  0  0  0  0  0  0
   20.0416   -0.2166   58.3644 C   0  0  1  0  0  0  0  0  0  0  0  0
   21.1824   -0.6211   57.3546 C   0  0  0  0  0  0  0  0  0  0  0  0
   20.5775   -0.6497   55.8898 C   0  0  2  0  0  0  0  0  0  0  0  0
   20.6026   -0.1671   59.7430 N   0  0  0  0  0  0  0  0  0  0  0  0
   21.6538   -1.0339   54.9490 N   0  0  0  0  0  0  0  0  0  0  0  0
   18.3409    2.4574   56.2272 O   0  0  0  0  0  0  0  0  0  0  0  0
   18.3989    1.5231   58.8700 O   0  0  0  0  0  0  0  0  0  0  0  0
  1  2  1  0  0  0  0
  1 12  1  1  0  0  0
  1 13  1  0  0  0  0
  2  3  1  0  0  0  0
  2 10  1  1  0  0  0
  4  3  1  1  0  0  0
  4  5  1  0  0  0  0
  4 14  1  0  0  0  0
  5  6  1  0  0  0  0
  5 13  1  6  0  0  0
  6  7  1  0  0  0  0
  6 15  1  6  0  0  0
  7  8  1  0  0  0  0
  7 11  1  6  0  0  0
  8 14  1  0  0  0  0
  8 16  1  1  0  0  0
  9 11  1  0  0  0  0
 17 16  1  1  0  0  0
 17 18  1  0  0  0  0
 17 24  1  0  0  0  0
 18 19  1  0  0  0  0
 18 25  1  1  0  0  0
 19 20  1  0  0  0  0
 19 26  1  6  0  0  0
 20 21  1  0  0  0  0
 20 23  1  1  0  0  0
 21 22  1  6  0  0  0
 21 24  1  0  0  0  0
 22 27  1  0  0  0  0
 28 12  1  6  0  0  0
 28 29  1  0  0  0  0
 28 33  1  0  0  0  0
 29 30  1  0  0  0  0
 29 36  1  6  0  0  0
 30 31  1  0  0  0  0
 30 37  1  1  0  0  0
 31 32  1  0  0  0  0
 31 34  1  1  0  0  0
 32 33  1  0  0  0  0
 33 35  1  6  0  0  0
M  END
>  <CHROM.1>
-151.68320536,157.09538009,-167.30125294,-146.72001391,53.66148411,130.24854869
19.96124211,-1.34528000,51.29870330,1.56877758,-0.68265217,1.12554881

>  <Name>
2oe8_lig

>  <RI>
0

>  <Rbt.Current_Directory>
/home/itssahil/PROJECTS/Mol_Feturizer/New_Systems/rnas/2oe8

>  <Rbt.Executable>
rbdock ($Id: //depot/dev/client3/rdock/2013.1/src/exe/rbdock.cxx#4 $)

>  <Rbt.Library>
libRbt.so (2013.1, Build901 2013/11/27)

>  <Rbt.Parameter_File>
/export/apps/rDock/src/rDock_2013.1_src/data/scripts/dock_solv.prm

>  <Rbt.Receptor>
prm/pocket_docking_2.prm

>  <SCORE>
-18.4456

>  <SCORE.INTER>
-17.7573

>  <SCORE.INTER.CONST>
1

>  <SCORE.INTER.POLAR>
-1.65167

>  <SCORE.INTER.ROT>
6

>  <SCORE.INTER.SOLV>
16.928

>  <SCORE.INTER.VDW>
-19.5753

>  <SCORE.INTER.norm>
-0.479926

>  <SCORE.INTRA>
-0.688292

>  <SCORE.INTRA.DIHEDRAL>
-0.889438

>  <SCORE.INTRA.DIHEDRAL.0>
16.4056

>  <SCORE.INTRA.POLAR>
0

>  <SCORE.INTRA.POLAR.0>
0

>  <SCORE.INTRA.REPUL>
0

>  <SCORE.INTRA.REPUL.0>
0

>  <SCORE.INTRA.SOLV>
0.703745

>  <SCORE.INTRA.SOLV.lig_0>
-90.9627

>  <SCORE.INTRA.VDW>
-0.595445

>  <SCORE.INTRA.VDW.0>
-3.28744

>  <SCORE.INTRA.norm>
-0.0186025

>  <SCORE.RESTR>
0

>  <SCORE.RESTR.CAVITY>
0

>  <SCORE.RESTR.norm>
0

>  <SCORE.SYSTEM>
0

>  <SCORE.SYSTEM.CONST>
0

>  <SCORE.SYSTEM.DIHEDRAL>
0

>  <SCORE.SYSTEM.SOLV>
0

>  <SCORE.SYSTEM.norm>
0

>  <SCORE.heavy>
37

>  <SCORE.norm>
-0.498528

>  <RMSD>
0.766

$$$$
2oe8_lig
 OpenBabel11021811463D
libRbt.so/2013.1/901 2013/11/27
 37 40  0  0  0  0  0  0  0  0999 V2000
   20.1847    1.3615   53.2345 C   0  0  1  0  0  0  0  0  0  0  0  0
   19.0255    1.7893   52.2563 C   0  0  1  0  0  0  0  0  0  0  0  0
   18.5695    0.5633   51.4380 C   0  0  0  0  0  0  0  0  0  0  0  0
   19.8260    0.0766   50.6505 C   0  0  1  0  0  0  0  0  0  0  0  0
   21.0300   -0.3457   51.6395 C   0  0  1  0  0  0  0  0  0  0  0  0
   22.2943   -0.8144   50.8613 C   0  0  1  0  0  0  0  0  0  0  0  0
   21.8611   -2.0337   49.9489 C   0  0  1  0  0  0  0  0  0  0  0  0
   20.6621   -1.5870   49.0418 C   0  0  2  0  0  0  0  0  0  0  0  0
   24.2575   -3.0947   49.7814 C   0  0  0  0  0  0  0  0  0  0  0  0
   17.8654    2.3404   53.0261 N   0  0  0  0  0  0  0  0  0  0  0  0
   23.0301   -2.5366   49.1063 N   0  0  0  0  0  0  0  0  0  0  0  0
   19.7479    0.3684   54.1710 O   0  0  0  0  0  0  0  0  0  0  0  0
   21.3543    0.8070   52.4913 O   0  0  0  0  0  0  0  0  0  0  0  0
   19.4960   -1.0772   49.8217 O   0  0  0  0  0  0  0  0  0  0  0  0
   22.7548    0.3011   50.0969 O   0  0  0  0  0  0  0  0  0  0  0  0
   20.2421   -2.6666   48.2900 O   0  0  0  0  0  0  0  0  0  0  0  0
   19.2410   -2.3268   47.3157 C   0  0  2  0  0  0  0  0  0  0  0  0
   17.9821   -3.2058   47.5108 C   0  0  1  0  0  0  0  0  0  0  0  0
   18.2708   -4.7075   47.2048 C   0  0  2  0  0  0  0  0  0  0  0  0
   18.7856   -4.8451   45.7416 C   0  0  1  0  0  0  0  0  0  0  0  0
   20.1147   -3.9872   45.6380 C   0  0  1  0  0  0  0  0  0  0  0  0
   20.7134   -4.0281   44.2349 C   0  0  0  0  0  0  0  0  0  0  0  0
   19.0621   -6.2800   45.4465 N   0  0  0  0  0  0  0  0  0  0  0  0
   19.7886   -2.5512   45.9525 O   0  0  0  0  0  0  0  0  0  0  0  0
   17.5292   -3.0086   48.8639 O   0  0  0  0  0  0  0  0  0  0  0  0
   17.0684   -5.4324   47.3572 O   0  0  0  0  0  0  0  0  0  0  0  0
   19.7998   -3.4812   43.3209 O   0  0  0  0  0  0  0  0  0  0  0  0
   20.2181    0.5841   55.4856 C   0  0  1  0  0  0  0  0  0  0  0  0
   19.1788    1.4799   56.2333 C   0  0  1  0  0  0  0  0  0  0  0  0
   19.7001    1.7519   57.6746 C   0  0  2  0  0  0  0  0  0  0  0  0
   19.9064    0.4146   58.4510 C   0  0  1  0  0  0  0  0  0  0  0  0
   20.9453   -0.5008   57.6978 C   0  0  0  0  0  0  0  0  0  0  0  0
   20.4079   -0.7804   56.2332 C   0  0  2  0  0  0  0  0  0  0  0  0
   20.4098    0.7008   59.8230 N   0  0  0  0  0  0  0  0  0  0  0  0
   21.3871   -1.6433   55.5347 N   0  0  0  0  0  0  0  0  0  0  0  0
   19.0152    2.7353   55.5474 O   0  0  0  0  0  0  0  0  0  0  0  0
   18.7371    2.5592   58.3318 O   0  0  0  0  0  0  0  0  0  0  0  0
  1  2  1  0  0  0  0
  1 12  1  1  0  0  0
  1 13  1  0  0  0  0
  2  3  1  0  0  0  0
  2 10  1  1  0  0  0
  4  3  1  1  0  0  0
  4  5  1  0  0  0  0
  4 14  1  0  0  0  0
  5  6  1  0  0  0  0
  5 13  1  6  0  0  0
  6  7  1  0  0  0  0
  6 15  1  6  0  0  0
  7  8  1  0  0  0  0
  7 11  1  6  0  0  0
  8 14  1  0  0  0  0
  8 16  1  1  0  0  0
  9 11  1  0  0  0  0
 17 16  1  1  0  0  0
 17 18  1  0  0  0  0
 17 24  1  0  0  0  0
 18 19  1  0  0  0  0
 18 25  1  1  0  0  0
 19 20  1  0  0  0  0
 19 26  1  6  0  0  0
 20 21  1  0  0  0  0
 20 23  1  1  0  0  0
 21 22  1  6  0  0  0
 21 24  1  0  0  0  0
 22 27  1  0  0  0  0
 28 12  1  6  0  0  0
 28 29  1  0  0  0  0
 28 33  1  0  0  0  0
 29 30  1  0  0  0  0
 29 36  1  6  0  0  0
 30 31  1  0  0  0  0
 30 37  1  1  0  0  0
 31 32  1  0  0  0  0
 31 34  1  1  0  0  0
 32 33  1  0  0  0  0
 33 35  1  6  0  0  0
M  END
>  <CHROM.1>
-138.02204131,62.25833629,-173.54011460,-124.29992406,61.50870574,89.55881205
20.00621895,-1.16845182,51.18245837,-1.54606525,0.05435901,-2.01483675

>  <Name>
2oe8_lig

>  <RI>
0

>  <Rbt.Current_Directory>
/home/itssahil/PROJECTS/Mol_Feturizer/New_Systems/rnas/2oe8

>  <Rbt.Executable>
rbdock ($Id: //depot/dev/client3/rdock/2013.1/src/exe/rbdock.cxx#4 $)

>  <Rbt.Library>
libRbt.so (2013.1, Build901 2013/11/27)

>  <Rbt.Parameter_File>
/export/apps/rDock/src/rDock_2013.1_src/data/scripts/dock_solv.prm

>  <Rbt.Receptor>
prm/pocket_docking_2.prm

>  <SCORE>
-17.3165

>  <SCORE.INTER>
-17.5228

>  <SCORE.INTER.CONST>
1

>  <SCORE.INTER.POLAR>
-1.72959

>  <SCORE.INTER.ROT>
6

>  <SCORE.INTER.SOLV>
17.8738

>  <SCORE.INTER.VDW>
-19.4745

>  <SCORE.INTER.norm>
-0.47359

>  <SCORE.INTRA>
0.206319

>  <SCORE.INTRA.DIHEDRAL>
0.169631

>  <SCORE.INTRA.DIHEDRAL.0>
16.4056

>  <SCORE.INTRA.POLAR>
0

>  <SCORE.INTRA.POLAR.0>
0

>  <SCORE.INTRA.REPUL>
0

>  <SCORE.INTRA.REPUL.0>
0

>  <SCORE.INTRA.SOLV>
-0.355643

>  <SCORE.INTRA.SOLV.lig_0>
-90.9627

>  <SCORE.INTRA.VDW>
0.299325

>  <SCORE.INTRA.VDW.0>
-3.28744

>  <SCORE.INTRA.norm>
0.0055762

>  <SCORE.RESTR>
0

>  <SCORE.RESTR.CAVITY>
0

>  <SCORE.RESTR.norm>
0

>  <SCORE.SYSTEM>
0

>  <SCORE.SYSTEM.CONST>
0

>  <SCORE.SYSTEM.DIHEDRAL>
0

>  <SCORE.SYSTEM.SOLV>
0

>  <SCORE.SYSTEM.norm>
0

>  <SCORE.heavy>
37

>  <SCORE.norm>
-0.468014

>  <RMSD>
0.782

$$$$
2oe8_lig
 OpenBabel11021811463D
libRbt.so/2013.1/901 2013/11/27
 37 40  0  0  0  0  0  0  0  0999 V2000
   20.4530    1.3886   53.0338 C   0  0  1  0  0  0  0  0  0  0  0  0
   19.3990    1.9292   51.9946 C   0  0  1  0  0  0  0  0  0  0  0  0
   18.7497    0.7383   51.2592 C   0  0  0  0  0  0  0  0  0  0  0  0
   19.9143   -0.0170   50.5457 C   0  0  1  0  0  0  0  0  0  0  0  0
   21.0133   -0.5591   51.5966 C   0  0  1  0  0  0  0  0  0  0  0  0
   22.1886   -1.2974   50.8911 C   0  0  1  0  0  0  0  0  0  0  0  0
   21.5642   -2.4931   50.0621 C   0  0  1  0  0  0  0  0  0  0  0  0
   20.4731   -1.9214   49.0913 C   0  0  2  0  0  0  0  0  0  0  0  0
   22.6127   -4.7608   49.2531 C   0  0  0  0  0  0  0  0  0  0  0  0
   18.3407    2.7300   52.6882 N   0  0  0  0  0  0  0  0  0  0  0  0
   22.6406   -3.2537   49.2925 N   0  0  0  0  0  0  0  0  0  0  0  0
   19.8383    0.5623   54.0305 O   0  0  0  0  0  0  0  0  0  0  0  0
   21.5196    0.5851   52.3672 O   0  0  0  0  0  0  0  0  0  0  0  0
   19.4018   -1.1595   49.7980 O   0  0  0  0  0  0  0  0  0  0  0  0
   22.8454   -0.3412   50.0574 O   0  0  0  0  0  0  0  0  0  0  0  0
   19.8838   -2.9694   48.4121 O   0  0  0  0  0  0  0  0  0  0  0  0
   19.0196   -2.5424   47.3455 C   0  0  2  0  0  0  0  0  0  0  0  0
   17.7712   -3.4540   47.2685 C   0  0  1  0  0  0  0  0  0  0  0  0
   18.1423   -4.9110   46.8543 C   0  0  2  0  0  0  0  0  0  0  0  0
   18.8605   -4.8864   45.4727 C   0  0  1  0  0  0  0  0  0  0  0  0
   20.1662   -4.0044   45.6476 C   0  0  1  0  0  0  0  0  0  0  0  0
   20.9562   -3.8889   44.3471 C   0  0  0  0  0  0  0  0  0  0  0  0
   19.2161   -6.2783   45.0744 N   0  0  0  0  0  0  0  0  0  0  0  0
   19.7586   -2.6141   46.0581 O   0  0  0  0  0  0  0  0  0  0  0  0
   17.1281   -3.4069   48.5565 O   0  0  0  0  0  0  0  0  0  0  0  0
   16.9514   -5.6642   46.7591 O   0  0  0  0  0  0  0  0  0  0  0  0
   22.2436   -3.4043   44.6240 O   0  0  0  0  0  0  0  0  0  0  0  0
   20.5281    0.5539   55.2634 C   0  0  1  0  0  0  0  0  0  0  0  0
   19.5381    1.0217   56.3781 C   0  0  1  0  0  0  0  0  0  0  0  0
   20.2944    1.0474   57.7383 C   0  0  2  0  0  0  0  0  0  0  0  0
   20.8585   -0.3649   58.0858 C   0  0  1  0  0  0  0  0  0  0  0  0
   21.8502   -0.8501   56.9606 C   0  0  0  0  0  0  0  0  0  0  0  0
   21.0746   -0.8809   55.5787 C   0  0  2  0  0  0  0  0  0  0  0  0
   21.5813   -0.3129   59.3867 N   0  0  0  0  0  0  0  0  0  0  0  0
   22.0115   -1.3409   54.5290 N   0  0  0  0  0  0  0  0  0  0  0  0
   19.0463    2.3435   56.0881 O   0  0  0  0  0  0  0  0  0  0  0  0
   19.3733    1.4676   58.7313 O   0  0  0  0  0  0  0  0  0  0  0  0
  1  2  1  0  0  0  0
  1 12  1  1  0  0  0
  1 13  1  0  0  0  0
  2  3  1  0  0  0  0
  2 10  1  1  0  0  0
  4  3  1  1  0  0  0
  4  5  1  0  0  0  0
  4 14  1  0  0  0  0
  5  6  1  0  0  0  0
  5 13  1  6  0  0  0
  6  7  1  0  0  0  0
  6 15  1  6  0  0  0
  7  8  1  0  0  0  0
  7 11  1  6  0  0  0
  8 14  1  0  0  0  0
  8 16  1  1  0  0  0
  9 11  1  0  0  0  0
 17 16  1  1  0  0  0
 17 18  1  0  0  0  0
 17 24  1  0  0  0  0
 18 19  1  0  0  0  0
 18 25  1  1  0  0  0
 19 20  1  0  0  0  0
 19 26  1  6  0  0  0
 20 21  1  0  0  0  0
 20 23  1  1  0  0  0
 21 22  1  6  0  0  0
 21 24  1  0  0  0  0
 22 27  1  0  0  0  0
 28 12  1  6  0  0  0
 28 29  1  0  0  0  0
 28 33  1  0  0  0  0
 29 30  1  0  0  0  0
 29 36  1  6  0  0  0
 30 31  1  0  0  0  0
 30 37  1  1  0  0  0
 31 32  1  0  0  0  0
 31 34  1  1  0  0  0
 32 33  1  0  0  0  0
 33 35  1  6  0  0  0
M  END
>  <CHROM.1>
-152.63045965,137.44742680,-170.71547219,-141.96730054,-165.08276029,122.71152988
20.18767407,-1.44572610,51.07464307,1.50009956,-0.42162406,1.09901452

>  <Name>
2oe8_lig

>  <RI>
0

>  <Rbt.Current_Directory>
/home/itssahil/PROJECTS/Mol_Feturizer/New_Systems/rnas/2oe8

>  <Rbt.Executable>
rbdock ($Id: //depot/dev/client3/rdock/2013.1/src/exe/rbdock.cxx#4 $)

>  <Rbt.Library>
libRbt.so (2013.1, Build901 2013/11/27)

>  <Rbt.Parameter_File>
/export/apps/rDock/src/rDock_2013.1_src/data/scripts/dock_solv.prm

>  <Rbt.Receptor>
prm/pocket_docking_2.prm

>  <SCORE>
-18.4297

>  <SCORE.INTER>
-18.0232

>  <SCORE.INTER.CONST>
1

>  <SCORE.INTER.POLAR>
-1.85407

>  <SCORE.INTER.ROT>
6

>  <SCORE.INTER.SOLV>
17.5766

>  <SCORE.INTER.VDW>
-19.2941

>  <SCORE.INTER.norm>
-0.487113

>  <SCORE.INTRA>
-0.406477

>  <SCORE.INTRA.DIHEDRAL>
1.11272

>  <SCORE.INTRA.DIHEDRAL.0>
16.4056

>  <SCORE.INTRA.POLAR>
0

>  <SCORE.INTRA.POLAR.0>
0

>  <SCORE.INTRA.REPUL>
0

>  <SCORE.INTRA.REPUL.0>
0

>  <SCORE.INTRA.SOLV>
-0.276758

>  <SCORE.INTRA.SOLV.lig_0>
-90.9627

>  <SCORE.INTRA.VDW>
-0.824457

>  <SCORE.INTRA.VDW.0>
-3.28744

>  <SCORE.INTRA.norm>
-0.0109859

>  <SCORE.RESTR>
0

>  <SCORE.RESTR.CAVITY>
0

>  <SCORE.RESTR.norm>
0

>  <SCORE.SYSTEM>
0

>  <SCORE.SYSTEM.CONST>
0

>  <SCORE.SYSTEM.DIHEDRAL>
0

>  <SCORE.SYSTEM.SOLV>
0

>  <SCORE.SYSTEM.norm>
0

>  <SCORE.heavy>
37

>  <SCORE.norm>
-0.498099

>  <RMSD>
0.792

$$$$
2oe8_lig
 OpenBabel11021811463D
libRbt.so/2013.1/901 2013/11/27
 37 40  0  0  0  0  0  0  0  0999 V2000
   20.2610    1.3493   53.1428 C   0  0  1  0  0  0  0  0  0  0  0  0
   19.3832    1.9509   51.9804 C   0  0  1  0  0  0  0  0  0  0  0  0
   18.7101    0.8015   51.2017 C   0  0  0  0  0  0  0  0  0  0  0  0
   19.8702   -0.0784   50.6397 C   0  0  1  0  0  0  0  0  0  0  0  0
   20.7911   -0.6851   51.8187 C   0  0  1  0  0  0  0  0  0  0  0  0
   21.9625   -1.5487   51.2655 C   0  0  1  0  0  0  0  0  0  0  0  0
   21.3238   -2.7081   50.3967 C   0  0  1  0  0  0  0  0  0  0  0  0
   20.4048   -2.0701   49.2975 C   0  0  2  0  0  0  0  0  0  0  0  0
   23.5051   -2.9575   48.9557 C   0  0  0  0  0  0  0  0  0  0  0  0
   18.3348    2.8657   52.5338 N   0  0  0  0  0  0  0  0  0  0  0  0
   22.4023   -3.5869   49.7691 N   0  0  0  0  0  0  0  0  0  0  0  0
   19.4655    0.6138   54.0810 O   0  0  0  0  0  0  0  0  0  0  0  0
   21.3145    0.4318   52.6174 O   0  0  0  0  0  0  0  0  0  0  0  0
   19.3383   -1.1923   49.8630 O   0  0  0  0  0  0  0  0  0  0  0  0
   22.7938   -0.6826   50.4913 O   0  0  0  0  0  0  0  0  0  0  0  0
   19.7981   -3.0810   48.5783 O   0  0  0  0  0  0  0  0  0  0  0  0
   19.0059   -2.6010   47.4788 C   0  0  2  0  0  0  0  0  0  0  0  0
   17.7620   -3.5005   47.2806 C   0  0  1  0  0  0  0  0  0  0  0  0
   18.1543   -4.9396   46.8255 C   0  0  2  0  0  0  0  0  0  0  0  0
   18.9601   -4.8573   45.4954 C   0  0  1  0  0  0  0  0  0  0  0  0
   20.2547   -3.9922   45.7936 C   0  0  1  0  0  0  0  0  0  0  0  0
   21.1272   -3.8232   44.5531 C   0  0  0  0  0  0  0  0  0  0  0  0
   19.3361   -6.2321   45.0581 N   0  0  0  0  0  0  0  0  0  0  0  0
   19.8261   -2.6193   46.2397 O   0  0  0  0  0  0  0  0  0  0  0  0
   17.0374   -3.5073   48.5255 O   0  0  0  0  0  0  0  0  0  0  0  0
   16.9696   -5.6803   46.6200 O   0  0  0  0  0  0  0  0  0  0  0  0
   22.3845   -3.3272   44.9302 O   0  0  0  0  0  0  0  0  0  0  0  0
   19.9977    0.6039   55.3896 C   0  0  1  0  0  0  0  0  0  0  0  0
   18.8694    1.0435   56.3772 C   0  0  1  0  0  0  0  0  0  0  0  0
   19.4513    1.0674   57.8207 C   0  0  2  0  0  0  0  0  0  0  0  0
   19.9931   -0.3390   58.2234 C   0  0  1  0  0  0  0  0  0  0  0  0
   21.1246   -0.7958   57.2255 C   0  0  0  0  0  0  0  0  0  0  0  0
   20.5264   -0.8249   55.7581 C   0  0  2  0  0  0  0  0  0  0  0  0
   20.5486   -0.2888   59.6042 N   0  0  0  0  0  0  0  0  0  0  0  0
   21.5938   -1.2583   54.8286 N   0  0  0  0  0  0  0  0  0  0  0  0
   18.3940    2.3600   56.0396 O   0  0  0  0  0  0  0  0  0  0  0  0
   18.4073    1.4618   58.6955 O   0  0  0  0  0  0  0  0  0  0  0  0
  1  2  1  0  0  0  0
  1 12  1  1  0  0  0
  1 13  1  0  0  0  0
  2  3  1  0  0  0  0
  2 10  1  1  0  0  0
  4  3  1  1  0  0  0
  4  5  1  0  0  0  0
  4 14  1  0  0  0  0
  5  6  1  0  0  0  0
  5 13  1  6  0  0  0
  6  7  1  0  0  0  0
  6 15  1  6  0  0  0
  7  8  1  0  0  0  0
  7 11  1  6  0  0  0
  8 14  1  0  0  0  0
  8 16  1  1  0  0  0
  9 11  1  0  0  0  0
 17 16  1  1  0  0  0
 17 18  1  0  0  0  0
 17 24  1  0  0  0  0
 18 19  1  0  0  0  0
 18 25  1  1  0  0  0
 19 20  1  0  0  0  0
 19 26  1  6  0  0  0
 20 21  1  0  0  0  0
 20 23  1  1  0  0  0
 21 22  1  6  0  0  0
 21 24  1  0  0  0  0
 22 27  1  0  0  0  0
 28 12  1  6  0  0  0
 28 29  1  0  0  0  0
 28 33  1  0  0  0  0
 29 30  1  0  0  0  0
 29 36  1  6  0  0  0
 30 31  1  0  0  0  0
 30 37  1  1  0  0  0
 31 32  1  0  0  0  0
 31 34  1  1  0  0  0
 32 33  1  0  0  0  0
 33 35  1  6  0  0  0
M  END
>  <CHROM.1>
-151.42761284,-53.11123776,-175.75020093,-145.26732758,-166.57234794,128.78480094
19.97991065,-1.42763051,51.18875716,-1.57062923,0.11104735,-2.00941703

>  <Name>
2oe8_lig

>  <RI>
0

>  <Rbt.Current_Directory>
/home/itssahil/PROJECTS/Mol_Feturizer/New_Systems/rnas/2oe8

>  <Rbt.Executable>
rbdock ($Id: //depot/dev/client3/rdock/2013.1/src/exe/rbdock.cxx#4 $)

>  <Rbt.Library>
libRbt.so (2013.1, Build901 2013/11/27)

>  <Rbt.Parameter_File>
/export/apps/rDock/src/rDock_2013.1_src/data/scripts/dock_solv.prm

>  <Rbt.Receptor>
prm/pocket_docking_2.prm

>  <SCORE>
-16.3306

>  <SCORE.INTER>
-16.7726

>  <SCORE.INTER.CONST>
1

>  <SCORE.INTER.POLAR>
-1.76872

>  <SCORE.INTER.ROT>
6

>  <SCORE.INTER.SOLV>
18.0981

>  <SCORE.INTER.VDW>
-18.9187

>  <SCORE.INTER.norm>
-0.453315

>  <SCORE.INTRA>
0.403609

>  <SCORE.INTRA.DIHEDRAL>
-0.978039

>  <SCORE.INTRA.DIHEDRAL.0>
16.4056

>  <SCORE.INTRA.POLAR>
0

>  <SCORE.INTRA.POLAR.0>
0

>  <SCORE.INTRA.REPUL>
0

>  <SCORE.INTRA.REPUL.0>
0

>  <SCORE.INTRA.SOLV>
0.073913

>  <SCORE.INTRA.SOLV.lig_0>
-90.9627

>  <SCORE.INTRA.VDW>
0.855672

>  <SCORE.INTRA.VDW.0>
-3.28744

>  <SCORE.INTRA.norm>
0.0109083

>  <SCORE.RESTR>
0.0384396

>  <SCORE.RESTR.CAVITY>
0.0384396

>  <SCORE.RESTR.norm>
0.00103891

>  <SCORE.SYSTEM>
0

>  <SCORE.SYSTEM.CONST>
0

>  <SCORE.SYSTEM.DIHEDRAL>
0

>  <SCORE.SYSTEM.SOLV>
0

>  <SCORE.SYSTEM.norm>
0

>  <SCORE.heavy>
37

>  <SCORE.norm>
-0.441367

>  <RMSD>
0.801

$$$$
2oe8_lig
 OpenBabel11021811463D
libRbt.so/2013.1/901 2013/11/27
 37 40  0  0  0  0  0  0  0  0999 V2000
   20.3258    1.8021   53.2807 C   0  0  1  0  0  0  0  0  0  0  0  0
   19.3378    2.3220   52.1685 C   0  0  1  0  0  0  0  0  0  0  0  0
   18.6242    1.1193   51.5166 C   0  0  0  0  0  0  0  0  0  0  0  0
   19.7497    0.2280   50.9044 C   0  0  1  0  0  0  0  0  0  0  0  0
   20.7820   -0.2955   52.0296 C   0  0  1  0  0  0  0  0  0  0  0  0
   21.9191   -1.1699   51.4243 C   0  0  1  0  0  0  0  0  0  0  0  0
   21.2323   -2.3871   50.6803 C   0  0  1  0  0  0  0  0  0  0  0  0
   20.2080   -1.8279   49.6325 C   0  0  2  0  0  0  0  0  0  0  0  0
   23.1098   -2.7433   48.8789 C   0  0  0  0  0  0  0  0  0  0  0  0
   18.3221    3.2495   52.7603 N   0  0  0  0  0  0  0  0  0  0  0  0
   22.2707   -3.2825   50.0099 N   0  0  0  0  0  0  0  0  0  0  0  0
   19.6305    1.1082   54.3243 O   0  0  0  0  0  0  0  0  0  0  0  0
   21.3490    0.8735   52.7163 O   0  0  0  0  0  0  0  0  0  0  0  0
   19.1761   -0.9369   50.2402 O   0  0  0  0  0  0  0  0  0  0  0  0
   22.6616   -0.3358   50.5333 O   0  0  0  0  0  0  0  0  0  0  0  0
   19.5629   -2.8878   49.0264 O   0  0  0  0  0  0  0  0  0  0  0  0
   18.8844   -2.5225   47.8127 C   0  0  2  0  0  0  0  0  0  0  0  0
   17.8316   -3.5951   47.4426 C   0  0  1  0  0  0  0  0  0  0  0  0
   18.4965   -4.9567   47.0739 C   0  0  2  0  0  0  0  0  0  0  0  0
   19.4735   -4.7459   45.8797 C   0  0  1  0  0  0  0  0  0  0  0  0
   20.5658   -3.7005   46.3567 C   0  0  1  0  0  0  0  0  0  0  0  0
   21.5816   -3.3948   45.2597 C   0  0  0  0  0  0  0  0  0  0  0  0
   20.1104   -6.0464   45.5251 N   0  0  0  0  0  0  0  0  0  0  0  0
   19.8765   -2.4098   46.7120 O   0  0  0  0  0  0  0  0  0  0  0  0
   16.9357   -3.7186   48.5638 O   0  0  0  0  0  0  0  0  0  0  0  0
   17.4792   -5.8634   46.7032 O   0  0  0  0  0  0  0  0  0  0  0  0
   22.2644   -4.5710   44.9142 O   0  0  0  0  0  0  0  0  0  0  0  0
   20.4073    0.9097   55.4875 C   0  0  1  0  0  0  0  0  0  0  0  0
   19.7547    1.7207   56.6528 C   0  0  1  0  0  0  0  0  0  0  0  0
   20.6190    1.5362   57.9342 C   0  0  2  0  0  0  0  0  0  0  0  0
   20.7170    0.0289   58.3244 C   0  0  1  0  0  0  0  0  0  0  0  0
   21.3643   -0.7994   57.1497 C   0  0  0  0  0  0  0  0  0  0  0  0
   20.4780   -0.6138   55.8489 C   0  0  2  0  0  0  0  0  0  0  0  0
   21.5521   -0.1217   59.5481 N   0  0  0  0  0  0  0  0  0  0  0  0
   21.0904   -1.3976   54.7525 N   0  0  0  0  0  0  0  0  0  0  0  0
   19.7006    3.1204   56.3193 O   0  0  0  0  0  0  0  0  0  0  0  0
   20.0020    2.2751   58.9755 O   0  0  0  0  0  0  0  0  0  0  0  0
  1  2  1  0  0  0  0
  1 12  1  1  0  0  0
  1 13  1  0  0  0  0
  2  3  1  0  0  0  0
  2 10  1  1  0  0  0
  4  3  1  1  0  0  0
  4  5  1  0  0  0  0
  4 14  1  0  0  0  0
  5  6  1  0  0  0  0
  5 13  1  6  0  0  0
  6  7  1  0  0  0  0
  6 15  1  6  0  0  0
  7  8  1  0  0  0  0
  7 11  1  6  0  0  0
  8 14  1  0  0  0  0
  8 16  1  1  0  0  0
  9 11  1  0  0  0  0
 17 16  1  1  0  0  0
 17 18  1  0  0  0  0
 17 24  1  0  0  0  0
 18 19  1  0  0  0  0
 18 25  1  1  0  0  0
 19 20  1  0  0  0  0
 19 26  1  6  0  0  0
 20 21  1  0  0  0  0
 20 23  1  1  0  0  0
 21 22  1  6  0  0  0
 21 24  1  0  0  0  0
 22 27  1  0  0  0  0
 28 12  1  6  0  0  0
 28 29  1  0  0  0  0
 28 33  1  0  0  0  0
 29 30  1  0  0  0  0
 29 36  1  6  0  0  0
 30 31  1  0  0  0  0
 30 37  1  1  0  0  0
 31 32  1  0  0  0  0
 31 34  1  1  0  0  0
 32 33  1  0  0  0  0
 33 35  1  6  0  0  0
M  END
>  <CHROM.1>
-165.46666914,-64.78311791,-163.85749781,-161.60017291,-61.57128688,115.11877735
20.19838151,-1.19958353,51.40290515,1.51367358,-0.68689735,1.04365244

>  <Name>
2oe8_lig

>  <RI>
0

>  <Rbt.Current_Directory>
/home/itssahil/PROJECTS/Mol_Feturizer/New_Systems/rnas/2oe8

>  <Rbt.Executable>
rbdock ($Id: //depot/dev/client3/rdock/2013.1/src/exe/rbdock.cxx#4 $)

>  <Rbt.Library>
libRbt.so (2013.1, Build901 2013/11/27)

>  <Rbt.Parameter_File>
/export/apps/rDock/src/rDock_2013.1_src/data/scripts/dock_solv.prm

>  <Rbt.Receptor>
prm/pocket_docking_3.prm

>  <SCORE>
-18.0566

>  <SCORE.INTER>
-16.3146

>  <SCORE.INTER.CONST>
1

>  <SCORE.INTER.POLAR>
-1.71392

>  <SCORE.INTER.ROT>
6

>  <SCORE.INTER.SOLV>
18.8276

>  <SCORE.INTER.VDW>
-19.0392

>  <SCORE.INTER.norm>
-0.440936

>  <SCORE.INTRA>
-1.74196

>  <SCORE.INTRA.DIHEDRAL>
-5.50135

>  <SCORE.INTRA.DIHEDRAL.0>
16.4056

>  <SCORE.INTRA.POLAR>
0

>  <SCORE.INTRA.POLAR.0>
0

>  <SCORE.INTRA.REPUL>
0

>  <SCORE.INTRA.REPUL.0>
0

>  <SCORE.INTRA.SOLV>
1.29885

>  <SCORE.INTRA.SOLV.lig_0>
-90.9627

>  <SCORE.INTRA.VDW>
0.359291

>  <SCORE.INTRA.VDW.0>
-3.28744

>  <SCORE.INTRA.norm>
-0.0470799

>  <SCORE.RESTR>
0

>  <SCORE.RESTR.CAVITY>
0

>  <SCORE.RESTR.norm>
0

>  <SCORE.SYSTEM>
0

>  <SCORE.SYSTEM.CONST>
0

>  <SCORE.SYSTEM.DIHEDRAL>
0

>  <SCORE.SYSTEM.SOLV>
0

>  <SCORE.SYSTEM.norm>
0

>  <SCORE.heavy>
37

>  <SCORE.norm>
-0.488016

>  <RMSD>
0.805

$$$$
2oe8_lig
 OpenBabel11021811463D
libRbt.so/2013.1/901 2013/11/27
 37 40  0  0  0  0  0  0  0  0999 V2000
   20.2254    1.2082   53.2271 C   0  0  1  0  0  0  0  0  0  0  0  0
   19.1119    1.7175   52.2351 C   0  0  1  0  0  0  0  0  0  0  0  0
   18.6084    0.5347   51.3818 C   0  0  0  0  0  0  0  0  0  0  0  0
   19.8536   -0.0030   50.6096 C   0  0  1  0  0  0  0  0  0  0  0  0
   21.0120   -0.5096   51.6135 C   0  0  1  0  0  0  0  0  0  0  0  0
   22.2657   -1.0299   50.8511 C   0  0  1  0  0  0  0  0  0  0  0  0
   21.7874   -2.2054   49.9044 C   0  0  1  0  0  0  0  0  0  0  0  0
   20.6336   -1.6765   48.9831 C   0  0  2  0  0  0  0  0  0  0  0  0
   23.8342   -3.8302   49.6449 C   0  0  0  0  0  0  0  0  0  0  0  0
   17.9668    2.3147   52.9929 N   0  0  0  0  0  0  0  0  0  0  0  0
   22.9455   -2.7535   49.0750 N   0  0  0  0  0  0  0  0  0  0  0  0
   19.7163    0.2214   54.1333 O   0  0  0  0  0  0  0  0  0  0  0  0
   21.3792    0.6066   52.4961 O   0  0  0  0  0  0  0  0  0  0  0  0
   19.4801   -1.1205   49.7500 O   0  0  0  0  0  0  0  0  0  0  0  0
   22.8014    0.0744   50.1202 O   0  0  0  0  0  0  0  0  0  0  0  0
   20.1726   -2.7165   48.2001 O   0  0  0  0  0  0  0  0  0  0  0  0
   19.1351   -2.3240   47.2856 C   0  0  2  0  0  0  0  0  0  0  0  0
   17.8765   -3.2005   47.4935 C   0  0  1  0  0  0  0  0  0  0  0  0
   18.1366   -4.6889   47.1075 C   0  0  2  0  0  0  0  0  0  0  0  0
   18.5883   -4.7634   45.6191 C   0  0  1  0  0  0  0  0  0  0  0  0
   19.9206   -3.9127   45.4985 C   0  0  1  0  0  0  0  0  0  0  0  0
   20.4596   -3.8942   44.0709 C   0  0  0  0  0  0  0  0  0  0  0  0
   18.8374   -6.1855   45.2475 N   0  0  0  0  0  0  0  0  0  0  0  0
   19.6227   -2.4900   45.8916 O   0  0  0  0  0  0  0  0  0  0  0  0
   17.4828   -3.0618   48.8722 O   0  0  0  0  0  0  0  0  0  0  0  0
   16.9343   -5.4099   47.2775 O   0  0  0  0  0  0  0  0  0  0  0  0
   19.8916   -2.8186   43.3711 O   0  0  0  0  0  0  0  0  0  0  0  0
   20.1554    0.3952   55.4648 C   0  0  1  0  0  0  0  0  0  0  0  0
   18.9894    1.0396   56.2814 C   0  0  1  0  0  0  0  0  0  0  0  0
   19.4706    1.2659   57.7444 C   0  0  2  0  0  0  0  0  0  0  0  0
   19.8993   -0.0823   58.4017 C   0  0  1  0  0  0  0  0  0  0  0  0
   21.0681   -0.7455   57.5779 C   0  0  0  0  0  0  0  0  0  0  0  0
   20.5721   -0.9800   56.0909 C   0  0  2  0  0  0  0  0  0  0  0  0
   20.3600    0.1611   59.7968 N   0  0  0  0  0  0  0  0  0  0  0  0
   21.6737   -1.6062   55.3258 N   0  0  0  0  0  0  0  0  0  0  0  0
   18.6169    2.3064   55.7073 O   0  0  0  0  0  0  0  0  0  0  0  0
   18.3937    1.8438   58.4636 O   0  0  0  0  0  0  0  0  0  0  0  0
  1  2  1  0  0  0  0
  1 12  1  1  0  0  0
  1 13  1  0  0  0  0
  2  3  1  0  0  0  0
  2 10  1  1  0  0  0
  4  3  1  1  0  0  0
  4  5  1  0  0  0  0
  4 14  1  0  0  0  0
  5  6  1  0  0  0  0
  5 13  1  1  0  0  0
  6  7  1  0  0  0  0
  6 15  1  6  0  0  0
  7  8  1  0  0  0  0
  7 11  1  6  0  0  0
  8 14  1  0  0  0  0
  8 16  1  1  0  0  0
  9 11  1  0  0  0  0
 17 16  1  1  0  0  0
 17 18  1  0  0  0  0
 17 24  1  0  0  0  0
 18 19  1  0  0  0  0
 18 25  1  1  0  0  0
 19 20  1  0  0  0  0
 19 26  1  6  0  0  0
 20 21  1  0  0  0  0
 20 23  1  1  0  0  0
 21 22  1  6  0  0  0
 21 24  1  0  0  0  0
 22 27  1  0  0  0  0
 28 12  1  6  0  0  0
 28 29  1  0  0  0  0
 28 33  1  0  0  0  0
 29 30  1  0  0  0  0
 29 36  1  6  0  0  0
 30 31  1  0  0  0  0
 30 37  1  1  0  0  0
 31 32  1  0  0  0  0
 31 34  1  1  0  0  0
 32 33  1  0  0  0  0
 33 35  1  6  0  0  0
M  END
>  <CHROM.1>
-137.23894594,86.14417300,-178.20685864,-124.22239488,88.97537296,102.38458497
19.93440366,-1.30865097,51.13966943,-1.54288223,0.13447762,-1.97895959

>  <Name>
2oe8_lig

>  <RI>
0

>  <Rbt.Current_Directory>
/home/itssahil/PROJECTS/Mol_Feturizer/New_Systems/rnas/2oe8

>  <Rbt.Executable>
rbdock ($Id: //depot/dev/client3/rdock/2013.1/src/exe/rbdock.cxx#4 $)

>  <Rbt.Library>
libRbt.so (2013.1, Build901 2013/11/27)

>  <Rbt.Parameter_File>
/export/apps/rDock/src/rDock_2013.1_src/data/scripts/dock_solv.prm

>  <Rbt.Receptor>
prm/pocket_docking_2.prm

>  <SCORE>
-19.1674

>  <SCORE.INTER>
-22.4381

>  <SCORE.INTER.CONST>
1

>  <SCORE.INTER.POLAR>
-2.60146

>  <SCORE.INTER.ROT>
6

>  <SCORE.INTER.SOLV>
18.7282

>  <SCORE.INTER.VDW>
-20.1299

>  <SCORE.INTER.norm>
-0.606434

>  <SCORE.INTRA>
2.69938

>  <SCORE.INTRA.DIHEDRAL>
5.31861

>  <SCORE.INTRA.DIHEDRAL.0>
16.4056

>  <SCORE.INTRA.POLAR>
0

>  <SCORE.INTRA.POLAR.0>
0

>  <SCORE.INTRA.REPUL>
0

>  <SCORE.INTRA.REPUL.0>
0

>  <SCORE.INTRA.SOLV>
-0.318152

>  <SCORE.INTRA.SOLV.lig_0>
-90.9627

>  <SCORE.INTRA.VDW>
0.199154

>  <SCORE.INTRA.VDW.0>
-3.28744

>  <SCORE.INTRA.norm>
0.0729563

>  <SCORE.RESTR>
0.571302

>  <SCORE.RESTR.CAVITY>
0.571302

>  <SCORE.RESTR.norm>
0.0154406

>  <SCORE.SYSTEM>
0

>  <SCORE.SYSTEM.CONST>
0

>  <SCORE.SYSTEM.DIHEDRAL>
0

>  <SCORE.SYSTEM.SOLV>
0

>  <SCORE.SYSTEM.norm>
0

>  <SCORE.heavy>
37

>  <SCORE.norm>
-0.518037

>  <RMSD>
0.816

$$$$
2oe8_lig
 OpenBabel11021811463D
libRbt.so/2013.1/901 2013/11/27
 37 40  0  0  0  0  0  0  0  0999 V2000
   20.3443    1.8401   53.1563 C   0  0  1  0  0  0  0  0  0  0  0  0
   19.1978    2.2408   52.1521 C   0  0  1  0  0  0  0  0  0  0  0  0
   18.6611    0.9720   51.4573 C   0  0  0  0  0  0  0  0  0  0  0  0
   19.8766    0.3414   50.7086 C   0  0  1  0  0  0  0  0  0  0  0  0
   21.0683   -0.0555   51.7226 C   0  0  1  0  0  0  0  0  0  0  0  0
   22.2928   -0.6679   50.9813 C   0  0  1  0  0  0  0  0  0  0  0  0
   21.7779   -1.9402   50.1920 C   0  0  1  0  0  0  0  0  0  0  0  0
   20.5937   -1.5117   49.2572 C   0  0  2  0  0  0  0  0  0  0  0  0
   23.8339   -3.5686   50.0587 C   0  0  0  0  0  0  0  0  0  0  0  0
   18.0820    2.9283   52.8764 N   0  0  0  0  0  0  0  0  0  0  0  0
   22.9043   -2.5870   49.3907 N   0  0  0  0  0  0  0  0  0  0  0  0
   19.8648    0.9665   54.1863 O   0  0  0  0  0  0  0  0  0  0  0  0
   21.4698    1.1513   52.4588 O   0  0  0  0  0  0  0  0  0  0  0  0
   19.4697   -0.8640   49.9955 O   0  0  0  0  0  0  0  0  0  0  0  0
   22.8054    0.3424   50.1110 O   0  0  0  0  0  0  0  0  0  0  0  0
   20.1023   -2.6308   48.6145 O   0  0  0  0  0  0  0  0  0  0  0  0
   19.2346   -2.3188   47.5115 C   0  0  2  0  0  0  0  0  0  0  0  0
   18.0469   -3.3102   47.4659 C   0  0  1  0  0  0  0  0  0  0  0  0
   18.5157   -4.7616   47.1407 C   0  0  2  0  0  0  0  0  0  0  0  0
   19.2582   -4.7683   45.7719 C   0  0  1  0  0  0  0  0  0  0  0  0
   20.5029   -3.7974   45.9178 C   0  0  1  0  0  0  0  0  0  0  0  0
   21.3098   -3.7045   44.6259 C   0  0  0  0  0  0  0  0  0  0  0  0
   19.7073   -6.1549   45.4586 N   0  0  0  0  0  0  0  0  0  0  0  0
   20.0019   -2.4150   46.2425 O   0  0  0  0  0  0  0  0  0  0  0  0
   17.3767   -3.2325   48.7386 O   0  0  0  0  0  0  0  0  0  0  0  0
   17.3760   -5.5925   47.0689 O   0  0  0  0  0  0  0  0  0  0  0  0
   20.4895   -3.2179   43.5966 O   0  0  0  0  0  0  0  0  0  0  0  0
   20.7122    0.9030   55.3149 C   0  0  1  0  0  0  0  0  0  0  0  0
   20.1541    1.8813   56.3980 C   0  0  1  0  0  0  0  0  0  0  0  0
   21.0967    1.8450   57.6362 C   0  0  2  0  0  0  0  0  0  0  0  0
   21.1896    0.4013   58.2200 C   0  0  1  0  0  0  0  0  0  0  0  0
   21.7413   -0.5952   57.1304 C   0  0  0  0  0  0  0  0  0  0  0  0
   20.7755   -0.5599   55.8742 C   0  0  2  0  0  0  0  0  0  0  0  0
   22.1000    0.3918   59.3985 N   0  0  0  0  0  0  0  0  0  0  0  0
   21.2985   -1.5007   54.8581 N   0  0  0  0  0  0  0  0  0  0  0  0
   20.1067    3.2247   55.8820 O   0  0  0  0  0  0  0  0  0  0  0  0
   20.5646    2.7342   58.6042 O   0  0  0  0  0  0  0  0  0  0  0  0
  1  2  1  0  0  0  0
  1 12  1  1  0  0  0
  1 13  1  0  0  0  0
  2  3  1  0  0  0  0
  2 10  1  1  0  0  0
  4  3  1  1  0  0  0
  4  5  1  0  0  0  0
  4 14  1  0  0  0  0
  5  6  1  0  0  0  0
  5 13  1  6  0  0  0
  6  7  1  0  0  0  0
  6 15  1  6  0  0  0
  7  8  1  0  0  0  0
  7 11  1  6  0  0  0
  8 14  1  0  0  0  0
  8 16  1  1  0  0  0
  9 11  1  0  0  0  0
 17 16  1  1  0  0  0
 17 18  1  0  0  0  0
 17 24  1  0  0  0  0
 18 19  1  0  0  0  0
 18 25  1  1  0  0  0
 19 20  1  0  0  0  0
 19 26  1  6  0  0  0
 20 21  1  0  0  0  0
 20 23  1  1  0  0  0
 21 22  1  6  0  0  0
 21 24  1  0  0  0  0
 22 27  1  0  0  0  0
 28 12  1  6  0  0  0
 28 29  1  0  0  0  0
 28 33  1  0  0  0  0
 29 30  1  0  0  0  0
 29 36  1  6  0  0  0
 30 31  1  0  0  0  0
 30 37  1  1  0  0  0
 31 32  1  0  0  0  0
 31 34  1  1  0  0  0
 32 33  1  0  0  0  0
 33 35  1  6  0  0  0
M  END
>  <CHROM.1>
-161.80565917,84.41202043,-166.28067347,-140.91528537,59.87297023,97.33193330
20.36873913,-1.02046962,51.20642752,1.45436023,-0.69377954,1.02036097

>  <Name>
2oe8_lig

>  <RI>
0

>  <Rbt.Current_Directory>
/home/itssahil/PROJECTS/Mol_Feturizer/New_Systems/rnas/2oe8

>  <Rbt.Executable>
rbdock ($Id: //depot/dev/client3/rdock/2013.1/src/exe/rbdock.cxx#4 $)

>  <Rbt.Library>
libRbt.so (2013.1, Build901 2013/11/27)

>  <Rbt.Parameter_File>
/export/apps/rDock/src/rDock_2013.1_src/data/scripts/dock_solv.prm

>  <Rbt.Receptor>
prm/pocket_docking_3.prm

>  <SCORE>
-19.7927

>  <SCORE.INTER>
-17.5392

>  <SCORE.INTER.CONST>
1

>  <SCORE.INTER.POLAR>
-1.93791

>  <SCORE.INTER.ROT>
6

>  <SCORE.INTER.SOLV>
18.9141

>  <SCORE.INTER.VDW>
-19.1378

>  <SCORE.INTER.norm>
-0.474033

>  <SCORE.INTRA>
-2.25353

>  <SCORE.INTRA.DIHEDRAL>
-3.33356

>  <SCORE.INTRA.DIHEDRAL.0>
16.4056

>  <SCORE.INTRA.POLAR>
0

>  <SCORE.INTRA.POLAR.0>
0

>  <SCORE.INTRA.REPUL>
0

>  <SCORE.INTRA.REPUL.0>
0

>  <SCORE.INTRA.SOLV>
-0.647612

>  <SCORE.INTRA.SOLV.lig_0>
-90.9627

>  <SCORE.INTRA.VDW>
-0.262943

>  <SCORE.INTRA.VDW.0>
-3.28744

>  <SCORE.INTRA.norm>
-0.0609061

>  <SCORE.RESTR>
0

>  <SCORE.RESTR.CAVITY>
0

>  <SCORE.RESTR.norm>
0

>  <SCORE.SYSTEM>
0

>  <SCORE.SYSTEM.CONST>
0

>  <SCORE.SYSTEM.DIHEDRAL>
0

>  <SCORE.SYSTEM.SOLV>
0

>  <SCORE.SYSTEM.norm>
0

>  <SCORE.heavy>
37

>  <SCORE.norm>
-0.534939

>  <RMSD>
0.820

$$$$
2oe8_lig
 OpenBabel11021811463D
libRbt.so/2013.1/901 2013/11/27
 37 40  0  0  0  0  0  0  0  0999 V2000
   20.1375    1.2798   53.2892 C   0  0  1  0  0  0  0  0  0  0  0  0
   19.0352    1.7625   52.2717 C   0  0  1  0  0  0  0  0  0  0  0  0
   18.5546    0.5609   51.4316 C   0  0  0  0  0  0  0  0  0  0  0  0
   19.8159    0.0206   50.6878 C   0  0  1  0  0  0  0  0  0  0  0  0
   20.9628   -0.4587   51.7178 C   0  0  1  0  0  0  0  0  0  0  0  0
   22.2323   -0.9815   50.9837 C   0  0  1  0  0  0  0  0  0  0  0  0
   21.7782   -2.1771   50.0503 C   0  0  1  0  0  0  0  0  0  0  0  0
   20.6344   -1.6739   49.1026 C   0  0  2  0  0  0  0  0  0  0  0  0
   23.2012   -4.2163   49.2057 C   0  0  0  0  0  0  0  0  0  0  0  0
   17.8738    2.3630   53.0016 N   0  0  0  0  0  0  0  0  0  0  0  0
   22.9534   -2.7295   49.2483 N   0  0  0  0  0  0  0  0  0  0  0  0
   19.6227    0.3045   54.2045 O   0  0  0  0  0  0  0  0  0  0  0  0
   21.3073    0.6755   52.5863 O   0  0  0  0  0  0  0  0  0  0  0  0
   19.4648   -1.1146   49.8421 O   0  0  0  0  0  0  0  0  0  0  0  0
   22.7700    0.1146   50.2419 O   0  0  0  0  0  0  0  0  0  0  0  0
   20.1940   -2.7311   48.3309 O   0  0  0  0  0  0  0  0  0  0  0  0
   19.2190   -2.3495   47.3457 C   0  0  2  0  0  0  0  0  0  0  0  0
   17.9533   -3.2311   47.4737 C   0  0  1  0  0  0  0  0  0  0  0  0
   18.2459   -4.7205   47.1157 C   0  0  2  0  0  0  0  0  0  0  0  0
   18.7976   -4.8016   45.6617 C   0  0  1  0  0  0  0  0  0  0  0  0
   20.1310   -3.9450   45.6261 C   0  0  1  0  0  0  0  0  0  0  0  0
   20.7652   -3.9323   44.2381 C   0  0  0  0  0  0  0  0  0  0  0  0
   19.0779   -6.2247   45.3169 N   0  0  0  0  0  0  0  0  0  0  0  0
   19.8005   -2.5214   45.9890 O   0  0  0  0  0  0  0  0  0  0  0  0
   17.4665   -3.0861   48.8216 O   0  0  0  0  0  0  0  0  0  0  0  0
   17.0382   -5.4466   47.2086 O   0  0  0  0  0  0  0  0  0  0  0  0
   19.8162   -3.5098   43.2947 O   0  0  0  0  0  0  0  0  0  0  0  0
   20.0087    0.5268   55.5452 C   0  0  1  0  0  0  0  0  0  0  0  0
   18.8057    1.1839   56.2954 C   0  0  1  0  0  0  0  0  0  0  0  0
   19.2282    1.4636   57.7672 C   0  0  2  0  0  0  0  0  0  0  0  0
   19.6455    0.1427   58.4846 C   0  0  1  0  0  0  0  0  0  0  0  0
   20.8518   -0.5334   57.7281 C   0  0  0  0  0  0  0  0  0  0  0  0
   20.4155   -0.8221   56.2319 C   0  0  2  0  0  0  0  0  0  0  0  0
   20.0500    0.4370   59.8873 N   0  0  0  0  0  0  0  0  0  0  0  0
   21.5521   -1.4601   55.5302 N   0  0  0  0  0  0  0  0  0  0  0  0
   18.4422    2.4268   55.6659 O   0  0  0  0  0  0  0  0  0  0  0  0
   18.1186    2.0520   58.4256 O   0  0  0  0  0  0  0  0  0  0  0  0
  1  2  1  0  0  0  0
  1 12  1  1  0  0  0
  1 13  1  0  0  0  0
  2  3  1  0  0  0  0
  2 10  1  1  0  0  0
  4  3  1  1  0  0  0
  4  5  1  0  0  0  0
  4 14  1  0  0  0  0
  5  6  1  0  0  0  0
  5 13  1  1  0  0  0
  6  7  1  0  0  0  0
  6 15  1  6  0  0  0
  7  8  1  0  0  0  0
  7 11  1  6  0  0  0
  8 14  1  0  0  0  0
  8 16  1  1  0  0  0
  9 11  1  0  0  0  0
 17 16  1  1  0  0  0
 17 18  1  0  0  0  0
 17 24  1  0  0  0  0
 18 19  1  0  0  0  0
 18 25  1  1  0  0  0
 19 20  1  0  0  0  0
 19 26  1  6  0  0  0
 20 21  1  0  0  0  0
 20 23  1  1  0  0  0
 21 22  1  6  0  0  0
 21 24  1  0  0  0  0
 22 27  1  0  0  0  0
 28 12  1  6  0  0  0
 28 29  1  0  0  0  0
 28 33  1  0  0  0  0
 29 30  1  0  0  0  0
 29 36  1  6  0  0  0
 30 31  1  0  0  0  0
 30 37  1  1  0  0  0
 31 32  1  0  0  0  0
 31 34  1  1  0  0  0
 32 33  1  0  0  0  0
 33 35  1  6  0  0  0
M  END
>  <CHROM.1>
-135.53108133,131.31956625,-175.08683393,-126.57962101,53.85617446,101.40218849
19.88151022,-1.28645043,51.19225962,-1.57125603,0.16454166,-1.99926594

>  <Name>
2oe8_lig

>  <RI>
0

>  <Rbt.Current_Directory>
/home/itssahil/PROJECTS/Mol_Feturizer/New_Systems/rnas/2oe8

>  <Rbt.Executable>
rbdock ($Id: //depot/dev/client3/rdock/2013.1/src/exe/rbdock.cxx#4 $)

>  <Rbt.Library>
libRbt.so (2013.1, Build901 2013/11/27)

>  <Rbt.Parameter_File>
/export/apps/rDock/src/rDock_2013.1_src/data/scripts/dock_solv.prm

>  <Rbt.Receptor>
prm/pocket_docking_2.prm

>  <SCORE>
-16.6536

>  <SCORE.INTER>
-18.1597

>  <SCORE.INTER.CONST>
1

>  <SCORE.INTER.POLAR>
-1.76788

>  <SCORE.INTER.ROT>
6

>  <SCORE.INTER.SOLV>
17.5797

>  <SCORE.INTER.VDW>
-19.6734

>  <SCORE.INTER.norm>
-0.490802

>  <SCORE.INTRA>
1.50609

>  <SCORE.INTRA.DIHEDRAL>
3.64682

>  <SCORE.INTRA.DIHEDRAL.0>
16.4056

>  <SCORE.INTRA.POLAR>
0

>  <SCORE.INTRA.POLAR.0>
0

>  <SCORE.INTRA.REPUL>
0

>  <SCORE.INTRA.REPUL.0>
0

>  <SCORE.INTRA.SOLV>
0.00319307

>  <SCORE.INTRA.SOLV.lig_0>
-90.9627

>  <SCORE.INTRA.VDW>
-0.318915

>  <SCORE.INTRA.VDW.0>
-3.28744

>  <SCORE.INTRA.norm>
0.0407051

>  <SCORE.RESTR>
0

>  <SCORE.RESTR.CAVITY>
0

>  <SCORE.RESTR.norm>
0

>  <SCORE.SYSTEM>
0

>  <SCORE.SYSTEM.CONST>
0

>  <SCORE.SYSTEM.DIHEDRAL>
0

>  <SCORE.SYSTEM.SOLV>
0

>  <SCORE.SYSTEM.norm>
0

>  <SCORE.heavy>
37

>  <SCORE.norm>
-0.450097

>  <RMSD>
0.821

$$$$
2oe8_lig
 OpenBabel11021811463D
libRbt.so/2013.1/901 2013/11/27
 37 40  0  0  0  0  0  0  0  0999 V2000
   20.1661    1.5903   53.4009 C   0  0  1  0  0  0  0  0  0  0  0  0
   19.2969    2.1845   52.2283 C   0  0  1  0  0  0  0  0  0  0  0  0
   18.5860    1.0337   51.4860 C   0  0  0  0  0  0  0  0  0  0  0  0
   19.7168    0.1064   50.9407 C   0  0  1  0  0  0  0  0  0  0  0  0
   20.6290   -0.4937   52.1297 C   0  0  1  0  0  0  0  0  0  0  0  0
   21.7715   -1.4048   51.5928 C   0  0  1  0  0  0  0  0  0  0  0  0
   21.0942   -2.5689   50.7604 C   0  0  1  0  0  0  0  0  0  0  0  0
   20.1853   -1.9355   49.6502 C   0  0  2  0  0  0  0  0  0  0  0  0
   23.0632   -2.9801   49.0722 C   0  0  0  0  0  0  0  0  0  0  0  0
   18.2787    3.1433   52.7632 N   0  0  0  0  0  0  0  0  0  0  0  0
   22.1429   -3.4947   50.1501 N   0  0  0  0  0  0  0  0  0  0  0  0
   19.3573    0.9035   54.3642 O   0  0  0  0  0  0  0  0  0  0  0  0
   21.1895    0.6294   52.8939 O   0  0  0  0  0  0  0  0  0  0  0  0
   19.1480   -1.0128   50.1985 O   0  0  0  0  0  0  0  0  0  0  0  0
   22.6211   -0.5840   50.7895 O   0  0  0  0  0  0  0  0  0  0  0  0
   19.5452   -2.9481   48.9632 O   0  0  0  0  0  0  0  0  0  0  0  0
   18.8857   -2.4967   47.7680 C   0  0  2  0  0  0  0  0  0  0  0  0
   17.7882   -3.5038   47.3477 C   0  0  1  0  0  0  0  0  0  0  0  0
   18.3941   -4.8741   46.9150 C   0  0  2  0  0  0  0  0  0  0  0  0
   19.3819   -4.6498   45.7322 C   0  0  1  0  0  0  0  0  0  0  0  0
   20.5175   -3.6767   46.2582 C   0  0  1  0  0  0  0  0  0  0  0  0
   21.5480   -3.3639   45.1769 C   0  0  0  0  0  0  0  0  0  0  0  0
   19.9624   -5.9586   45.3166 N   0  0  0  0  0  0  0  0  0  0  0  0
   19.8841   -2.3754   46.6740 O   0  0  0  0  0  0  0  0  0  0  0  0
   16.8854   -3.6411   48.4617 O   0  0  0  0  0  0  0  0  0  0  0  0
   17.3392   -5.7172   46.5018 O   0  0  0  0  0  0  0  0  0  0  0  0
   22.2143   -4.5435   44.8113 O   0  0  0  0  0  0  0  0  0  0  0  0
   19.9289    0.8596   55.6554 C   0  0  1  0  0  0  0  0  0  0  0  0
   18.8418    1.3081   56.6844 C   0  0  1  0  0  0  0  0  0  0  0  0
   19.4680    1.2947   58.1094 C   0  0  2  0  0  0  0  0  0  0  0  0
   19.9890   -0.1302   58.4725 C   0  0  1  0  0  0  0  0  0  0  0  0
   21.0786   -0.5959   57.4329 C   0  0  0  0  0  0  0  0  0  0  0  0
   20.4352   -0.5868   55.9844 C   0  0  2  0  0  0  0  0  0  0  0  0
   20.5875   -0.1157   59.8361 N   0  0  0  0  0  0  0  0  0  0  0  0
   21.4634   -1.0288   55.0155 N   0  0  0  0  0  0  0  0  0  0  0  0
   18.3869    2.6405   56.3828 O   0  0  0  0  0  0  0  0  0  0  0  0
   18.4606    1.6980   59.0223 O   0  0  0  0  0  0  0  0  0  0  0  0
  1  2  1  0  0  0  0
  1 12  1  1  0  0  0
  1 13  1  0  0  0  0
  2  3  1  0  0  0  0
  2 10  1  1  0  0  0
  4  3  1  1  0  0  0
  4  5  1  0  0  0  0
  4 14  1  0  0  0  0
  5  6  1  0  0  0  0
  5 13  1  6  0  0  0
  6  7  1  0  0  0  0
  6 15  1  6  0  0  0
  7  8  1  0  0  0  0
  7 11  1  6  0  0  0
  8 14  1  0  0  0  0
  8 16  1  1  0  0  0
  9 11  1  0  0  0  0
 17 16  1  1  0  0  0
 17 18  1  0  0  0  0
 17 24  1  0  0  0  0
 18 19  1  0  0  0  0
 18 25  1  1  0  0  0
 19 20  1  0  0  0  0
 19 26  1  6  0  0  0
 20 21  1  0  0  0  0
 20 23  1  1  0  0  0
 21 22  1  6  0  0  0
 21 24  1  0  0  0  0
 22 27  1  0  0  0  0
 28 12  1  6  0  0  0
 28 29  1  0  0  0  0
 28 33  1  0  0  0  0
 29 30  1  0  0  0  0
 29 36  1  6  0  0  0
 30 31  1  0  0  0  0
 30 37  1  1  0  0  0
 31 32  1  0  0  0  0
 31 34  1  1  0  0  0
 32 33  1  0  0  0  0
 33 35  1  6  0  0  0
M  END
>  <CHROM.1>
-154.25850013,-66.92677675,-168.97370836,-158.91274409,-63.72757157,131.14958605
19.94657262,-1.28994823,51.44430680,1.58722662,-0.42253855,1.11855715

>  <Name>
2oe8_lig

>  <RI>
0

>  <Rbt.Current_Directory>
/home/itssahil/PROJECTS/Mol_Feturizer/New_Systems/rnas/2oe8

>  <Rbt.Executable>
rbdock ($Id: //depot/dev/client3/rdock/2013.1/src/exe/rbdock.cxx#4 $)

>  <Rbt.Library>
libRbt.so (2013.1, Build901 2013/11/27)

>  <Rbt.Parameter_File>
/export/apps/rDock/src/rDock_2013.1_src/data/scripts/dock_solv.prm

>  <Rbt.Receptor>
prm/pocket_docking_2.prm

>  <SCORE>
-18.2715

>  <SCORE.INTER>
-17.1999

>  <SCORE.INTER.CONST>
1

>  <SCORE.INTER.POLAR>
-1.62844

>  <SCORE.INTER.ROT>
6

>  <SCORE.INTER.SOLV>
17.7279

>  <SCORE.INTER.VDW>
-19.5478

>  <SCORE.INTER.norm>
-0.464863

>  <SCORE.INTRA>
-1.08143

>  <SCORE.INTRA.DIHEDRAL>
-4.30815

>  <SCORE.INTRA.DIHEDRAL.0>
16.4056

>  <SCORE.INTRA.POLAR>
0

>  <SCORE.INTRA.POLAR.0>
0

>  <SCORE.INTRA.REPUL>
0

>  <SCORE.INTRA.REPUL.0>
0

>  <SCORE.INTRA.SOLV>
1.30829

>  <SCORE.INTRA.SOLV.lig_0>
-90.9627

>  <SCORE.INTRA.VDW>
0.418496

>  <SCORE.INTRA.VDW.0>
-3.28744

>  <SCORE.INTRA.norm>
-0.0292279

>  <SCORE.RESTR>
0.00992755

>  <SCORE.RESTR.CAVITY>
0.00992755

>  <SCORE.RESTR.norm>
0.000268312

>  <SCORE.SYSTEM>
0

>  <SCORE.SYSTEM.CONST>
0

>  <SCORE.SYSTEM.DIHEDRAL>
0

>  <SCORE.SYSTEM.SOLV>
0

>  <SCORE.SYSTEM.norm>
0

>  <SCORE.heavy>
37

>  <SCORE.norm>
-0.493823

>  <RMSD>
0.829

$$$$
2oe8_lig
 OpenBabel11021811463D
libRbt.so/2013.1/901 2013/11/27
 37 40  0  0  0  0  0  0  0  0999 V2000
   20.1673    1.5570   53.3140 C   0  0  1  0  0  0  0  0  0  0  0  0
   19.3216    2.1470   52.1223 C   0  0  1  0  0  0  0  0  0  0  0  0
   18.6561    0.9908   51.3470 C   0  0  0  0  0  0  0  0  0  0  0  0
   19.8208    0.0920   50.8260 C   0  0  1  0  0  0  0  0  0  0  0  0
   20.7091   -0.5033   52.0355 C   0  0  1  0  0  0  0  0  0  0  0  0
   21.8851   -1.3858   51.5234 C   0  0  1  0  0  0  0  0  0  0  0  0
   21.2561   -2.5537   50.6589 C   0  0  1  0  0  0  0  0  0  0  0  0
   20.3681   -1.9260   49.5288 C   0  0  2  0  0  0  0  0  0  0  0  0
   23.3307   -2.8866   49.0836 C   0  0  0  0  0  0  0  0  0  0  0  0
   18.2690    3.0796   52.6365 N   0  0  0  0  0  0  0  0  0  0  0  0
   22.3407   -3.4519   50.0706 N   0  0  0  0  0  0  0  0  0  0  0  0
   19.3441    0.8438   54.2455 O   0  0  0  0  0  0  0  0  0  0  0  0
   21.2242    0.6221   52.8278 O   0  0  0  0  0  0  0  0  0  0  0  0
   19.2968   -1.0300   50.0555 O   0  0  0  0  0  0  0  0  0  0  0  0
   22.7416   -0.5396   50.7545 O   0  0  0  0  0  0  0  0  0  0  0  0
   19.7690   -2.9433   48.8123 O   0  0  0  0  0  0  0  0  0  0  0  0
   19.1031   -2.4862   47.6229 C   0  0  2  0  0  0  0  0  0  0  0  0
   17.8936   -3.3969   47.3014 C   0  0  1  0  0  0  0  0  0  0  0  0
   18.3411   -4.8406   46.9174 C   0  0  2  0  0  0  0  0  0  0  0  0
   19.2909   -4.7745   45.6851 C   0  0  1  0  0  0  0  0  0  0  0  0
   20.5398   -3.8964   46.1122 C   0  0  1  0  0  0  0  0  0  0  0  0
   21.5455   -3.7418   44.9748 C   0  0  0  0  0  0  0  0  0  0  0  0
   19.7200   -6.1537   45.3159 N   0  0  0  0  0  0  0  0  0  0  0  0
   20.0575   -2.5193   46.4842 O   0  0  0  0  0  0  0  0  0  0  0  0
   17.0337   -3.3883   48.4570 O   0  0  0  0  0  0  0  0  0  0  0  0
   17.1905   -5.5922   46.5926 O   0  0  0  0  0  0  0  0  0  0  0  0
   20.8699   -3.3771   43.8002 O   0  0  0  0  0  0  0  0  0  0  0  0
   19.7755    0.9584   55.5858 C   0  0  1  0  0  0  0  0  0  0  0  0
   18.5386    1.3309   56.4650 C   0  0  1  0  0  0  0  0  0  0  0  0
   19.0059    1.4913   57.9411 C   0  0  2  0  0  0  0  0  0  0  0  0
   19.6529    0.1718   58.4643 C   0  0  1  0  0  0  0  0  0  0  0  0
   20.8955   -0.2181   57.5761 C   0  0  0  0  0  0  0  0  0  0  0  0
   20.4143   -0.3866   56.0754 C   0  0  2  0  0  0  0  0  0  0  0  0
   20.0961    0.3523   59.8745 N   0  0  0  0  0  0  0  0  0  0  0  0
   21.5858   -0.7562   55.2495 N   0  0  0  0  0  0  0  0  0  0  0  0
   17.9615    2.5714   56.0167 O   0  0  0  0  0  0  0  0  0  0  0  0
   17.8656    1.8217   58.7166 O   0  0  0  0  0  0  0  0  0  0  0  0
  1  2  1  0  0  0  0
  1 12  1  1  0  0  0
  1 13  1  0  0  0  0
  2  3  1  0  0  0  0
  2 10  1  1  0  0  0
  4  3  1  1  0  0  0
  4  5  1  0  0  0  0
  4 14  1  0  0  0  0
  5  6  1  0  0  0  0
  5 13  1  6  0  0  0
  6  7  1  0  0  0  0
  6 15  1  6  0  0  0
  7  8  1  0  0  0  0
  7 11  1  6  0  0  0
  8 14  1  0  0  0  0
  8 16  1  1  0  0  0
  9 11  1  0  0  0  0
 17 16  1  1  0  0  0
 17 18  1  0  0  0  0
 17 24  1  0  0  0  0
 18 19  1  0  0  0  0
 18 25  1  1  0  0  0
 19 20  1  0  0  0  0
 19 26  1  6  0  0  0
 20 21  1  0  0  0  0
 20 23  1  1  0  0  0
 21 22  1  6  0  0  0
 21 24  1  0  0  0  0
 22 27  1  0  0  0  0
 28 12  1  6  0  0  0
 28 29  1  0  0  0  0
 28 33  1  0  0  0  0
 29 30  1  0  0  0  0
 29 36  1  6  0  0  0
 30 31  1  0  0  0  0
 30 37  1  1  0  0  0
 31 32  1  0  0  0  0
 31 34  1  1  0  0  0
 32 33  1  0  0  0  0
 33 35  1  6  0  0  0
M  END
>  <CHROM.1>
-145.65801799,-63.50414473,-170.67685588,-149.60220367,47.96334434,131.50344876
19.87859678,-1.21679658,51.33490570,-1.59916412,0.22491908,-2.01969872

>  <Name>
2oe8_lig

>  <RI>
0

>  <Rbt.Current_Directory>
/home/itssahil/PROJECTS/Mol_Feturizer/New_Systems/rnas/2oe8

>  <Rbt.Executable>
rbdock ($Id: //depot/dev/client3/rdock/2013.1/src/exe/rbdock.cxx#4 $)

>  <Rbt.Library>
libRbt.so (2013.1, Build901 2013/11/27)

>  <Rbt.Parameter_File>
/export/apps/rDock/src/rDock_2013.1_src/data/scripts/dock_solv.prm

>  <Rbt.Receptor>
prm/pocket_docking_2.prm

>  <SCORE>
-16.9011

>  <SCORE.INTER>
-17.5042

>  <SCORE.INTER.CONST>
1

>  <SCORE.INTER.POLAR>
-1.70861

>  <SCORE.INTER.ROT>
6

>  <SCORE.INTER.SOLV>
15.4404

>  <SCORE.INTER.VDW>
-18.7209

>  <SCORE.INTER.norm>
-0.473086

>  <SCORE.INTRA>
0.599408

>  <SCORE.INTRA.DIHEDRAL>
-0.788164

>  <SCORE.INTRA.DIHEDRAL.0>
16.4056

>  <SCORE.INTRA.POLAR>
0

>  <SCORE.INTRA.POLAR.0>
0

>  <SCORE.INTRA.REPUL>
0

>  <SCORE.INTRA.REPUL.0>
0

>  <SCORE.INTRA.SOLV>
0.853736

>  <SCORE.INTRA.SOLV.lig_0>
-90.9627

>  <SCORE.INTRA.VDW>
0.566622

>  <SCORE.INTRA.VDW.0>
-3.28744

>  <SCORE.INTRA.norm>
0.0162002

>  <SCORE.RESTR>
0.00372412

>  <SCORE.RESTR.CAVITY>
0.00372412

>  <SCORE.RESTR.norm>
0.000100652

>  <SCORE.SYSTEM>
0

>  <SCORE.SYSTEM.CONST>
0

>  <SCORE.SYSTEM.DIHEDRAL>
0

>  <SCORE.SYSTEM.SOLV>
0

>  <SCORE.SYSTEM.norm>
0

>  <SCORE.heavy>
37

>  <SCORE.norm>
-0.456786

>  <RMSD>
0.859

$$$$
2oe8_lig
 OpenBabel11021811463D
libRbt.so/2013.1/901 2013/11/27
 37 40  0  0  0  0  0  0  0  0999 V2000
   20.6376    1.2776   52.9864 C   0  0  1  0  0  0  0  0  0  0  0  0
   19.5474    1.8534   52.0049 C   0  0  1  0  0  0  0  0  0  0  0  0
   18.8446    0.6861   51.2809 C   0  0  0  0  0  0  0  0  0  0  0  0
   19.9622   -0.0768   50.5033 C   0  0  1  0  0  0  0  0  0  0  0  0
   21.0978   -0.6550   51.4944 C   0  0  1  0  0  0  0  0  0  0  0  0
   22.2267   -1.4012   50.7246 C   0  0  1  0  0  0  0  0  0  0  0  0
   21.5445   -2.5721   49.9059 C   0  0  1  0  0  0  0  0  0  0  0  0
   20.4210   -1.9658   48.9948 C   0  0  2  0  0  0  0  0  0  0  0  0
   22.3550   -4.7996   48.7754 C   0  0  0  0  0  0  0  0  0  0  0  0
   18.5359    2.6603   52.7586 N   0  0  0  0  0  0  0  0  0  0  0  0
   22.5714   -3.3379   49.0761 N   0  0  0  0  0  0  0  0  0  0  0  0
   20.0539    0.4454   53.9967 O   0  0  0  0  0  0  0  0  0  0  0  0
   21.6586    0.4674   52.2594 O   0  0  0  0  0  0  0  0  0  0  0  0
   19.3963   -1.1977   49.7615 O   0  0  0  0  0  0  0  0  0  0  0  0
   22.8621   -0.4425   49.8772 O   0  0  0  0  0  0  0  0  0  0  0  0
   19.7831   -2.9922   48.3265 O   0  0  0  0  0  0  0  0  0  0  0  0
   18.8767   -2.5327   47.3096 C   0  0  2  0  0  0  0  0  0  0  0  0
   17.6524   -3.4750   47.2163 C   0  0  1  0  0  0  0  0  0  0  0  0
   18.0516   -4.8955   46.7114 C   0  0  2  0  0  0  0  0  0  0  0  0
   18.7283   -4.7738   45.3141 C   0  0  1  0  0  0  0  0  0  0  0  0
   20.0134   -3.8648   45.5019 C   0  0  1  0  0  0  0  0  0  0  0  0
   20.7617   -3.6548   44.1885 C   0  0  0  0  0  0  0  0  0  0  0  0
   19.1107   -6.1307   44.8290 N   0  0  0  0  0  0  0  0  0  0  0  0
   19.5796   -2.5118   46.0004 O   0  0  0  0  0  0  0  0  0  0  0  0
   17.0460   -3.5176   48.5222 O   0  0  0  0  0  0  0  0  0  0  0  0
   16.8798   -5.6769   46.6072 O   0  0  0  0  0  0  0  0  0  0  0  0
   20.0425   -2.7629   43.3785 O   0  0  0  0  0  0  0  0  0  0  0  0
   20.7858    0.4236   55.2049 C   0  0  1  0  0  0  0  0  0  0  0  0
   20.1068    1.4157   56.2031 C   0  0  1  0  0  0  0  0  0  0  0  0
   20.9221    1.4253   57.5291 C   0  0  2  0  0  0  0  0  0  0  0  0
   20.9802   -0.0026   58.1545 C   0  0  1  0  0  0  0  0  0  0  0  0
   21.6539   -1.0132   57.1496 C   0  0  0  0  0  0  0  0  0  0  0  0
   20.8173   -1.0247   55.8035 C   0  0  2  0  0  0  0  0  0  0  0  0
   21.7690    0.0318   59.4172 N   0  0  0  0  0  0  0  0  0  0  0  0
   21.4541   -1.9784   54.8675 N   0  0  0  0  0  0  0  0  0  0  0  0
   20.0887    2.7458   55.6521 O   0  0  0  0  0  0  0  0  0  0  0  0
   20.2818    2.3262   58.4176 O   0  0  0  0  0  0  0  0  0  0  0  0
  1  2  1  0  0  0  0
  1 12  1  1  0  0  0
  1 13  1  0  0  0  0
  2  3  1  0  0  0  0
  2 10  1  1  0  0  0
  4  3  1  1  0  0  0
  4  5  1  0  0  0  0
  4 14  1  0  0  0  0
  5  6  1  0  0  0  0
  5 13  1  6  0  0  0
  6  7  1  0  0  0  0
  6 15  1  6  0  0  0
  7  8  1  0  0  0  0
  7 11  1  6  0  0  0
  8 14  1  0  0  0  0
  8 16  1  1  0  0  0
  9 11  1  0  0  0  0
 17 16  1  1  0  0  0
 17 18  1  0  0  0  0
 17 24  1  0  0  0  0
 18 19  1  0  0  0  0
 18 25  1  1  0  0  0
 19 20  1  0  0  0  0
 19 26  1  6  0  0  0
 20 21  1  0  0  0  0
 20 23  1  1  0  0  0
 21 22  1  6  0  0  0
 21 24  1  0  0  0  0
 22 27  1  0  0  0  0
 28 12  1  6  0  0  0
 28 29  1  0  0  0  0
 28 33  1  0  0  0  0
 29 30  1  0  0  0  0
 29 36  1  6  0  0  0
 30 31  1  0  0  0  0
 30 37  1  1  0  0  0
 31 32  1  0  0  0  0
 31 34  1  1  0  0  0
 32 33  1  0  0  0  0
 33 35  1  6  0  0  0
M  END
>  <CHROM.1>
-151.55878263,150.20878004,-170.87123779,-145.49375744,73.78806543,98.83811339
20.18097074,-1.39546880,50.94798068,1.36036269,-0.94295064,0.96079790

>  <Name>
2oe8_lig

>  <RI>
0

>  <Rbt.Current_Directory>
/home/itssahil/PROJECTS/Mol_Feturizer/New_Systems/rnas/2oe8

>  <Rbt.Executable>
rbdock ($Id: //depot/dev/client3/rdock/2013.1/src/exe/rbdock.cxx#4 $)

>  <Rbt.Library>
libRbt.so (2013.1, Build901 2013/11/27)

>  <Rbt.Parameter_File>
/export/apps/rDock/src/rDock_2013.1_src/data/scripts/dock_solv.prm

>  <Rbt.Receptor>
prm/pocket_docking_3.prm

>  <SCORE>
-19.9681

>  <SCORE.INTER>
-18.5088

>  <SCORE.INTER.CONST>
1

>  <SCORE.INTER.POLAR>
-2.25994

>  <SCORE.INTER.ROT>
6

>  <SCORE.INTER.SOLV>
18.6738

>  <SCORE.INTER.VDW>
-18.6307

>  <SCORE.INTER.norm>
-0.500239

>  <SCORE.INTRA>
-1.59638

>  <SCORE.INTRA.DIHEDRAL>
-1.76284

>  <SCORE.INTRA.DIHEDRAL.0>
16.4056

>  <SCORE.INTRA.POLAR>
0

>  <SCORE.INTRA.POLAR.0>
0

>  <SCORE.INTRA.REPUL>
0

>  <SCORE.INTRA.REPUL.0>
0

>  <SCORE.INTRA.SOLV>
-0.56846

>  <SCORE.INTRA.SOLV.lig_0>
-90.9627

>  <SCORE.INTRA.VDW>
-0.430727

>  <SCORE.INTRA.VDW.0>
-3.28744

>  <SCORE.INTRA.norm>
-0.0431454

>  <SCORE.RESTR>
0.137124

>  <SCORE.RESTR.CAVITY>
0.137124

>  <SCORE.RESTR.norm>
0.00370604

>  <SCORE.SYSTEM>
0

>  <SCORE.SYSTEM.CONST>
0

>  <SCORE.SYSTEM.DIHEDRAL>
0

>  <SCORE.SYSTEM.SOLV>
0

>  <SCORE.SYSTEM.norm>
0

>  <SCORE.heavy>
37

>  <SCORE.norm>
-0.539678

>  <RMSD>
0.912

$$$$
2oe8_lig
 OpenBabel11021811463D
libRbt.so/2013.1/901 2013/11/27
 37 40  0  0  0  0  0  0  0  0999 V2000
   20.2548    1.4238   53.0741 C   0  0  1  0  0  0  0  0  0  0  0  0
   19.1043    1.8490   52.0847 C   0  0  1  0  0  0  0  0  0  0  0  0
   18.6449    0.6176   51.2764 C   0  0  0  0  0  0  0  0  0  0  0  0
   19.9027    0.1146   50.5014 C   0  0  1  0  0  0  0  0  0  0  0  0
   21.0981   -0.3054   51.5018 C   0  0  1  0  0  0  0  0  0  0  0  0
   22.3638   -0.7904   50.7359 C   0  0  1  0  0  0  0  0  0  0  0  0
   21.9278   -2.0162   49.8336 C   0  0  1  0  0  0  0  0  0  0  0  0
   20.7371   -1.5710   48.9149 C   0  0  2  0  0  0  0  0  0  0  0  0
   24.2553   -3.2231   49.6830 C   0  0  0  0  0  0  0  0  0  0  0  0
   17.9434    2.4157   52.8420 N   0  0  0  0  0  0  0  0  0  0  0  0
   23.0983   -2.5354   49.0031 N   0  0  0  0  0  0  0  0  0  0  0  0
   19.8061    0.4433   54.0182 O   0  0  0  0  0  0  0  0  0  0  0  0
   21.4250    0.8539   52.3436 O   0  0  0  0  0  0  0  0  0  0  0  0
   19.5699   -1.0456   49.6827 O   0  0  0  0  0  0  0  0  0  0  0  0
   22.8362    0.3142   49.9628 O   0  0  0  0  0  0  0  0  0  0  0  0
   20.3144   -2.6555   48.1718 O   0  0  0  0  0  0  0  0  0  0  0  0
   19.0119   -2.4746   47.5907 C   0  0  2  0  0  0  0  0  0  0  0  0
   18.0100   -3.4893   48.1925 C   0  0  1  0  0  0  0  0  0  0  0  0
   18.3656   -4.9564   47.8010 C   0  0  2  0  0  0  0  0  0  0  0  0
   18.3768   -5.0868   46.2492 C   0  0  1  0  0  0  0  0  0  0  0  0
   19.4774   -4.0812   45.7101 C   0  0  1  0  0  0  0  0  0  0  0  0
   19.5749   -4.1035   44.1873 C   0  0  0  0  0  0  0  0  0  0  0  0
   18.7163   -6.4887   45.8724 N   0  0  0  0  0  0  0  0  0  0  0  0
   19.0978   -2.6834   46.1219 O   0  0  0  0  0  0  0  0  0  0  0  0
   18.0126   -3.2964   49.6200 O   0  0  0  0  0  0  0  0  0  0  0  0
   17.3831   -5.8131   48.3443 O   0  0  0  0  0  0  0  0  0  0  0  0
   19.5581   -2.7882   43.6987 O   0  0  0  0  0  0  0  0  0  0  0  0
   20.5889    0.3883   55.1929 C   0  0  1  0  0  0  0  0  0  0  0  0
   19.8883    1.2581   56.2857 C   0  0  1  0  0  0  0  0  0  0  0  0
   20.7573    1.2320   57.5769 C   0  0  2  0  0  0  0  0  0  0  0  0
   20.9379   -0.2286   58.0941 C   0  0  1  0  0  0  0  0  0  0  0  0
   21.6341   -1.1167   56.9935 C   0  0  0  0  0  0  0  0  0  0  0  0
   20.7432   -1.0925   55.6828 C   0  0  2  0  0  0  0  0  0  0  0  0
   21.7761   -0.2275   59.3250 N   0  0  0  0  0  0  0  0  0  0  0  0
   21.4019   -1.9315   54.6565 N   0  0  0  0  0  0  0  0  0  0  0  0
   19.7574    2.6190   55.8341 O   0  0  0  0  0  0  0  0  0  0  0  0
   20.0968    2.0215   58.5523 O   0  0  0  0  0  0  0  0  0  0  0  0
  1  2  1  0  0  0  0
  1 12  1  1  0  0  0
  1 13  1  0  0  0  0
  2  3  1  0  0  0  0
  2 10  1  1  0  0  0
  4  3  1  1  0  0  0
  4  5  1  0  0  0  0
  4 14  1  0  0  0  0
  5  6  1  0  0  0  0
  5 13  1  6  0  0  0
  6  7  1  0  0  0  0
  6 15  1  6  0  0  0
  7  8  1  0  0  0  0
  7 11  1  6  0  0  0
  8 14  1  0  0  0  0
  8 16  1  1  0  0  0
  9 11  1  0  0  0  0
 17 16  1  1  0  0  0
 17 18  1  0  0  0  0
 17 24  1  0  0  0  0
 18 19  1  0  0  0  0
 18 25  1  1  0  0  0
 19 20  1  0  0  0  0
 19 26  1  1  0  0  0
 20 21  1  0  0  0  0
 20 23  1  1  0  0  0
 21 22  1  6  0  0  0
 21 24  1  0  0  0  0
 22 27  1  0  0  0  0
 28 12  1  6  0  0  0
 28 29  1  0  0  0  0
 28 33  1  0  0  0  0
 29 30  1  0  0  0  0
 29 36  1  6  0  0  0
 30 31  1  0  0  0  0
 30 37  1  1  0  0  0
 31 32  1  0  0  0  0
 31 34  1  1  0  0  0
 32 33  1  0  0  0  0
 33 35  1  6  0  0  0
M  END
>  <CHROM.1>
-157.94143212,68.53737248,163.26188005,-115.18031749,131.55531122,96.29644215
20.16951160,-1.30879607,51.18392322,1.36359778,-0.97369175,0.95742099

>  <Name>
2oe8_lig

>  <RI>
0

>  <Rbt.Current_Directory>
/home/itssahil/PROJECTS/Mol_Feturizer/New_Systems/rnas/2oe8

>  <Rbt.Executable>
rbdock ($Id: //depot/dev/client3/rdock/2013.1/src/exe/rbdock.cxx#4 $)

>  <Rbt.Library>
libRbt.so (2013.1, Build901 2013/11/27)

>  <Rbt.Parameter_File>
/export/apps/rDock/src/rDock_2013.1_src/data/scripts/dock_solv.prm

>  <Rbt.Receptor>
prm/pocket_docking_2.prm

>  <SCORE>
-13.0454

>  <SCORE.INTER>
-16.5587

>  <SCORE.INTER.CONST>
1

>  <SCORE.INTER.POLAR>
-2.00594

>  <SCORE.INTER.ROT>
6

>  <SCORE.INTER.SOLV>
19.582

>  <SCORE.INTER.VDW>
-18.48

>  <SCORE.INTER.norm>
-0.447532

>  <SCORE.INTRA>
2.93008

>  <SCORE.INTRA.DIHEDRAL>
3.79518

>  <SCORE.INTRA.DIHEDRAL.0>
16.4056

>  <SCORE.INTRA.POLAR>
0

>  <SCORE.INTRA.POLAR.0>
0

>  <SCORE.INTRA.REPUL>
0

>  <SCORE.INTRA.REPUL.0>
0

>  <SCORE.INTRA.SOLV>
-0.934642

>  <SCORE.INTRA.SOLV.lig_0>
-90.9627

>  <SCORE.INTRA.VDW>
1.49981

>  <SCORE.INTRA.VDW.0>
-3.28744

>  <SCORE.INTRA.norm>
0.0791913

>  <SCORE.RESTR>
0.583235

>  <SCORE.RESTR.CAVITY>
0.583235

>  <SCORE.RESTR.norm>
0.0157631

>  <SCORE.SYSTEM>
0

>  <SCORE.SYSTEM.CONST>
0

>  <SCORE.SYSTEM.DIHEDRAL>
0

>  <SCORE.SYSTEM.SOLV>
0

>  <SCORE.SYSTEM.norm>
0

>  <SCORE.heavy>
37

>  <SCORE.norm>
-0.352577

>  <RMSD>
0.946

$$$$
2oe8_lig
 OpenBabel11021811463D
libRbt.so/2013.1/901 2013/11/27
 37 40  0  0  0  0  0  0  0  0999 V2000
   20.0708    1.5630   53.3410 C   0  0  1  0  0  0  0  0  0  0  0  0
   19.3267    2.1521   52.0830 C   0  0  1  0  0  0  0  0  0  0  0  0
   18.5346    1.0269   51.3850 C   0  0  0  0  0  0  0  0  0  0  0  0
   19.5859   -0.0495   50.9701 C   0  0  1  0  0  0  0  0  0  0  0  0
   20.3712   -0.6476   52.2474 C   0  0  1  0  0  0  0  0  0  0  0  0
   21.4355   -1.7086   51.8404 C   0  0  1  0  0  0  0  0  0  0  0  0
   20.6796   -2.8573   51.0555 C   0  0  1  0  0  0  0  0  0  0  0  0
   19.8973   -2.2204   49.8546 C   0  0  2  0  0  0  0  0  0  0  0  0
   22.5602   -3.6457   49.4007 C   0  0  0  0  0  0  0  0  0  0  0  0
   18.3911    3.2475   52.4916 N   0  0  0  0  0  0  0  0  0  0  0  0
   21.6527   -3.9287   50.5712 N   0  0  0  0  0  0  0  0  0  0  0  0
   19.1485    1.0372   54.3037 O   0  0  0  0  0  0  0  0  0  0  0  0
   21.0100    0.4671   52.9608 O   0  0  0  0  0  0  0  0  0  0  0  0
   18.9383   -1.1579   50.2780 O   0  0  0  0  0  0  0  0  0  0  0  0
   22.4048   -1.0419   51.0299 O   0  0  0  0  0  0  0  0  0  0  0  0
   19.1875   -3.2116   49.2059 O   0  0  0  0  0  0  0  0  0  0  0  0
   18.6509   -2.7918   47.9398 C   0  0  2  0  0  0  0  0  0  0  0  0
   17.6471   -3.8428   47.4074 C   0  0  1  0  0  0  0  0  0  0  0  0
   18.3499   -5.1906   47.0585 C   0  0  2  0  0  0  0  0  0  0  0  0
   19.4560   -4.9337   45.9928 C   0  0  1  0  0  0  0  0  0  0  0  0
   20.4868   -3.9146   46.6347 C   0  0  1  0  0  0  0  0  0  0  0  0
   21.6205   -3.5671   45.6740 C   0  0  0  0  0  0  0  0  0  0  0  0
   20.1293   -6.2208   45.6573 N   0  0  0  0  0  0  0  0  0  0  0  0
   19.7614   -2.6370   46.9645 O   0  0  0  0  0  0  0  0  0  0  0  0
   16.6299   -4.0098   48.4135 O   0  0  0  0  0  0  0  0  0  0  0  0
   17.3815   -6.0760   46.5364 O   0  0  0  0  0  0  0  0  0  0  0  0
   21.0850   -3.2351   44.4202 O   0  0  0  0  0  0  0  0  0  0  0  0
   19.6823    0.9460   55.6085 C   0  0  1  0  0  0  0  0  0  0  0  0
   18.6011    1.4582   56.6136 C   0  0  1  0  0  0  0  0  0  0  0  0
   19.1880    1.3929   58.0539 C   0  0  2  0  0  0  0  0  0  0  0  0
   19.6039   -0.0661   58.4173 C   0  0  1  0  0  0  0  0  0  0  0  0
   20.6867   -0.5956   57.4015 C   0  0  0  0  0  0  0  0  0  0  0  0
   20.0831   -0.5332   55.9372 C   0  0  2  0  0  0  0  0  0  0  0  0
   20.1665   -0.1014   59.7956 N   0  0  0  0  0  0  0  0  0  0  0  0
   21.1044   -1.0355   54.9907 N   0  0  0  0  0  0  0  0  0  0  0  0
   18.2434    2.8201   56.3126 O   0  0  0  0  0  0  0  0  0  0  0  0
   18.1863    1.8556   58.9446 O   0  0  0  0  0  0  0  0  0  0  0  0
  1  2  1  0  0  0  0
  1 12  1  1  0  0  0
  1 13  1  0  0  0  0
  2  3  1  0  0  0  0
  2 10  1  1  0  0  0
  4  3  1  1  0  0  0
  4  5  1  0  0  0  0
  4 14  1  0  0  0  0
  5  6  1  0  0  0  0
  5 13  1  6  0  0  0
  6  7  1  0  0  0  0
  6 15  1  6  0  0  0
  7  8  1  0  0  0  0
  7 11  1  6  0  0  0
  8 14  1  0  0  0  0
  8 16  1  1  0  0  0
  9 11  1  0  0  0  0
 17 16  1  1  0  0  0
 17 18  1  0  0  0  0
 17 24  1  0  0  0  0
 18 19  1  0  0  0  0
 18 25  1  1  0  0  0
 19 20  1  0  0  0  0
 19 26  1  6  0  0  0
 20 21  1  0  0  0  0
 20 23  1  1  0  0  0
 21 22  1  6  0  0  0
 21 24  1  0  0  0  0
 22 27  1  0  0  0  0
 28 12  1  6  0  0  0
 28 29  1  0  0  0  0
 28 33  1  0  0  0  0
 29 30  1  0  0  0  0
 29 36  1  6  0  0  0
 30 31  1  0  0  0  0
 30 37  1  1  0  0  0
 31 32  1  0  0  0  0
 31 34  1  1  0  0  0
 32 33  1  0  0  0  0
 33 35  1  6  0  0  0
M  END
>  <CHROM.1>
-158.44464092,-74.26039339,-168.29109756,-168.83852418,48.22243684,136.57399531
19.71882961,-1.39378175,51.51957231,1.59840530,-0.93054861,1.10638380

>  <Name>
2oe8_lig

>  <RI>
0

>  <Rbt.Current_Directory>
/home/itssahil/PROJECTS/Mol_Feturizer/New_Systems/rnas/2oe8

>  <Rbt.Executable>
rbdock ($Id: //depot/dev/client3/rdock/2013.1/src/exe/rbdock.cxx#4 $)

>  <Rbt.Library>
libRbt.so (2013.1, Build901 2013/11/27)

>  <Rbt.Parameter_File>
/export/apps/rDock/src/rDock_2013.1_src/data/scripts/dock_solv.prm

>  <Rbt.Receptor>
prm/pocket_docking_4.prm

>  <SCORE>
-17.3302

>  <SCORE.INTER>
-15.7602

>  <SCORE.INTER.CONST>
1

>  <SCORE.INTER.POLAR>
-1.34937

>  <SCORE.INTER.ROT>
6

>  <SCORE.INTER.SOLV>
17.6132

>  <SCORE.INTER.VDW>
-19.48

>  <SCORE.INTER.norm>
-0.425952

>  <SCORE.INTRA>
-1.56996

>  <SCORE.INTRA.DIHEDRAL>
-6.4756

>  <SCORE.INTRA.DIHEDRAL.0>
16.4056

>  <SCORE.INTRA.POLAR>
0

>  <SCORE.INTRA.POLAR.0>
0

>  <SCORE.INTRA.REPUL>
0

>  <SCORE.INTRA.REPUL.0>
0

>  <SCORE.INTRA.SOLV>
1.46087

>  <SCORE.INTRA.SOLV.lig_0>
-90.9627

>  <SCORE.INTRA.VDW>
0.937404

>  <SCORE.INTRA.VDW.0>
-3.28744

>  <SCORE.INTRA.norm>
-0.0424313

>  <SCORE.RESTR>
0

>  <SCORE.RESTR.CAVITY>
0

>  <SCORE.RESTR.norm>
0

>  <SCORE.SYSTEM>
0

>  <SCORE.SYSTEM.CONST>
0

>  <SCORE.SYSTEM.DIHEDRAL>
0

>  <SCORE.SYSTEM.SOLV>
0

>  <SCORE.SYSTEM.norm>
0

>  <SCORE.heavy>
37

>  <SCORE.norm>
-0.468384

>  <RMSD>
0.956

$$$$
2oe8_lig
 OpenBabel11021811463D
libRbt.so/2013.1/901 2013/11/27
 37 40  0  0  0  0  0  0  0  0999 V2000
   20.0832    1.5837   53.4066 C   0  0  1  0  0  0  0  0  0  0  0  0
   19.2892    2.1922   52.1889 C   0  0  1  0  0  0  0  0  0  0  0  0
   18.6160    1.0518   51.3971 C   0  0  0  0  0  0  0  0  0  0  0  0
   19.7711    0.1204   50.9130 C   0  0  1  0  0  0  0  0  0  0  0  0
   20.6070   -0.4945   52.1496 C   0  0  1  0  0  0  0  0  0  0  0  0
   21.7734   -1.4099   51.6747 C   0  0  1  0  0  0  0  0  0  0  0  0
   21.1390   -2.5633   50.7949 C   0  0  1  0  0  0  0  0  0  0  0  0
   20.3019   -1.9156   49.6374 C   0  0  2  0  0  0  0  0  0  0  0  0
   23.1090   -3.0228   49.1202 C   0  0  0  0  0  0  0  0  0  0  0  0
   18.2473    3.1544   52.6696 N   0  0  0  0  0  0  0  0  0  0  0  0
   22.2160   -3.4921   50.2410 N   0  0  0  0  0  0  0  0  0  0  0  0
   19.2140    0.8957   54.3150 O   0  0  0  0  0  0  0  0  0  0  0  0
   21.1285    0.6192   52.9541 O   0  0  0  0  0  0  0  0  0  0  0  0
   19.2400   -0.9896   50.1300 O   0  0  0  0  0  0  0  0  0  0  0  0
   22.6746   -0.5894   50.9294 O   0  0  0  0  0  0  0  0  0  0  0  0
   19.6971   -2.9188   48.9060 O   0  0  0  0  0  0  0  0  0  0  0  0
   19.0059   -2.4365   47.7413 C   0  0  2  0  0  0  0  0  0  0  0  0
   17.8673   -3.4098   47.3515 C   0  0  1  0  0  0  0  0  0  0  0  0
   18.4203   -4.7903   46.8820 C   0  0  2  0  0  0  0  0  0  0  0  0
   19.3691   -4.5780   45.6655 C   0  0  1  0  0  0  0  0  0  0  0  0
   20.5487   -3.6410   46.1589 C   0  0  1  0  0  0  0  0  0  0  0  0
   21.5463   -3.3426   45.0433 C   0  0  0  0  0  0  0  0  0  0  0  0
   19.8989   -5.8965   45.2145 N   0  0  0  0  0  0  0  0  0  0  0  0
   19.9659   -2.3285   46.6120 O   0  0  0  0  0  0  0  0  0  0  0  0
   17.0031   -3.5364   48.4970 O   0  0  0  0  0  0  0  0  0  0  0  0
   17.3288   -5.6007   46.4996 O   0  0  0  0  0  0  0  0  0  0  0  0
   22.1775   -4.5326   44.6503 O   0  0  0  0  0  0  0  0  0  0  0  0
   19.5993    1.0168   55.6688 C   0  0  1  0  0  0  0  0  0  0  0  0
   18.3719    1.5454   56.4787 C   0  0  1  0  0  0  0  0  0  0  0  0
   18.7920    1.7136   57.9680 C   0  0  2  0  0  0  0  0  0  0  0  0
   19.2781    0.3562   58.5636 C   0  0  1  0  0  0  0  0  0  0  0  0
   20.5097   -0.1906   57.7456 C   0  0  0  0  0  0  0  0  0  0  0  0
   20.0760   -0.3663   56.2313 C   0  0  2  0  0  0  0  0  0  0  0  0
   19.6790    0.5442   59.9854 N   0  0  0  0  0  0  0  0  0  0  0  0
   21.2365   -0.8834   55.4716 N   0  0  0  0  0  0  0  0  0  0  0  0
   17.9440    2.8200   55.9636 O   0  0  0  0  0  0  0  0  0  0  0  0
   17.6606    2.1866   58.6801 O   0  0  0  0  0  0  0  0  0  0  0  0
  1  2  1  0  0  0  0
  1 12  1  1  0  0  0
  1 13  1  0  0  0  0
  2  3  1  0  0  0  0
  2 10  1  1  0  0  0
  4  3  1  1  0  0  0
  4  5  1  0  0  0  0
  4 14  1  0  0  0  0
  5  6  1  0  0  0  0
  5 13  1  6  0  0  0
  6  7  1  0  0  0  0
  6 15  1  6  0  0  0
  7  8  1  0  0  0  0
  7 11  1  6  0  0  0
  8 14  1  0  0  0  0
  8 16  1  1  0  0  0
  9 11  1  0  0  0  0
 17 16  1  1  0  0  0
 17 18  1  0  0  0  0
 17 24  1  0  0  0  0
 18 19  1  0  0  0  0
 18 25  1  1  0  0  0
 19 20  1  0  0  0  0
 19 26  1  6  0  0  0
 20 21  1  0  0  0  0
 20 23  1  1  0  0  0
 21 22  1  6  0  0  0
 21 24  1  0  0  0  0
 22 27  1  0  0  0  0
 28 12  1  6  0  0  0
 28 29  1  0  0  0  0
 28 33  1  0  0  0  0
 29 30  1  0  0  0  0
 29 36  1  6  0  0  0
 30 31  1  0  0  0  0
 30 37  1  1  0  0  0
 31 32  1  0  0  0  0
 31 34  1  1  0  0  0
 32 33  1  0  0  0  0
 33 35  1  6  0  0  0
M  END
>  <CHROM.1>
-144.91779363,-73.35588111,-174.43954851,-154.13723268,-64.35315766,126.48774632
19.81756833,-1.17879771,51.42935589,-1.63606820,0.27732053,-2.02603652

>  <Name>
2oe8_lig

>  <RI>
0

>  <Rbt.Current_Directory>
/home/itssahil/PROJECTS/Mol_Feturizer/New_Systems/rnas/2oe8

>  <Rbt.Executable>
rbdock ($Id: //depot/dev/client3/rdock/2013.1/src/exe/rbdock.cxx#4 $)

>  <Rbt.Library>
libRbt.so (2013.1, Build901 2013/11/27)

>  <Rbt.Parameter_File>
/export/apps/rDock/src/rDock_2013.1_src/data/scripts/dock_solv.prm

>  <Rbt.Receptor>
prm/pocket_docking_7.prm

>  <SCORE>
-17.355

>  <SCORE.INTER>
-17.4226

>  <SCORE.INTER.CONST>
1

>  <SCORE.INTER.POLAR>
-1.73141

>  <SCORE.INTER.ROT>
6

>  <SCORE.INTER.SOLV>
16.446

>  <SCORE.INTER.VDW>
-18.9257

>  <SCORE.INTER.norm>
-0.470882

>  <SCORE.INTRA>
0.0675927

>  <SCORE.INTRA.DIHEDRAL>
-1.6512

>  <SCORE.INTRA.DIHEDRAL.0>
16.4056

>  <SCORE.INTRA.POLAR>
0

>  <SCORE.INTRA.POLAR.0>
0

>  <SCORE.INTRA.REPUL>
0

>  <SCORE.INTRA.REPUL.0>
0

>  <SCORE.INTRA.SOLV>
1.02015

>  <SCORE.INTRA.SOLV.lig_0>
-90.9627

>  <SCORE.INTRA.VDW>
0.383118

>  <SCORE.INTRA.VDW.0>
-3.28744

>  <SCORE.INTRA.norm>
0.00182683

>  <SCORE.RESTR>
0

>  <SCORE.RESTR.CAVITY>
0

>  <SCORE.RESTR.norm>
0

>  <SCORE.SYSTEM>
0

>  <SCORE.SYSTEM.CONST>
0

>  <SCORE.SYSTEM.DIHEDRAL>
0

>  <SCORE.SYSTEM.SOLV>
0

>  <SCORE.SYSTEM.norm>
0

>  <SCORE.heavy>
37

>  <SCORE.norm>
-0.469055

>  <RMSD>
1.018

$$$$
2oe8_lig
 OpenBabel11021811463D
libRbt.so/2013.1/901 2013/11/27
 37 40  0  0  0  0  0  0  0  0999 V2000
   20.1815    1.4536   53.3180 C   0  0  1  0  0  0  0  0  0  0  0  0
   19.4245    2.0843   52.0882 C   0  0  1  0  0  0  0  0  0  0  0  0
   18.6298    0.9818   51.3576 C   0  0  0  0  0  0  0  0  0  0  0  0
   19.6808   -0.0755   50.8957 C   0  0  1  0  0  0  0  0  0  0  0  0
   20.4794   -0.7158   52.1440 C   0  0  1  0  0  0  0  0  0  0  0  0
   21.5434   -1.7579   51.6903 C   0  0  1  0  0  0  0  0  0  0  0  0
   20.7843   -2.8807   50.8718 C   0  0  1  0  0  0  0  0  0  0  0  0
   19.9893   -2.2044   49.7011 C   0  0  2  0  0  0  0  0  0  0  0  0
   21.2500   -5.2992   49.9604 C   0  0  0  0  0  0  0  0  0  0  0  0
   18.4890    3.1612   52.5435 N   0  0  0  0  0  0  0  0  0  0  0  0
   21.7565   -3.9309   50.3413 N   0  0  0  0  0  0  0  0  0  0  0  0
   19.2694    0.8907   54.2694 O   0  0  0  0  0  0  0  0  0  0  0  0
   21.1209    0.3752   52.8909 O   0  0  0  0  0  0  0  0  0  0  0  0
   19.0307   -1.1610   50.1703 O   0  0  0  0  0  0  0  0  0  0  0  0
   22.5033   -1.0595   50.8956 O   0  0  0  0  0  0  0  0  0  0  0  0
   19.2770   -3.1744   49.0238 O   0  0  0  0  0  0  0  0  0  0  0  0
   18.6476   -2.6869   47.8267 C   0  0  2  0  0  0  0  0  0  0  0  0
   17.5745   -3.6895   47.3380 C   0  0  1  0  0  0  0  0  0  0  0  0
   18.2087   -5.0368   46.8744 C   0  0  2  0  0  0  0  0  0  0  0  0
   19.2280   -4.7592   45.7302 C   0  0  1  0  0  0  0  0  0  0  0  0
   20.3363   -3.7939   46.3244 C   0  0  1  0  0  0  0  0  0  0  0  0
   21.3943   -3.4313   45.2861 C   0  0  0  0  0  0  0  0  0  0  0  0
   19.8355   -6.0458   45.2851 N   0  0  0  0  0  0  0  0  0  0  0  0
   19.6761   -2.5154   46.7679 O   0  0  0  0  0  0  0  0  0  0  0  0
   16.6412   -3.8766   48.4191 O   0  0  0  0  0  0  0  0  0  0  0  0
   17.1761   -5.8753   46.4000 O   0  0  0  0  0  0  0  0  0  0  0  0
   22.0917   -4.5881   44.9059 O   0  0  0  0  0  0  0  0  0  0  0  0
   19.7689    0.8730   55.5908 C   0  0  1  0  0  0  0  0  0  0  0  0
   18.6153    1.3034   56.5529 C   0  0  1  0  0  0  0  0  0  0  0  0
   19.1610    1.3187   58.0106 C   0  0  2  0  0  0  0  0  0  0  0  0
   19.6958   -0.0892   58.4172 C   0  0  1  0  0  0  0  0  0  0  0  0
   20.8529   -0.5368   57.4448 C   0  0  0  0  0  0  0  0  0  0  0  0
   20.2915   -0.5572   55.9627 C   0  0  2  0  0  0  0  0  0  0  0  0
   20.2165   -0.0472   59.8117 N   0  0  0  0  0  0  0  0  0  0  0  0
   21.3828   -0.9820   55.0572 N   0  0  0  0  0  0  0  0  0  0  0  0
   18.1453    2.6211   56.2125 O   0  0  0  0  0  0  0  0  0  0  0  0
   18.0945    1.7049   58.8618 O   0  0  0  0  0  0  0  0  0  0  0  0
  1  2  1  0  0  0  0
  1 12  1  1  0  0  0
  1 13  1  0  0  0  0
  2  3  1  0  0  0  0
  2 10  1  1  0  0  0
  4  3  1  1  0  0  0
  4  5  1  0  0  0  0
  4 14  1  0  0  0  0
  5  6  1  0  0  0  0
  5 13  1  6  0  0  0
  6  7  1  0  0  0  0
  6 15  1  6  0  0  0
  7  8  1  0  0  0  0
  7 11  1  6  0  0  0
  8 14  1  0  0  0  0
  8 16  1  1  0  0  0
  9 11  1  0  0  0  0
 17 16  1  1  0  0  0
 17 18  1  0  0  0  0
 17 24  1  0  0  0  0
 18 19  1  0  0  0  0
 18 25  1  1  0  0  0
 19 20  1  0  0  0  0
 19 26  1  6  0  0  0
 20 21  1  0  0  0  0
 20 23  1  1  0  0  0
 21 22  1  6  0  0  0
 21 24  1  0  0  0  0
 22 27  1  0  0  0  0
 28 12  1  6  0  0  0
 28 29  1  0  0  0  0
 28 33  1  0  0  0  0
 29 30  1  0  0  0  0
 29 36  1  6  0  0  0
 30 31  1  0  0  0  0
 30 37  1  1  0  0  0
 31 32  1  0  0  0  0
 31 34  1  1  0  0  0
 32 33  1  0  0  0  0
 33 35  1  6  0  0  0
M  END
>  <CHROM.1>
-152.72858108,159.02671636,-172.50503482,-164.56025183,-64.18491618,137.86323356
19.73281952,-1.47607024,51.45364949,1.58298214,-0.82040141,1.09461508

>  <Name>
2oe8_lig

>  <RI>
0

>  <Rbt.Current_Directory>
/home/itssahil/PROJECTS/Mol_Feturizer/New_Systems/rnas/2oe8

>  <Rbt.Executable>
rbdock ($Id: //depot/dev/client3/rdock/2013.1/src/exe/rbdock.cxx#4 $)

>  <Rbt.Library>
libRbt.so (2013.1, Build901 2013/11/27)

>  <Rbt.Parameter_File>
/export/apps/rDock/src/rDock_2013.1_src/data/scripts/dock_solv.prm

>  <Rbt.Receptor>
prm/pocket_docking_8.prm

>  <SCORE>
-19.1501

>  <SCORE.INTER>
-16.8365

>  <SCORE.INTER.CONST>
1

>  <SCORE.INTER.POLAR>
-1.45212

>  <SCORE.INTER.ROT>
6

>  <SCORE.INTER.SOLV>
17.5066

>  <SCORE.INTER.VDW>
-19.8195

>  <SCORE.INTER.norm>
-0.45504

>  <SCORE.INTRA>
-2.31356

>  <SCORE.INTRA.DIHEDRAL>
-5.76558

>  <SCORE.INTRA.DIHEDRAL.0>
16.4056

>  <SCORE.INTRA.POLAR>
0

>  <SCORE.INTRA.POLAR.0>
0

>  <SCORE.INTRA.REPUL>
0

>  <SCORE.INTRA.REPUL.0>
0

>  <SCORE.INTRA.SOLV>
1.05289

>  <SCORE.INTRA.SOLV.lig_0>
-90.9627

>  <SCORE.INTRA.VDW>
0.042786

>  <SCORE.INTRA.VDW.0>
-3.28744

>  <SCORE.INTRA.norm>
-0.0625286

>  <SCORE.RESTR>
0

>  <SCORE.RESTR.CAVITY>
0

>  <SCORE.RESTR.norm>
0

>  <SCORE.SYSTEM>
0

>  <SCORE.SYSTEM.CONST>
0

>  <SCORE.SYSTEM.DIHEDRAL>
0

>  <SCORE.SYSTEM.SOLV>
0

>  <SCORE.SYSTEM.norm>
0

>  <SCORE.heavy>
37

>  <SCORE.norm>
-0.517569

>  <RMSD>
1.038

$$$$
2oe8_lig
 OpenBabel11021811463D
libRbt.so/2013.1/901 2013/11/27
 37 40  0  0  0  0  0  0  0  0999 V2000
   20.0479    1.6204   53.3744 C   0  0  1  0  0  0  0  0  0  0  0  0
   19.2973    2.2141   52.1224 C   0  0  1  0  0  0  0  0  0  0  0  0
   18.4988    1.0921   51.4265 C   0  0  0  0  0  0  0  0  0  0  0  0
   19.5455    0.0148   51.0025 C   0  0  1  0  0  0  0  0  0  0  0  0
   20.3375   -0.5880   52.2735 C   0  0  1  0  0  0  0  0  0  0  0  0
   21.3973   -1.6499   51.8573 C   0  0  1  0  0  0  0  0  0  0  0  0
   20.6345   -2.7952   51.0742 C   0  0  1  0  0  0  0  0  0  0  0  0
   19.8460   -2.1539   49.8797 C   0  0  2  0  0  0  0  0  0  0  0  0
   22.5740   -3.5499   49.4726 C   0  0  0  0  0  0  0  0  0  0  0  0
   18.3663    3.3102   52.5394 N   0  0  0  0  0  0  0  0  0  0  0  0
   21.6025   -3.8673   50.5813 N   0  0  0  0  0  0  0  0  0  0  0  0
   19.1305    1.0939   54.3414 O   0  0  0  0  0  0  0  0  0  0  0  0
   20.9827    0.5238   52.9857 O   0  0  0  0  0  0  0  0  0  0  0  0
   18.8916   -1.0907   50.3116 O   0  0  0  0  0  0  0  0  0  0  0  0
   22.3629   -0.9830   51.0426 O   0  0  0  0  0  0  0  0  0  0  0  0
   19.1303   -3.1422   49.2329 O   0  0  0  0  0  0  0  0  0  0  0  0
   18.5356   -2.7005   48.0008 C   0  0  2  0  0  0  0  0  0  0  0  0
   17.6095   -3.8001   47.4274 C   0  0  1  0  0  0  0  0  0  0  0  0
   18.4117   -5.0652   46.9935 C   0  0  2  0  0  0  0  0  0  0  0  0
   19.4712   -4.6617   45.9259 C   0  0  1  0  0  0  0  0  0  0  0  0
   20.4292   -3.5975   46.6063 C   0  0  1  0  0  0  0  0  0  0  0  0
   21.5110   -3.1074   45.6480 C   0  0  0  0  0  0  0  0  0  0  0  0
   20.2393   -5.8696   45.5092 N   0  0  0  0  0  0  0  0  0  0  0  0
   19.6096   -2.4031   47.0177 O   0  0  0  0  0  0  0  0  0  0  0  0
   16.6300   -4.1036   48.4391 O   0  0  0  0  0  0  0  0  0  0  0  0
   17.5075   -5.9977   46.4392 O   0  0  0  0  0  0  0  0  0  0  0  0
   22.1793   -4.2101   45.0945 O   0  0  0  0  0  0  0  0  0  0  0  0
   19.6806    0.9737   55.6371 C   0  0  1  0  0  0  0  0  0  0  0  0
   18.6298    1.5071   56.6633 C   0  0  1  0  0  0  0  0  0  0  0  0
   19.2355    1.4097   58.0939 C   0  0  2  0  0  0  0  0  0  0  0  0
   19.6135   -0.0644   58.4366 C   0  0  1  0  0  0  0  0  0  0  0  0
   20.6652   -0.6150   57.3996 C   0  0  0  0  0  0  0  0  0  0  0  0
   20.0423   -0.5199   55.9452 C   0  0  2  0  0  0  0  0  0  0  0  0
   20.1950   -0.1304   59.8060 N   0  0  0  0  0  0  0  0  0  0  0  0
   21.0343   -1.0422   54.9786 N   0  0  0  0  0  0  0  0  0  0  0  0
   18.3081    2.8819   56.3811 O   0  0  0  0  0  0  0  0  0  0  0  0
   18.2611    1.8925   59.0040 O   0  0  0  0  0  0  0  0  0  0  0  0
  1  2  1  0  0  0  0
  1 12  1  1  0  0  0
  1 13  1  0  0  0  0
  2  3  1  0  0  0  0
  2 10  1  1  0  0  0
  4  3  1  1  0  0  0
  4  5  1  0  0  0  0
  4 14  1  0  0  0  0
  5  6  1  0  0  0  0
  5 13  1  6  0  0  0
  6  7  1  0  0  0  0
  6 15  1  6  0  0  0
  7  8  1  0  0  0  0
  7 11  1  6  0  0  0
  8 14  1  0  0  0  0
  8 16  1  1  0  0  0
  9 11  1  0  0  0  0
 17 16  1  1  0  0  0
 17 18  1  0  0  0  0
 17 24  1  0  0  0  0
 18 19  1  0  0  0  0
 18 25  1  1  0  0  0
 19 20  1  0  0  0  0
 19 26  1  6  0  0  0
 20 21  1  0  0  0  0
 20 23  1  1  0  0  0
 21 22  1  6  0  0  0
 21 24  1  0  0  0  0
 22 27  1  0  0  0  0
 28 12  1  6  0  0  0
 28 29  1  0  0  0  0
 28 33  1  0  0  0  0
 29 30  1  0  0  0  0
 29 36  1  6  0  0  0
 30 31  1  0  0  0  0
 30 37  1  1  0  0  0
 31 32  1  0  0  0  0
 31 34  1  1  0  0  0
 32 33  1  0  0  0  0
 33 35  1  6  0  0  0
M  END
>  <CHROM.1>
-159.62911067,-69.76417378,-170.96929927,-172.89277799,-52.38473409,135.72414304
19.73688804,-1.34198486,51.55401940,1.60603078,-0.76798654,1.10864397

>  <Name>
2oe8_lig

>  <RI>
0

>  <Rbt.Current_Directory>
/home/itssahil/PROJECTS/Mol_Feturizer/New_Systems/rnas/2oe8

>  <Rbt.Executable>
rbdock ($Id: //depot/dev/client3/rdock/2013.1/src/exe/rbdock.cxx#4 $)

>  <Rbt.Library>
libRbt.so (2013.1, Build901 2013/11/27)

>  <Rbt.Parameter_File>
/export/apps/rDock/src/rDock_2013.1_src/data/scripts/dock_solv.prm

>  <Rbt.Receptor>
prm/pocket_docking_3.prm

>  <SCORE>
-17.7174

>  <SCORE.INTER>
-16.2719

>  <SCORE.INTER.CONST>
1

>  <SCORE.INTER.POLAR>
-1.39758

>  <SCORE.INTER.ROT>
6

>  <SCORE.INTER.SOLV>
18.4891

>  <SCORE.INTER.VDW>
-19.9524

>  <SCORE.INTER.norm>
-0.439781

>  <SCORE.INTRA>
-1.44547

>  <SCORE.INTRA.DIHEDRAL>
-7.52726

>  <SCORE.INTRA.DIHEDRAL.0>
16.4056

>  <SCORE.INTRA.POLAR>
0

>  <SCORE.INTRA.POLAR.0>
0

>  <SCORE.INTRA.REPUL>
0

>  <SCORE.INTRA.REPUL.0>
0

>  <SCORE.INTRA.SOLV>
1.88435

>  <SCORE.INTRA.SOLV.lig_0>
-90.9627

>  <SCORE.INTRA.VDW>
1.37599

>  <SCORE.INTRA.VDW.0>
-3.28744

>  <SCORE.INTRA.norm>
-0.0390666

>  <SCORE.RESTR>
0

>  <SCORE.RESTR.CAVITY>
0

>  <SCORE.RESTR.norm>
0

>  <SCORE.SYSTEM>
0

>  <SCORE.SYSTEM.CONST>
0

>  <SCORE.SYSTEM.DIHEDRAL>
0

>  <SCORE.SYSTEM.SOLV>
0

>  <SCORE.SYSTEM.norm>
0

>  <SCORE.heavy>
37

>  <SCORE.norm>
-0.478847

>  <RMSD>
1.039

$$$$
2oe8_lig
 OpenBabel11021811463D
libRbt.so/2013.1/901 2013/11/27
 37 40  0  0  0  0  0  0  0  0999 V2000
   20.1751    1.1478   53.4969 C   0  0  1  0  0  0  0  0  0  0  0  0
   19.2448    1.6620   52.3335 C   0  0  1  0  0  0  0  0  0  0  0  0
   18.6074    0.4532   51.6172 C   0  0  0  0  0  0  0  0  0  0  0  0
   19.7935   -0.3959   51.0622 C   0  0  1  0  0  0  0  0  0  0  0  0
   20.7674   -0.9128   52.2414 C   0  0  1  0  0  0  0  0  0  0  0  0
   21.9642   -1.7449   51.6943 C   0  0  1  0  0  0  0  0  0  0  0  0
   21.3596   -2.9657   50.8875 C   0  0  1  0  0  0  0  0  0  0  0  0
   20.3879   -2.4144   49.7868 C   0  0  2  0  0  0  0  0  0  0  0  0
   22.1024   -5.0283   49.4416 C   0  0  0  0  0  0  0  0  0  0  0  0
   18.1685    2.5507   52.8758 N   0  0  0  0  0  0  0  0  0  0  0  0
   22.4627   -3.8202   50.2690 N   0  0  0  0  0  0  0  0  0  0  0  0
   19.4353    0.4160   54.4824 O   0  0  0  0  0  0  0  0  0  0  0  0
   21.2572    0.2578   52.9826 O   0  0  0  0  0  0  0  0  0  0  0  0
   19.2955   -1.5630   50.3432 O   0  0  0  0  0  0  0  0  0  0  0  0
   22.7375   -0.8745   50.8666 O   0  0  0  0  0  0  0  0  0  0  0  0
   19.8120   -3.4796   49.1229 O   0  0  0  0  0  0  0  0  0  0  0  0
   18.7526   -3.0899   48.2325 C   0  0  2  0  0  0  0  0  0  0  0  0
   17.7077   -4.2253   48.1121 C   0  0  1  0  0  0  0  0  0  0  0  0
   18.3017   -5.4879   47.4156 C   0  0  2  0  0  0  0  0  0  0  0  0
   18.8199   -5.0988   45.9995 C   0  0  1  0  0  0  0  0  0  0  0  0
   19.9387   -3.9947   46.2054 C   0  0  1  0  0  0  0  0  0  0  0  0
   20.5192   -3.5149   44.8781 C   0  0  0  0  0  0  0  0  0  0  0  0
   19.3881   -6.3044   45.3314 N   0  0  0  0  0  0  0  0  0  0  0  0
   19.3219   -2.8037   46.8899 O   0  0  0  0  0  0  0  0  0  0  0  0
   17.2366   -4.5148   49.4422 O   0  0  0  0  0  0  0  0  0  0  0  0
   17.2794   -6.4554   47.2999 O   0  0  0  0  0  0  0  0  0  0  0  0
   21.8475   -3.1052   45.0699 O   0  0  0  0  0  0  0  0  0  0  0  0
   19.8147    0.7119   55.8107 C   0  0  1  0  0  0  0  0  0  0  0  0
   18.8333    1.7927   56.3678 C   0  0  1  0  0  0  0  0  0  0  0  0
   19.2593    2.1516   57.8213 C   0  0  2  0  0  0  0  0  0  0  0  0
   19.2333    0.8873   58.7348 C   0  0  1  0  0  0  0  0  0  0  0  0
   20.2125   -0.2133   58.1740 C   0  0  0  0  0  0  0  0  0  0  0  0
   19.7715   -0.5804   56.6965 C   0  0  2  0  0  0  0  0  0  0  0  0
   19.6494    1.2552   60.1166 N   0  0  0  0  0  0  0  0  0  0  0  0
   20.6934   -1.6166   56.1793 N   0  0  0  0  0  0  0  0  0  0  0  0
   18.8838    2.9806   55.5557 O   0  0  0  0  0  0  0  0  0  0  0  0
   18.3502    3.1269   58.3043 O   0  0  0  0  0  0  0  0  0  0  0  0
  1  2  1  0  0  0  0
  1 12  1  1  0  0  0
  1 13  1  0  0  0  0
  2  3  1  0  0  0  0
  2 10  1  1  0  0  0
  4  3  1  1  0  0  0
  4  5  1  0  0  0  0
  4 14  1  0  0  0  0
  5  6  1  0  0  0  0
  5 13  1  6  0  0  0
  6  7  1  0  0  0  0
  6 15  1  6  0  0  0
  7  8  1  0  0  0  0
  7 11  1  6  0  0  0
  8 14  1  0  0  0  0
  8 16  1  1  0  0  0
  9 11  1  0  0  0  0
 17 16  1  1  0  0  0
 17 18  1  0  0  0  0
 17 24  1  0  0  0  0
 18 19  1  0  0  0  0
 18 25  1  1  0  0  0
 19 20  1  0  0  0  0
 19 26  1  6  0  0  0
 20 21  1  0  0  0  0
 20 23  1  1  0  0  0
 21 22  1  6  0  0  0
 21 24  1  0  0  0  0
 22 27  1  0  0  0  0
 28 12  1  6  0  0  0
 28 29  1  0  0  0  0
 28 33  1  0  0  0  0
 29 30  1  0  0  0  0
 29 36  1  6  0  0  0
 30 31  1  0  0  0  0
 30 37  1  1  0  0  0
 31 32  1  0  0  0  0
 31 34  1  1  0  0  0
 32 33  1  0  0  0  0
 33 35  1  6  0  0  0
M  END
>  <CHROM.1>
-138.35558972,-179.25191238,171.03987350,-150.21645857,-150.96620729,96.02638961
19.76783267,-1.49216493,51.63607362,-1.60249649,-1.12469899,-2.12622756

>  <Name>
2oe8_lig

>  <RI>
0

>  <Rbt.Current_Directory>
/home/itssahil/PROJECTS/Mol_Feturizer/New_Systems/rnas/2oe8

>  <Rbt.Executable>
rbdock ($Id: //depot/dev/client3/rdock/2013.1/src/exe/rbdock.cxx#4 $)

>  <Rbt.Library>
libRbt.so (2013.1, Build901 2013/11/27)

>  <Rbt.Parameter_File>
/export/apps/rDock/src/rDock_2013.1_src/data/scripts/dock_solv.prm

>  <Rbt.Receptor>
prm/pocket_docking_2.prm

>  <SCORE>
-5.44152

>  <SCORE.INTER>
-6.79876

>  <SCORE.INTER.CONST>
1

>  <SCORE.INTER.POLAR>
0

>  <SCORE.INTER.ROT>
6

>  <SCORE.INTER.SOLV>
16.1635

>  <SCORE.INTER.VDW>
-17.5203

>  <SCORE.INTER.norm>
-0.18375

>  <SCORE.INTRA>
1.20078

>  <SCORE.INTRA.DIHEDRAL>
0.441156

>  <SCORE.INTRA.DIHEDRAL.0>
16.4056

>  <SCORE.INTRA.POLAR>
0

>  <SCORE.INTRA.POLAR.0>
0

>  <SCORE.INTRA.REPUL>
0

>  <SCORE.INTRA.REPUL.0>
0

>  <SCORE.INTRA.SOLV>
-0.926937

>  <SCORE.INTRA.SOLV.lig_0>
-90.9627

>  <SCORE.INTRA.VDW>
1.44367

>  <SCORE.INTRA.VDW.0>
-3.28744

>  <SCORE.INTRA.norm>
0.0324534

>  <SCORE.RESTR>
0.156463

>  <SCORE.RESTR.CAVITY>
0.156463

>  <SCORE.RESTR.norm>
0.00422874

>  <SCORE.SYSTEM>
0

>  <SCORE.SYSTEM.CONST>
0

>  <SCORE.SYSTEM.DIHEDRAL>
0

>  <SCORE.SYSTEM.SOLV>
0

>  <SCORE.SYSTEM.norm>
0

>  <SCORE.heavy>
37

>  <SCORE.norm>
-0.147068

>  <RMSD>
1.042

$$$$
2oe8_lig
 OpenBabel11021811463D
libRbt.so/2013.1/901 2013/11/27
 37 40  0  0  0  0  0  0  0  0999 V2000
   20.6249    1.1638   52.9720 C   0  0  1  0  0  0  0  0  0  0  0  0
   19.5644    1.7714   51.9773 C   0  0  1  0  0  0  0  0  0  0  0  0
   18.8390    0.6254   51.2418 C   0  0  0  0  0  0  0  0  0  0  0  0
   19.9452   -0.1671   50.4775 C   0  0  1  0  0  0  0  0  0  0  0  0
   21.0508   -0.7785   51.4824 C   0  0  1  0  0  0  0  0  0  0  0  0
   22.1687   -1.5547   50.7261 C   0  0  1  0  0  0  0  0  0  0  0  0
   21.4649   -2.7048   49.8961 C   0  0  1  0  0  0  0  0  0  0  0  0
   20.3711   -2.0658   48.9715 C   0  0  2  0  0  0  0  0  0  0  0  0
   22.2045   -4.9383   48.7294 C   0  0  0  0  0  0  0  0  0  0  0  0
   18.5659    2.6050   52.7191 N   0  0  0  0  0  0  0  0  0  0  0  0
   22.4810   -3.4976   49.0785 N   0  0  0  0  0  0  0  0  0  0  0  0
   20.0049    0.3466   53.9729 O   0  0  0  0  0  0  0  0  0  0  0  0
   21.6326    0.3266   52.2570 O   0  0  0  0  0  0  0  0  0  0  0  0
   19.3581   -1.2707   49.7260 O   0  0  0  0  0  0  0  0  0  0  0  0
   22.8417   -0.6127   49.8892 O   0  0  0  0  0  0  0  0  0  0  0  0
   19.7137   -3.0729   48.2927 O   0  0  0  0  0  0  0  0  0  0  0  0
   18.8210   -2.5859   47.2765 C   0  0  2  0  0  0  0  0  0  0  0  0
   17.5722   -3.4951   47.1785 C   0  0  1  0  0  0  0  0  0  0  0  0
   17.9343   -4.9239   46.6689 C   0  0  2  0  0  0  0  0  0  0  0  0
   18.6156   -4.8152   45.2728 C   0  0  1  0  0  0  0  0  0  0  0  0
   19.9241   -3.9413   45.4652 C   0  0  1  0  0  0  0  0  0  0  0  0
   20.6793   -3.7465   44.1534 C   0  0  0  0  0  0  0  0  0  0  0  0
   18.9625   -6.1800   44.7832 N   0  0  0  0  0  0  0  0  0  0  0  0
   19.5257   -2.5790   45.9681 O   0  0  0  0  0  0  0  0  0  0  0  0
   16.9634   -3.5264   48.4836 O   0  0  0  0  0  0  0  0  0  0  0  0
   16.7424   -5.6736   46.5606 O   0  0  0  0  0  0  0  0  0  0  0  0
   20.0166   -2.7888   43.3706 O   0  0  0  0  0  0  0  0  0  0  0  0
   20.5627    0.5075   55.2608 C   0  0  1  0  0  0  0  0  0  0  0  0
   19.4125    0.3713   56.3097 C   0  0  1  0  0  0  0  0  0  0  0  0
   20.0081    0.5781   57.7329 C   0  0  2  0  0  0  0  0  0  0  0  0
   21.1226   -0.4734   58.0255 C   0  0  1  0  0  0  0  0  0  0  0  0
   22.2826   -0.3509   56.9651 C   0  0  0  0  0  0  0  0  0  0  0  0
   21.6731   -0.5682   55.5182 C   0  0  2  0  0  0  0  0  0  0  0  0
   21.6796   -0.2516   59.3887 N   0  0  0  0  0  0  0  0  0  0  0  0
   22.7690   -0.4554   54.5296 N   0  0  0  0  0  0  0  0  0  0  0  0
   18.3999    1.3675   56.0741 O   0  0  0  0  0  0  0  0  0  0  0  0
   18.9469    0.4427   58.6638 O   0  0  0  0  0  0  0  0  0  0  0  0
  1  2  1  0  0  0  0
  1 12  1  1  0  0  0
  1 13  1  0  0  0  0
  2  3  1  0  0  0  0
  2 10  1  1  0  0  0
  4  3  1  1  0  0  0
  4  5  1  0  0  0  0
  4 14  1  0  0  0  0
  5  6  1  0  0  0  0
  5 13  1  6  0  0  0
  6  7  1  0  0  0  0
  6 15  1  6  0  0  0
  7  8  1  0  0  0  0
  7 11  1  6  0  0  0
  8 14  1  0  0  0  0
  8 16  1  1  0  0  0
  9 11  1  0  0  0  0
 17 16  1  1  0  0  0
 17 18  1  0  0  0  0
 17 24  1  0  0  0  0
 18 19  1  0  0  0  0
 18 25  1  1  0  0  0
 19 20  1  0  0  0  0
 19 26  1  6  0  0  0
 20 21  1  0  0  0  0
 20 23  1  1  0  0  0
 21 22  1  6  0  0  0
 21 24  1  0  0  0  0
 22 27  1  0  0  0  0
 28 12  1  6  0  0  0
 28 29  1  0  0  0  0
 28 33  1  0  0  0  0
 29 30  1  0  0  0  0
 29 36  1  6  0  0  0
 30 31  1  0  0  0  0
 30 37  1  1  0  0  0
 31 32  1  0  0  0  0
 31 34  1  1  0  0  0
 32 33  1  0  0  0  0
 33 35  1  6  0  0  0
M  END
>  <CHROM.1>
-139.68533983,152.42692668,-171.63478243,-145.08416775,76.37342181,144.87847024
20.07258600,-1.54989912,50.93305124,-1.46052095,0.13052699,-1.98854434

>  <Name>
2oe8_lig

>  <RI>
0

>  <Rbt.Current_Directory>
/home/itssahil/PROJECTS/Mol_Feturizer/New_Systems/rnas/2oe8

>  <Rbt.Executable>
rbdock ($Id: //depot/dev/client3/rdock/2013.1/src/exe/rbdock.cxx#4 $)

>  <Rbt.Library>
libRbt.so (2013.1, Build901 2013/11/27)

>  <Rbt.Parameter_File>
/export/apps/rDock/src/rDock_2013.1_src/data/scripts/dock_solv.prm

>  <Rbt.Receptor>
prm/pocket_docking_3.prm

>  <SCORE>
-20.0944

>  <SCORE.INTER>
-20.0263

>  <SCORE.INTER.CONST>
1

>  <SCORE.INTER.POLAR>
-2.26213

>  <SCORE.INTER.ROT>
6

>  <SCORE.INTER.SOLV>
16.9183

>  <SCORE.INTER.VDW>
-19.0499

>  <SCORE.INTER.norm>
-0.541251

>  <SCORE.INTRA>
-0.179328

>  <SCORE.INTRA.DIHEDRAL>
-0.0923988

>  <SCORE.INTRA.DIHEDRAL.0>
16.4056

>  <SCORE.INTRA.POLAR>
0

>  <SCORE.INTRA.POLAR.0>
0

>  <SCORE.INTRA.REPUL>
0

>  <SCORE.INTRA.REPUL.0>
0

>  <SCORE.INTRA.SOLV>
0.16301

>  <SCORE.INTRA.SOLV.lig_0>
-90.9627

>  <SCORE.INTRA.VDW>
-0.214634

>  <SCORE.INTRA.VDW.0>
-3.28744

>  <SCORE.INTRA.norm>
-0.00484672

>  <SCORE.RESTR>
0.111184

>  <SCORE.RESTR.CAVITY>
0.111184

>  <SCORE.RESTR.norm>
0.00300498

>  <SCORE.SYSTEM>
0

>  <SCORE.SYSTEM.CONST>
0

>  <SCORE.SYSTEM.DIHEDRAL>
0

>  <SCORE.SYSTEM.SOLV>
0

>  <SCORE.SYSTEM.norm>
0

>  <SCORE.heavy>
37

>  <SCORE.norm>
-0.543092

>  <RMSD>
1.086

$$$$
2oe8_lig
 OpenBabel11021811463D
libRbt.so/2013.1/901 2013/11/27
 37 40  0  0  0  0  0  0  0  0999 V2000
   19.9860    1.6135   53.4171 C   0  0  1  0  0  0  0  0  0  0  0  0
   19.2359    2.2043   52.1635 C   0  0  1  0  0  0  0  0  0  0  0  0
   18.4655    1.0740   51.4497 C   0  0  0  0  0  0  0  0  0  0  0  0
   19.5365    0.0207   51.0260 C   0  0  1  0  0  0  0  0  0  0  0  0
   20.3279   -0.5787   52.2989 C   0  0  1  0  0  0  0  0  0  0  0  0
   21.4116   -1.6164   51.8831 C   0  0  1  0  0  0  0  0  0  0  0  0
   20.6782   -2.7687   51.0824 C   0  0  1  0  0  0  0  0  0  0  0  0
   19.8888   -2.1313   49.8863 C   0  0  2  0  0  0  0  0  0  0  0  0
   21.1696   -5.1425   50.0724 C   0  0  0  0  0  0  0  0  0  0  0  0
   18.2802    3.2787   52.5816 N   0  0  0  0  0  0  0  0  0  0  0  0
   21.6711   -3.8175   50.5890 N   0  0  0  0  0  0  0  0  0  0  0  0
   19.0697    1.0606   54.3705 O   0  0  0  0  0  0  0  0  0  0  0  0
   20.9451    0.5384   53.0273 O   0  0  0  0  0  0  0  0  0  0  0  0
   18.9103   -1.0905   50.3188 O   0  0  0  0  0  0  0  0  0  0  0  0
   22.3719   -0.9237   51.0838 O   0  0  0  0  0  0  0  0  0  0  0  0
   19.1983   -3.1269   49.2237 O   0  0  0  0  0  0  0  0  0  0  0  0
   18.6486   -2.6984   47.9662 C   0  0  2  0  0  0  0  0  0  0  0  0
   17.6523   -3.7537   47.4285 C   0  0  1  0  0  0  0  0  0  0  0  0
   18.3666   -5.0900   47.0594 C   0  0  2  0  0  0  0  0  0  0  0  0
   19.4626   -4.8093   45.9893 C   0  0  1  0  0  0  0  0  0  0  0  0
   20.4872   -3.7869   46.6360 C   0  0  1  0  0  0  0  0  0  0  0  0
   21.6105   -3.4166   45.6717 C   0  0  0  0  0  0  0  0  0  0  0  0
   20.1469   -6.0854   45.6345 N   0  0  0  0  0  0  0  0  0  0  0  0
   19.7508   -2.5208   46.9853 O   0  0  0  0  0  0  0  0  0  0  0  0
   16.6438   -3.9428   48.4395 O   0  0  0  0  0  0  0  0  0  0  0  0
   17.4039   -5.9795   46.5338 O   0  0  0  0  0  0  0  0  0  0  0  0
   21.0680   -3.1340   44.4088 O   0  0  0  0  0  0  0  0  0  0  0  0
   19.5822    1.0119   55.6861 C   0  0  1  0  0  0  0  0  0  0  0  0
   18.4578    1.4819   56.6641 C   0  0  1  0  0  0  0  0  0  0  0  0
   19.0193    1.4633   58.1157 C   0  0  2  0  0  0  0  0  0  0  0  0
   19.4998    0.0313   58.5058 C   0  0  1  0  0  0  0  0  0  0  0  0
   20.6268   -0.4560   57.5174 C   0  0  0  0  0  0  0  0  0  0  0  0
   20.0492   -0.4415   56.0415 C   0  0  2  0  0  0  0  0  0  0  0  0
   20.0368    0.0407   59.8948 N   0  0  0  0  0  0  0  0  0  0  0  0
   21.1122   -0.9038   55.1208 N   0  0  0  0  0  0  0  0  0  0  0  0
   18.0391    2.8206   56.3387 O   0  0  0  0  0  0  0  0  0  0  0  0
   17.9790    1.8864   58.9815 O   0  0  0  0  0  0  0  0  0  0  0  0
  1  2  1  0  0  0  0
  1 12  1  1  0  0  0
  1 13  1  0  0  0  0
  2  3  1  0  0  0  0
  2 10  1  1  0  0  0
  4  3  1  1  0  0  0
  4  5  1  0  0  0  0
  4 14  1  0  0  0  0
  5  6  1  0  0  0  0
  5 13  1  6  0  0  0
  6  7  1  0  0  0  0
  6 15  1  6  0  0  0
  7  8  1  0  0  0  0
  7 11  1  6  0  0  0
  8 14  1  0  0  0  0
  8 16  1  1  0  0  0
  9 11  1  0  0  0  0
 17 16  1  1  0  0  0
 17 18  1  0  0  0  0
 17 24  1  0  0  0  0
 18 19  1  0  0  0  0
 18 25  1  1  0  0  0
 19 20  1  0  0  0  0
 19 26  1  6  0  0  0
 20 21  1  0  0  0  0
 20 23  1  1  0  0  0
 21 22  1  6  0  0  0
 21 24  1  0  0  0  0
 22 27  1  0  0  0  0
 28 12  1  6  0  0  0
 28 29  1  0  0  0  0
 28 33  1  0  0  0  0
 29 30  1  0  0  0  0
 29 36  1  6  0  0  0
 30 31  1  0  0  0  0
 30 37  1  1  0  0  0
 31 32  1  0  0  0  0
 31 34  1  1  0  0  0
 32 33  1  0  0  0  0
 33 35  1  6  0  0  0
M  END
>  <CHROM.1>
-156.09975164,166.63817872,-168.80223312,-168.12048379,45.59645322,136.88377525
19.63128921,-1.35458722,51.58212418,1.62353422,-1.13328893,1.13145918

>  <Name>
2oe8_lig

>  <RI>
0

>  <Rbt.Current_Directory>
/home/itssahil/PROJECTS/Mol_Feturizer/New_Systems/rnas/2oe8

>  <Rbt.Executable>
rbdock ($Id: //depot/dev/client3/rdock/2013.1/src/exe/rbdock.cxx#4 $)

>  <Rbt.Library>
libRbt.so (2013.1, Build901 2013/11/27)

>  <Rbt.Parameter_File>
/export/apps/rDock/src/rDock_2013.1_src/data/scripts/dock_solv.prm

>  <Rbt.Receptor>
prm/pocket_docking_3.prm

>  <SCORE>
-18.0563

>  <SCORE.INTER>
-16.0618

>  <SCORE.INTER.CONST>
1

>  <SCORE.INTER.POLAR>
-1.38819

>  <SCORE.INTER.ROT>
6

>  <SCORE.INTER.SOLV>
17.6295

>  <SCORE.INTER.VDW>
-19.5571

>  <SCORE.INTER.norm>
-0.434104

>  <SCORE.INTRA>
-2.03691

>  <SCORE.INTRA.DIHEDRAL>
-5.87941

>  <SCORE.INTRA.DIHEDRAL.0>
16.4056

>  <SCORE.INTRA.POLAR>
0

>  <SCORE.INTRA.POLAR.0>
0

>  <SCORE.INTRA.REPUL>
0

>  <SCORE.INTRA.REPUL.0>
0

>  <SCORE.INTRA.SOLV>
1.23147

>  <SCORE.INTRA.SOLV.lig_0>
-90.9627

>  <SCORE.INTRA.VDW>
0.287058

>  <SCORE.INTRA.VDW.0>
-3.28744

>  <SCORE.INTRA.norm>
-0.0550516

>  <SCORE.RESTR>
0.0424555

>  <SCORE.RESTR.CAVITY>
0.0424555

>  <SCORE.RESTR.norm>
0.00114745

>  <SCORE.SYSTEM>
0

>  <SCORE.SYSTEM.CONST>
0

>  <SCORE.SYSTEM.DIHEDRAL>
0

>  <SCORE.SYSTEM.SOLV>
0

>  <SCORE.SYSTEM.norm>
0

>  <SCORE.heavy>
37

>  <SCORE.norm>
-0.488008

>  <RMSD>
1.107

$$$$
2oe8_lig
 OpenBabel11021811463D
libRbt.so/2013.1/901 2013/11/27
 37 40  0  0  0  0  0  0  0  0999 V2000
   20.6570    1.1550   53.0070 C   0  0  1  0  0  0  0  0  0  0  0  0
   19.6088    1.7799   52.0099 C   0  0  1  0  0  0  0  0  0  0  0  0
   18.8715    0.6460   51.2674 C   0  0  0  0  0  0  0  0  0  0  0  0
   19.9704   -0.1584   50.5050 C   0  0  1  0  0  0  0  0  0  0  0  0
   21.0637   -0.7877   51.5124 C   0  0  1  0  0  0  0  0  0  0  0  0
   22.1744   -1.5759   50.7581 C   0  0  1  0  0  0  0  0  0  0  0  0
   21.4592   -2.7138   49.9212 C   0  0  1  0  0  0  0  0  0  0  0  0
   20.3777   -2.0574   48.9942 C   0  0  2  0  0  0  0  0  0  0  0  0
   22.1839   -4.9591   48.7679 C   0  0  0  0  0  0  0  0  0  0  0  0
   18.6182    2.6239   52.7505 N   0  0  0  0  0  0  0  0  0  0  0  0
   22.4682   -3.5171   49.1051 N   0  0  0  0  0  0  0  0  0  0  0  0
   20.0221    0.3425   54.0024 O   0  0  0  0  0  0  0  0  0  0  0  0
   21.6566    0.3070   52.2932 O   0  0  0  0  0  0  0  0  0  0  0  0
   19.3720   -1.2516   49.7473 O   0  0  0  0  0  0  0  0  0  0  0  0
   22.8633   -0.6400   49.9273 O   0  0  0  0  0  0  0  0  0  0  0  0
   19.7100   -3.0534   48.3092 O   0  0  0  0  0  0  0  0  0  0  0  0
   18.8283   -2.5513   47.2907 C   0  0  2  0  0  0  0  0  0  0  0  0
   17.5777   -3.4551   47.1702 C   0  0  1  0  0  0  0  0  0  0  0  0
   17.9399   -4.8788   46.6468 C   0  0  2  0  0  0  0  0  0  0  0  0
   18.6344   -4.7556   45.2584 C   0  0  1  0  0  0  0  0  0  0  0  0
   19.9440   -3.8883   45.4735 C   0  0  1  0  0  0  0  0  0  0  0  0
   20.7118   -3.6802   44.1712 C   0  0  0  0  0  0  0  0  0  0  0  0
   18.9815   -6.1155   44.7557 N   0  0  0  0  0  0  0  0  0  0  0  0
   19.5452   -2.5309   45.9891 O   0  0  0  0  0  0  0  0  0  0  0  0
   16.9567   -3.5001   48.4692 O   0  0  0  0  0  0  0  0  0  0  0  0
   16.7467   -5.6233   46.5184 O   0  0  0  0  0  0  0  0  0  0  0  0
   20.0224   -2.7626   43.3638 O   0  0  0  0  0  0  0  0  0  0  0  0
   20.5286    0.5444   55.3057 C   0  0  1  0  0  0  0  0  0  0  0  0
   19.4011    0.1868   56.3267 C   0  0  1  0  0  0  0  0  0  0  0  0
   19.9356    0.4350   57.7674 C   0  0  2  0  0  0  0  0  0  0  0  0
   21.2014   -0.4331   58.0463 C   0  0  1  0  0  0  0  0  0  0  0  0
   22.3408   -0.0870   57.0135 C   0  0  0  0  0  0  0  0  0  0  0  0
   21.7947   -0.3471   55.5485 C   0  0  2  0  0  0  0  0  0  0  0  0
   21.6962   -0.1740   59.4268 N   0  0  0  0  0  0  0  0  0  0  0  0
   22.8715   -0.0234   54.5858 N   0  0  0  0  0  0  0  0  0  0  0  0
   18.2442    1.0147   56.1049 O   0  0  0  0  0  0  0  0  0  0  0  0
   18.8975    0.0968   58.6723 O   0  0  0  0  0  0  0  0  0  0  0  0
  1  2  1  0  0  0  0
  1 12  1  1  0  0  0
  1 13  1  0  0  0  0
  2  3  1  0  0  0  0
  2 10  1  1  0  0  0
  4  3  1  1  0  0  0
  4  5  1  0  0  0  0
  4 14  1  0  0  0  0
  5  6  1  0  0  0  0
  5 13  1  6  0  0  0
  6  7  1  0  0  0  0
  6 15  1  6  0  0  0
  7  8  1  0  0  0  0
  7 11  1  6  0  0  0
  8 14  1  0  0  0  0
  8 16  1  1  0  0  0
  9 11  1  0  0  0  0
 17 16  1  1  0  0  0
 17 18  1  0  0  0  0
 17 24  1  0  0  0  0
 18 19  1  0  0  0  0
 18 25  1  1  0  0  0
 19 20  1  0  0  0  0
 19 26  1  6  0  0  0
 20 21  1  0  0  0  0
 20 23  1  1  0  0  0
 21 22  1  6  0  0  0
 21 24  1  0  0  0  0
 22 27  1  0  0  0  0
 28 12  1  6  0  0  0
 28 29  1  0  0  0  0
 28 33  1  0  0  0  0
 29 30  1  0  0  0  0
 29 36  1  6  0  0  0
 30 31  1  0  0  0  0
 30 37  1  1  0  0  0
 31 32  1  0  0  0  0
 31 34  1  1  0  0  0
 32 33  1  0  0  0  0
 33 35  1  6  0  0  0
M  END
>  <CHROM.1>
-136.48489555,151.48787939,-171.61972238,-145.89600873,73.32750135,153.39595555
20.08316869,-1.53840835,50.95236968,-1.45944544,0.00125906,-1.96774366

>  <Name>
2oe8_lig

>  <RI>
0

>  <Rbt.Current_Directory>
/home/itssahil/PROJECTS/Mol_Feturizer/New_Systems/rnas/2oe8

>  <Rbt.Executable>
rbdock ($Id: //depot/dev/client3/rdock/2013.1/src/exe/rbdock.cxx#4 $)

>  <Rbt.Library>
libRbt.so (2013.1, Build901 2013/11/27)

>  <Rbt.Parameter_File>
/export/apps/rDock/src/rDock_2013.1_src/data/scripts/dock_solv.prm

>  <Rbt.Receptor>
prm/pocket_docking_3.prm

>  <SCORE>
-20.2636

>  <SCORE.INTER>
-19.6395

>  <SCORE.INTER.CONST>
1

>  <SCORE.INTER.POLAR>
-2.21875

>  <SCORE.INTER.ROT>
6

>  <SCORE.INTER.SOLV>
17.2499

>  <SCORE.INTER.VDW>
-19.0471

>  <SCORE.INTER.norm>
-0.530797

>  <SCORE.INTRA>
-0.761497

>  <SCORE.INTRA.DIHEDRAL>
-1.60872

>  <SCORE.INTRA.DIHEDRAL.0>
16.4056

>  <SCORE.INTRA.POLAR>
0

>  <SCORE.INTRA.POLAR.0>
0

>  <SCORE.INTRA.REPUL>
0

>  <SCORE.INTRA.REPUL.0>
0

>  <SCORE.INTRA.SOLV>
-0.0074829

>  <SCORE.INTRA.SOLV.lig_0>
-90.9627

>  <SCORE.INTRA.VDW>
0.046603

>  <SCORE.INTRA.VDW.0>
-3.28744

>  <SCORE.INTRA.norm>
-0.020581

>  <SCORE.RESTR>
0.137352

>  <SCORE.RESTR.CAVITY>
0.137352

>  <SCORE.RESTR.norm>
0.00371221

>  <SCORE.SYSTEM>
0

>  <SCORE.SYSTEM.CONST>
0

>  <SCORE.SYSTEM.DIHEDRAL>
0

>  <SCORE.SYSTEM.SOLV>
0

>  <SCORE.SYSTEM.norm>
0

>  <SCORE.heavy>
37

>  <SCORE.norm>
-0.547666

>  <RMSD>
1.158

$$$$
2oe8_lig
 OpenBabel11021811463D
libRbt.so/2013.1/901 2013/11/27
 37 40  0  0  0  0  0  0  0  0999 V2000
   20.2829    1.1345   53.2107 C   0  0  1  0  0  0  0  0  0  0  0  0
   19.0276    1.3933   52.2938 C   0  0  1  0  0  0  0  0  0  0  0  0
   18.3961    0.0420   51.8994 C   0  0  0  0  0  0  0  0  0  0  0  0
   19.5044   -0.7471   51.1346 C   0  0  1  0  0  0  0  0  0  0  0  0
   20.8058   -1.0020   52.0551 C   0  0  1  0  0  0  0  0  0  0  0  0
   21.9242   -1.7721   51.2934 C   0  0  1  0  0  0  0  0  0  0  0  0
   21.3027   -3.1438   50.8046 C   0  0  1  0  0  0  0  0  0  0  0  0
   20.0187   -2.8444   49.9552 C   0  0  2  0  0  0  0  0  0  0  0  0
   23.6710   -4.2581   50.5899 C   0  0  0  0  0  0  0  0  0  0  0  0
   18.0159    2.2309   53.0130 N   0  0  0  0  0  0  0  0  0  0  0  0
   22.3161   -3.9550   50.0017 N   0  0  0  0  0  0  0  0  0  0  0  0
   19.9222    0.4670   54.4265 O   0  0  0  0  0  0  0  0  0  0  0  0
   21.3075    0.2998   52.5168 O   0  0  0  0  0  0  0  0  0  0  0  0
   19.0002   -2.0434   50.6959 O   0  0  0  0  0  0  0  0  0  0  0  0
   22.3388   -0.9437   50.2058 O   0  0  0  0  0  0  0  0  0  0  0  0
   19.4402   -4.0410   49.5801 O   0  0  0  0  0  0  0  0  0  0  0  0
   18.4009   -3.8878   48.5986 C   0  0  2  0  0  0  0  0  0  0  0  0
   17.6132   -5.2107   48.4401 C   0  0  1  0  0  0  0  0  0  0  0  0
   18.4987   -6.3436   47.8362 C   0  0  2  0  0  0  0  0  0  0  0  0
   19.0437   -5.8876   46.4505 C   0  0  1  0  0  0  0  0  0  0  0  0
   19.9028   -4.5790   46.7009 C   0  0  1  0  0  0  0  0  0  0  0  0
   20.4836   -4.0201   45.4051 C   0  0  0  0  0  0  0  0  0  0  0  0
   19.8905   -6.9692   45.8710 N   0  0  0  0  0  0  0  0  0  0  0  0
   19.0101   -3.5211   47.2936 O   0  0  0  0  0  0  0  0  0  0  0  0
   17.1016   -5.5613   49.7402 O   0  0  0  0  0  0  0  0  0  0  0  0
   17.6997   -7.4972   47.6781 O   0  0  0  0  0  0  0  0  0  0  0  0
   19.4381   -3.6235   44.5573 O   0  0  0  0  0  0  0  0  0  0  0  0
   20.8308    0.6885   55.4853 C   0  0  1  0  0  0  0  0  0  0  0  0
   20.4462    2.0325   56.1835 C   0  0  1  0  0  0  0  0  0  0  0  0
   21.4593    2.3052   57.3333 C   0  0  2  0  0  0  0  0  0  0  0  0
   21.4443    1.1421   58.3728 C   0  0  1  0  0  0  0  0  0  0  0  0
   21.8204   -0.2204   57.6749 C   0  0  0  0  0  0  0  0  0  0  0  0
   20.7829   -0.4974   56.5091 C   0  0  2  0  0  0  0  0  0  0  0  0
   22.4243    1.4234   59.4582 N   0  0  0  0  0  0  0  0  0  0  0  0
   21.1409   -1.7797   55.8621 N   0  0  0  0  0  0  0  0  0  0  0  0
   20.5006    3.1195   55.2408 O   0  0  0  0  0  0  0  0  0  0  0  0
   21.0840    3.5242   57.9531 O   0  0  0  0  0  0  0  0  0  0  0  0
  1  2  1  0  0  0  0
  1 12  1  1  0  0  0
  1 13  1  0  0  0  0
  2  3  1  0  0  0  0
  2 10  1  1  0  0  0
  4  3  1  1  0  0  0
  4  5  1  0  0  0  0
  4 14  1  0  0  0  0
  5  6  1  0  0  0  0
  5 13  1  6  0  0  0
  6  7  1  0  0  0  0
  6 15  1  6  0  0  0
  7  8  1  0  0  0  0
  7 11  1  6  0  0  0
  8 14  1  0  0  0  0
  8 16  1  1  0  0  0
  9 11  1  0  0  0  0
 17 16  1  1  0  0  0
 17 18  1  0  0  0  0
 17 24  1  0  0  0  0
 18 19  1  0  0  0  0
 18 25  1  1  0  0  0
 19 20  1  0  0  0  0
 19 26  1  6  0  0  0
 20 21  1  0  0  0  0
 20 23  1  1  0  0  0
 21 22  1  6  0  0  0
 21 24  1  0  0  0  0
 22 27  1  0  0  0  0
 28 12  1  6  0  0  0
 28 29  1  0  0  0  0
 28 33  1  0  0  0  0
 29 30  1  0  0  0  0
 29 36  1  6  0  0  0
 30 31  1  0  0  0  0
 30 37  1  1  0  0  0
 31 32  1  0  0  0  0
 31 34  1  1  0  0  0
 32 33  1  0  0  0  0
 33 35  1  6  0  0  0
M  END
>  <CHROM.1>
-155.47600684,53.60972747,-169.27287580,-168.58761148,63.46727596,84.43400341
20.16079610,-1.75637129,51.64180152,1.30292938,-0.95673522,0.73114084

>  <Name>
2oe8_lig

>  <RI>
0

>  <Rbt.Current_Directory>
/home/itssahil/PROJECTS/Mol_Feturizer/New_Systems/rnas/2oe8

>  <Rbt.Executable>
rbdock ($Id: //depot/dev/client3/rdock/2013.1/src/exe/rbdock.cxx#4 $)

>  <Rbt.Library>
libRbt.so (2013.1, Build901 2013/11/27)

>  <Rbt.Parameter_File>
/export/apps/rDock/src/rDock_2013.1_src/data/scripts/dock_solv.prm

>  <Rbt.Receptor>
prm/pocket_docking_3.prm

>  <SCORE>
-10.0768

>  <SCORE.INTER>
-5.31267

>  <SCORE.INTER.CONST>
1

>  <SCORE.INTER.POLAR>
0

>  <SCORE.INTER.ROT>
6

>  <SCORE.INTER.SOLV>
18.4644

>  <SCORE.INTER.VDW>
-17.2966

>  <SCORE.INTER.norm>
-0.143586

>  <SCORE.INTRA>
-4.7641

>  <SCORE.INTRA.DIHEDRAL>
-9.96169

>  <SCORE.INTRA.DIHEDRAL.0>
16.4056

>  <SCORE.INTRA.POLAR>
0

>  <SCORE.INTRA.POLAR.0>
0

>  <SCORE.INTRA.REPUL>
0

>  <SCORE.INTRA.REPUL.0>
0

>  <SCORE.INTRA.SOLV>
-1.19117

>  <SCORE.INTRA.SOLV.lig_0>
-90.9627

>  <SCORE.INTRA.VDW>
0.812326

>  <SCORE.INTRA.VDW.0>
-3.28744

>  <SCORE.INTRA.norm>
-0.12876

>  <SCORE.RESTR>
0

>  <SCORE.RESTR.CAVITY>
0

>  <SCORE.RESTR.norm>
0

>  <SCORE.SYSTEM>
0

>  <SCORE.SYSTEM.CONST>
0

>  <SCORE.SYSTEM.DIHEDRAL>
0

>  <SCORE.SYSTEM.SOLV>
0

>  <SCORE.SYSTEM.norm>
0

>  <SCORE.heavy>
37

>  <SCORE.norm>
-0.272345

>  <RMSD>
1.159

$$$$
2oe8_lig
 OpenBabel11021811463D
libRbt.so/2013.1/901 2013/11/27
 37 40  0  0  0  0  0  0  0  0999 V2000
   20.2702    1.5446   53.2747 C   0  0  1  0  0  0  0  0  0  0  0  0
   19.3508    2.1137   52.1282 C   0  0  1  0  0  0  0  0  0  0  0  0
   18.5826    0.9513   51.4655 C   0  0  0  0  0  0  0  0  0  0  0  0
   19.6674   -0.0155   50.8959 C   0  0  1  0  0  0  0  0  0  0  0  0
   20.6304   -0.5908   52.0567 C   0  0  1  0  0  0  0  0  0  0  0  0
   21.7276   -1.5414   51.4943 C   0  0  1  0  0  0  0  0  0  0  0  0
   20.9879   -2.7210   50.7404 C   0  0  1  0  0  0  0  0  0  0  0  0
   20.0329   -2.1097   49.6568 C   0  0  2  0  0  0  0  0  0  0  0  0
   23.2167   -4.1031   50.8779 C   0  0  0  0  0  0  0  0  0  0  0  0
   18.3785    3.1095   52.6805 N   0  0  0  0  0  0  0  0  0  0  0  0
   21.9874   -3.6870   50.1101 N   0  0  0  0  0  0  0  0  0  0  0  0
   19.5015    0.9071   54.3026 O   0  0  0  0  0  0  0  0  0  0  0  0
   21.2492    0.5476   52.7501 O   0  0  0  0  0  0  0  0  0  0  0  0
   19.0416   -1.1492   50.2247 O   0  0  0  0  0  0  0  0  0  0  0  0
   22.5477   -0.7652   50.6191 O   0  0  0  0  0  0  0  0  0  0  0  0
   19.3406   -3.1335   49.0406 O   0  0  0  0  0  0  0  0  0  0  0  0
   19.5143   -3.1600   47.6137 C   0  0  2  0  0  0  0  0  0  0  0  0
   18.1439   -3.3040   46.9088 C   0  0  1  0  0  0  0  0  0  0  0  0
   17.4821   -4.6847   47.2051 C   0  0  2  0  0  0  0  0  0  0  0  0
   18.4356   -5.8236   46.7372 C   0  0  1  0  0  0  0  0  0  0  0  0
   19.7835   -5.6618   47.5558 C   0  0  1  0  0  0  0  0  0  0  0  0
   20.8151   -6.7191   47.1727 C   0  0  0  0  0  0  0  0  0  0  0  0
   17.8049   -7.1447   47.0191 N   0  0  0  0  0  0  0  0  0  0  0  0
   20.3773   -4.3129   47.2470 O   0  0  0  0  0  0  0  0  0  0  0  0
   17.3208   -2.2063   47.3474 O   0  0  0  0  0  0  0  0  0  0  0  0
   16.2657   -4.7580   46.4914 O   0  0  0  0  0  0  0  0  0  0  0  0
   21.1172   -6.6040   45.8072 O   0  0  0  0  0  0  0  0  0  0  0  0
   20.1589    0.8560   55.5521 C   0  0  1  0  0  0  0  0  0  0  0  0
   19.1636    1.3591   56.6466 C   0  0  1  0  0  0  0  0  0  0  0  0
   19.8857    1.3379   58.0253 C   0  0  2  0  0  0  0  0  0  0  0  0
   20.3754   -0.1020   58.3725 C   0  0  1  0  0  0  0  0  0  0  0  0
   21.3718   -0.6224   57.2675 C   0  0  0  0  0  0  0  0  0  0  0  0
   20.6308   -0.6052   55.8665 C   0  0  2  0  0  0  0  0  0  0  0  0
   21.0668   -0.0949   59.6915 N   0  0  0  0  0  0  0  0  0  0  0  0
   21.5718   -1.0987   54.8359 N   0  0  0  0  0  0  0  0  0  0  0  0
   18.7405    2.7047   56.3576 O   0  0  0  0  0  0  0  0  0  0  0  0
   18.9601    1.7913   58.9993 O   0  0  0  0  0  0  0  0  0  0  0  0
  1  2  1  0  0  0  0
  1 12  1  1  0  0  0
  1 13  1  0  0  0  0
  2  3  1  0  0  0  0
  2 10  1  1  0  0  0
  4  3  1  1  0  0  0
  4  5  1  0  0  0  0
  4 14  1  0  0  0  0
  5  6  1  0  0  0  0
  5 13  1  6  0  0  0
  6  7  1  0  0  0  0
  6 15  1  6  0  0  0
  7  8  1  0  0  0  0
  7 11  1  6  0  0  0
  8 14  1  0  0  0  0
  8 16  1  1  0  0  0
  9 11  1  0  0  0  0
 17 16  1  1  0  0  0
 17 18  1  0  0  0  0
 17 24  1  0  0  0  0
 18 19  1  0  0  0  0
 18 25  1  1  0  0  0
 19 20  1  0  0  0  0
 19 26  1  6  0  0  0
 20 21  1  0  0  0  0
 20 23  1  1  0  0  0
 21 22  1  6  0  0  0
 21 24  1  0  0  0  0
 22 27  1  0  0  0  0
 28 12  1  6  0  0  0
 28 29  1  0  0  0  0
 28 33  1  0  0  0  0
 29 30  1  0  0  0  0
 29 36  1  6  0  0  0
 30 31  1  0  0  0  0
 30 37  1  1  0  0  0
 31 32  1  0  0  0  0
 31 34  1  1  0  0  0
 32 33  1  0  0  0  0
 33 35  1  6  0  0  0
M  END
>  <CHROM.1>
-156.35135240,42.24991344,-123.26247751,-132.21733638,60.10751734,131.42346553
19.87215566,-1.61821138,51.60909450,1.46810936,-0.79326601,0.93270829

>  <Name>
2oe8_lig

>  <RI>
0

>  <Rbt.Current_Directory>
/home/itssahil/PROJECTS/Mol_Feturizer/New_Systems/rnas/2oe8

>  <Rbt.Executable>
rbdock ($Id: //depot/dev/client3/rdock/2013.1/src/exe/rbdock.cxx#4 $)

>  <Rbt.Library>
libRbt.so (2013.1, Build901 2013/11/27)

>  <Rbt.Parameter_File>
/export/apps/rDock/src/rDock_2013.1_src/data/scripts/dock_solv.prm

>  <Rbt.Receptor>
prm/pocket_docking_2.prm

>  <SCORE>
-4.4751

>  <SCORE.INTER>
-9.17473

>  <SCORE.INTER.CONST>
1

>  <SCORE.INTER.POLAR>
-0.989336

>  <SCORE.INTER.ROT>
6

>  <SCORE.INTER.SOLV>
15.3926

>  <SCORE.INTER.VDW>
-15.5496

>  <SCORE.INTER.norm>
-0.247966

>  <SCORE.INTRA>
4.04882

>  <SCORE.INTRA.DIHEDRAL>
6.44097

>  <SCORE.INTRA.DIHEDRAL.0>
16.4056

>  <SCORE.INTRA.POLAR>
0

>  <SCORE.INTRA.POLAR.0>
0

>  <SCORE.INTRA.REPUL>
0

>  <SCORE.INTRA.REPUL.0>
0

>  <SCORE.INTRA.SOLV>
1.59316

>  <SCORE.INTRA.SOLV.lig_0>
-90.9627

>  <SCORE.INTRA.VDW>
0.0317483

>  <SCORE.INTRA.VDW.0>
-3.28744

>  <SCORE.INTRA.norm>
0.109427

>  <SCORE.RESTR>
0.65081

>  <SCORE.RESTR.CAVITY>
0.65081

>  <SCORE.RESTR.norm>
0.0175895

>  <SCORE.SYSTEM>
0

>  <SCORE.SYSTEM.CONST>
0

>  <SCORE.SYSTEM.DIHEDRAL>
0

>  <SCORE.SYSTEM.SOLV>
0

>  <SCORE.SYSTEM.norm>
0

>  <SCORE.heavy>
37

>  <SCORE.norm>
-0.120949

>  <RMSD>
1.209

$$$$
2oe8_lig
 OpenBabel11021811463D
libRbt.so/2013.1/901 2013/11/27
 37 40  0  0  0  0  0  0  0  0999 V2000
   20.5406    1.6026   53.1846 C   0  0  1  0  0  0  0  0  0  0  0  0
   19.3901    2.1570   52.2613 C   0  0  1  0  0  0  0  0  0  0  0  0
   18.7171    0.9814   51.5226 C   0  0  0  0  0  0  0  0  0  0  0  0
   19.8405    0.2986   50.6814 C   0  0  1  0  0  0  0  0  0  0  0  0
   21.0368   -0.2564   51.6126 C   0  0  1  0  0  0  0  0  0  0  0  0
   22.1710   -0.9222   50.7794 C   0  0  1  0  0  0  0  0  0  0  0  0
   21.5153   -2.0974   49.9452 C   0  0  1  0  0  0  0  0  0  0  0  0
   20.3327   -1.5164   49.0945 C   0  0  2  0  0  0  0  0  0  0  0  0
   23.7050   -3.5224   49.6785 C   0  0  0  0  0  0  0  0  0  0  0  0
   18.3698    2.8895   53.0764 N   0  0  0  0  0  0  0  0  0  0  0  0
   22.5464   -2.7857   49.0550 N   0  0  0  0  0  0  0  0  0  0  0  0
   20.0333    0.7110   54.1854 O   0  0  0  0  0  0  0  0  0  0  0  0
   21.5717    0.8663   52.3956 O   0  0  0  0  0  0  0  0  0  0  0  0
   19.3014   -0.8236   49.9218 O   0  0  0  0  0  0  0  0  0  0  0  0
   22.7299    0.0929   49.9439 O   0  0  0  0  0  0  0  0  0  0  0  0
   19.7199   -2.5500   48.4140 O   0  0  0  0  0  0  0  0  0  0  0  0
   20.0492   -2.5847   47.0150 C   0  0  2  0  0  0  0  0  0  0  0  0
   18.8441   -3.1015   46.1926 C   0  0  1  0  0  0  0  0  0  0  0  0
   18.5218   -4.5935   46.5119 C   0  0  2  0  0  0  0  0  0  0  0  0
   19.7758   -5.4668   46.2114 C   0  0  1  0  0  0  0  0  0  0  0  0
   20.9424   -4.9342   47.1435 C   0  0  1  0  0  0  0  0  0  0  0  0
   22.2418   -5.7054   46.9296 C   0  0  0  0  0  0  0  0  0  0  0  0
   19.4701   -6.8938   46.5157 N   0  0  0  0  0  0  0  0  0  0  0  0
   21.2086   -3.4908   46.8073 O   0  0  0  0  0  0  0  0  0  0  0  0
   17.7291   -2.2357   46.4790 O   0  0  0  0  0  0  0  0  0  0  0  0
   17.4481   -5.0029   45.6910 O   0  0  0  0  0  0  0  0  0  0  0  0
   22.0702   -7.0345   47.3458 O   0  0  0  0  0  0  0  0  0  0  0  0
   20.8284    0.6576   55.3519 C   0  0  1  0  0  0  0  0  0  0  0  0
   20.2106    1.6306   56.4069 C   0  0  1  0  0  0  0  0  0  0  0  0
   21.0955    1.6056   57.6872 C   0  0  2  0  0  0  0  0  0  0  0  0
   21.1771    0.1635   58.2766 C   0  0  1  0  0  0  0  0  0  0  0  0
   21.7891   -0.8278   57.2148 C   0  0  0  0  0  0  0  0  0  0  0  0
   20.8818   -0.8040   55.9154 C   0  0  2  0  0  0  0  0  0  0  0  0
   22.0323    0.1647   59.4957 N   0  0  0  0  0  0  0  0  0  0  0  0
   21.4612   -1.7399   54.9256 N   0  0  0  0  0  0  0  0  0  0  0  0
   20.1723    2.9730   55.8876 O   0  0  0  0  0  0  0  0  0  0  0  0
   20.5099    2.4897   58.6286 O   0  0  0  0  0  0  0  0  0  0  0  0
  1  2  1  0  0  0  0
  1 12  1  1  0  0  0
  1 13  1  0  0  0  0
  2  3  1  0  0  0  0
  2 10  1  1  0  0  0
  4  3  1  1  0  0  0
  4  5  1  0  0  0  0
  4 14  1  0  0  0  0
  5  6  1  0  0  0  0
  5 13  1  6  0  0  0
  6  7  1  0  0  0  0
  6 15  1  6  0  0  0
  7  8  1  0  0  0  0
  7 11  1  6  0  0  0
  8 14  1  0  0  0  0
  8 16  1  1  0  0  0
  9 11  1  0  0  0  0
 17 16  1  1  0  0  0
 17 18  1  0  0  0  0
 17 24  1  0  0  0  0
 18 19  1  0  0  0  0
 18 25  1  1  0  0  0
 19 20  1  0  0  0  0
 19 26  1  6  0  0  0
 20 21  1  0  0  0  0
 20 23  1  1  0  0  0
 21 22  1  6  0  0  0
 21 24  1  0  0  0  0
 22 27  1  0  0  0  0
 28 12  1  6  0  0  0
 28 29  1  0  0  0  0
 28 33  1  0  0  0  0
 29 30  1  0  0  0  0
 29 36  1  6  0  0  0
 30 31  1  0  0  0  0
 30 37  1  1  0  0  0
 31 32  1  0  0  0  0
 31 34  1  1  0  0  0
 32 33  1  0  0  0  0
 33 35  1  6  0  0  0
M  END
>  <CHROM.1>
-153.19715266,64.02686265,-104.50941247,-146.70944573,-65.79720144,96.54533719
20.53699457,-1.35092470,51.26773932,1.47452438,-0.88158931,0.96351643

>  <Name>
2oe8_lig

>  <RI>
0

>  <Rbt.Current_Directory>
/home/itssahil/PROJECTS/Mol_Feturizer/New_Systems/rnas/2oe8

>  <Rbt.Executable>
rbdock ($Id: //depot/dev/client3/rdock/2013.1/src/exe/rbdock.cxx#4 $)

>  <Rbt.Library>
libRbt.so (2013.1, Build901 2013/11/27)

>  <Rbt.Parameter_File>
/export/apps/rDock/src/rDock_2013.1_src/data/scripts/dock_solv.prm

>  <Rbt.Receptor>
prm/pocket_docking_3.prm

>  <SCORE>
-11.7536

>  <SCORE.INTER>
-12.7361

>  <SCORE.INTER.CONST>
1

>  <SCORE.INTER.POLAR>
-1.0198

>  <SCORE.INTER.ROT>
6

>  <SCORE.INTER.SOLV>
16.7486

>  <SCORE.INTER.VDW>
-18.2743

>  <SCORE.INTER.norm>
-0.34422

>  <SCORE.INTRA>
0.926387

>  <SCORE.INTRA.DIHEDRAL>
1.81515

>  <SCORE.INTRA.DIHEDRAL.0>
16.4056

>  <SCORE.INTRA.POLAR>
0

>  <SCORE.INTRA.POLAR.0>
0

>  <SCORE.INTRA.REPUL>
0

>  <SCORE.INTRA.REPUL.0>
0

>  <SCORE.INTRA.SOLV>
1.33281

>  <SCORE.INTRA.SOLV.lig_0>
-90.9627

>  <SCORE.INTRA.VDW>
-0.647598

>  <SCORE.INTRA.VDW.0>
-3.28744

>  <SCORE.INTRA.norm>
0.0250375

>  <SCORE.RESTR>
0.0561307

>  <SCORE.RESTR.CAVITY>
0.0561307

>  <SCORE.RESTR.norm>
0.00151705

>  <SCORE.SYSTEM>
0

>  <SCORE.SYSTEM.CONST>
0

>  <SCORE.SYSTEM.DIHEDRAL>
0

>  <SCORE.SYSTEM.SOLV>
0

>  <SCORE.SYSTEM.norm>
0

>  <SCORE.heavy>
37

>  <SCORE.norm>
-0.317665

>  <RMSD>
1.294

$$$$
2oe8_lig
 OpenBabel11021811463D
libRbt.so/2013.1/901 2013/11/27
 37 40  0  0  0  0  0  0  0  0999 V2000
   20.2711    1.5437   53.3293 C   0  0  1  0  0  0  0  0  0  0  0  0
   19.0130    1.9149   52.4559 C   0  0  1  0  0  0  0  0  0  0  0  0
   18.6082    0.6966   51.6000 C   0  0  0  0  0  0  0  0  0  0  0  0
   19.8434    0.3669   50.7047 C   0  0  1  0  0  0  0  0  0  0  0  0
   21.1464    0.0047   51.5862 C   0  0  1  0  0  0  0  0  0  0  0  0
   22.3884   -0.3069   50.7007 C   0  0  1  0  0  0  0  0  0  0  0  0
   21.9990   -1.5117   49.7499 C   0  0  1  0  0  0  0  0  0  0  0  0
   20.7047   -1.1289   48.9511 C   0  0  2  0  0  0  0  0  0  0  0  0
   24.3159   -2.6670   49.3095 C   0  0  0  0  0  0  0  0  0  0  0  0
   17.8669    2.3184   53.3310 N   0  0  0  0  0  0  0  0  0  0  0  0
   23.1447   -1.8625   48.8046 N   0  0  0  0  0  0  0  0  0  0  0  0
   19.9894    0.4682   54.2337 O   0  0  0  0  0  0  0  0  0  0  0  0
   21.4289    1.1364   52.4800 O   0  0  0  0  0  0  0  0  0  0  0  0
   19.5569   -0.7677   49.8342 O   0  0  0  0  0  0  0  0  0  0  0  0
   22.6953    0.8837   49.9734 O   0  0  0  0  0  0  0  0  0  0  0  0
   20.3278   -2.2018   48.1675 O   0  0  0  0  0  0  0  0  0  0  0  0
   18.9025   -2.3634   48.0711 C   0  0  2  0  0  0  0  0  0  0  0  0
   18.4549   -3.6387   48.8253 C   0  0  1  0  0  0  0  0  0  0  0  0
   18.9992   -4.9337   48.1479 C   0  0  2  0  0  0  0  0  0  0  0  0
   18.4996   -4.9926   46.6740 C   0  0  1  0  0  0  0  0  0  0  0  0
   19.0607   -3.7014   45.9452 C   0  0  1  0  0  0  0  0  0  0  0  0
   18.6229   -3.6339   44.4848 C   0  0  0  0  0  0  0  0  0  0  0  0
   19.0185   -6.2300   46.0242 N   0  0  0  0  0  0  0  0  0  0  0  0
   18.5188   -2.4805   46.6402 O   0  0  0  0  0  0  0  0  0  0  0  0
   18.9082   -3.5110   50.1866 O   0  0  0  0  0  0  0  0  0  0  0  0
   18.5099   -6.0495   48.8620 O   0  0  0  0  0  0  0  0  0  0  0  0
   19.1588   -2.4819   43.8892 O   0  0  0  0  0  0  0  0  0  0  0  0
   20.7930    0.4799   55.3955 C   0  0  1  0  0  0  0  0  0  0  0  0
   20.1833    1.5113   56.3986 C   0  0  1  0  0  0  0  0  0  0  0  0
   21.0776    1.5576   57.6717 C   0  0  2  0  0  0  0  0  0  0  0  0
   21.1630    0.1509   58.3407 C   0  0  1  0  0  0  0  0  0  0  0  0
   21.7668   -0.8991   57.3319 C   0  0  0  0  0  0  0  0  0  0  0  0
   20.8500   -0.9477   56.0399 C   0  0  2  0  0  0  0  0  0  0  0  0
   22.0272    0.2201   59.5515 N   0  0  0  0  0  0  0  0  0  0  0  0
   21.4217   -1.9383   55.1002 N   0  0  0  0  0  0  0  0  0  0  0  0
   20.1418    2.8223   55.8047 O   0  0  0  0  0  0  0  0  0  0  0  0
   20.4992    2.4938   58.5661 O   0  0  0  0  0  0  0  0  0  0  0  0
  1  2  1  0  0  0  0
  1 12  1  1  0  0  0
  1 13  1  0  0  0  0
  2  3  1  0  0  0  0
  2 10  1  1  0  0  0
  4  3  1  1  0  0  0
  4  5  1  0  0  0  0
  4 14  1  0  0  0  0
  5  6  1  0  0  0  0
  5 13  1  1  0  0  0
  6  7  1  0  0  0  0
  6 15  1  6  0  0  0
  7  8  1  0  0  0  0
  7 11  1  6  0  0  0
  8 14  1  0  0  0  0
  8 16  1  1  0  0  0
  9 11  1  0  0  0  0
 17 16  1  6  0  0  0
 17 18  1  0  0  0  0
 17 24  1  0  0  0  0
 18 19  1  0  0  0  0
 18 25  1  1  0  0  0
 19 20  1  0  0  0  0
 19 26  1  1  0  0  0
 20 21  1  0  0  0  0
 20 23  1  6  0  0  0
 21 22  1  6  0  0  0
 21 24  1  0  0  0  0
 22 27  1  0  0  0  0
 28 12  1  6  0  0  0
 28 29  1  0  0  0  0
 28 33  1  0  0  0  0
 29 30  1  0  0  0  0
 29 36  1  6  0  0  0
 30 31  1  0  0  0  0
 30 37  1  1  0  0  0
 31 32  1  0  0  0  0
 31 34  1  1  0  0  0
 32 33  1  0  0  0  0
 33 35  1  6  0  0  0
M  END
>  <CHROM.1>
-153.20082363,78.10005628,143.29334606,-110.75533828,-179.38355035,80.85282410
20.26490192,-1.07174142,51.39681131,0.21895107,-1.43439803,-0.22267166

>  <Name>
2oe8_lig

>  <RI>
0

>  <Rbt.Current_Directory>
/home/itssahil/PROJECTS/Mol_Feturizer/New_Systems/rnas/2oe8

>  <Rbt.Executable>
rbdock ($Id: //depot/dev/client3/rdock/2013.1/src/exe/rbdock.cxx#4 $)

>  <Rbt.Library>
libRbt.so (2013.1, Build901 2013/11/27)

>  <Rbt.Parameter_File>
/export/apps/rDock/src/rDock_2013.1_src/data/scripts/dock_solv.prm

>  <Rbt.Receptor>
prm/pocket_docking_3.prm

>  <SCORE>
-16.7263

>  <SCORE.INTER>
-18.7838

>  <SCORE.INTER.CONST>
1

>  <SCORE.INTER.POLAR>
-1.97934

>  <SCORE.INTER.ROT>
6

>  <SCORE.INTER.SOLV>
21.0522

>  <SCORE.INTER.VDW>
-20.5421

>  <SCORE.INTER.norm>
-0.507671

>  <SCORE.INTRA>
2.0575

>  <SCORE.INTRA.DIHEDRAL>
0.406295

>  <SCORE.INTRA.DIHEDRAL.0>
16.4056

>  <SCORE.INTRA.POLAR>
0

>  <SCORE.INTRA.POLAR.0>
0

>  <SCORE.INTRA.REPUL>
0

>  <SCORE.INTRA.REPUL.0>
0

>  <SCORE.INTRA.SOLV>
-1.60387

>  <SCORE.INTRA.SOLV.lig_0>
-90.9627

>  <SCORE.INTRA.VDW>
2.65629

>  <SCORE.INTRA.VDW.0>
-3.28744

>  <SCORE.INTRA.norm>
0.0556081

>  <SCORE.RESTR>
0

>  <SCORE.RESTR.CAVITY>
0

>  <SCORE.RESTR.norm>
0

>  <SCORE.SYSTEM>
0

>  <SCORE.SYSTEM.CONST>
0

>  <SCORE.SYSTEM.DIHEDRAL>
0

>  <SCORE.SYSTEM.SOLV>
0

>  <SCORE.SYSTEM.norm>
0

>  <SCORE.heavy>
37

>  <SCORE.norm>
-0.452062

>  <RMSD>
1.296

$$$$
2oe8_lig
 OpenBabel11021811463D
libRbt.so/2013.1/901 2013/11/27
 37 40  0  0  0  0  0  0  0  0999 V2000
   21.8539    0.2989   53.5988 C   0  0  1  0  0  0  0  0  0  0  0  0
   21.3924    1.2434   52.4248 C   0  0  1  0  0  0  0  0  0  0  0  0
   20.4307    0.4721   51.4969 C   0  0  0  0  0  0  0  0  0  0  0  0
   21.2369   -0.7508   50.9580 C   0  0  1  0  0  0  0  0  0  0  0  0
   21.7344   -1.7171   52.1517 C   0  0  1  0  0  0  0  0  0  0  0  0
   22.5560   -2.9297   51.6239 C   0  0  1  0  0  0  0  0  0  0  0  0
   21.6323   -3.7188   50.6085 C   0  0  1  0  0  0  0  0  0  0  0  0
   21.1394   -2.7282   49.4969 C   0  0  2  0  0  0  0  0  0  0  0  0
   23.5423   -4.6713   49.0784 C   0  0  0  0  0  0  0  0  0  0  0  0
   20.7032    2.4571   52.9672 N   0  0  0  0  0  0  0  0  0  0  0  0
   22.3706   -4.9068   49.9979 N   0  0  0  0  0  0  0  0  0  0  0  0
   20.7460   -0.1284   54.4014 O   0  0  0  0  0  0  0  0  0  0  0  0
   22.5438   -0.9205   53.0843 O   0  0  0  0  0  0  0  0  0  0  0  0
   20.4184   -1.5426   50.0469 O   0  0  0  0  0  0  0  0  0  0  0  0
   23.7274   -2.4032   50.9984 O   0  0  0  0  0  0  0  0  0  0  0  0
   20.2838   -3.3994   48.6456 O   0  0  0  0  0  0  0  0  0  0  0  0
   19.5812   -2.5292   47.7424 C   0  0  2  0  0  0  0  0  0  0  0  0
   18.1620   -3.0797   47.4618 C   0  0  1  0  0  0  0  0  0  0  0  0
   18.2078   -4.4290   46.6812 C   0  0  2  0  0  0  0  0  0  0  0  0
   18.9654   -4.2205   45.3367 C   0  0  1  0  0  0  0  0  0  0  0  0
   20.4297   -3.7358   45.7031 C   0  0  1  0  0  0  0  0  0  0  0  0
   21.2748   -3.4789   44.4586 C   0  0  0  0  0  0  0  0  0  0  0  0
   19.0103   -5.5091   44.5883 N   0  0  0  0  0  0  0  0  0  0  0  0
   20.3335   -2.4399   46.4639 O   0  0  0  0  0  0  0  0  0  0  0  0
   17.4974   -3.2143   48.7327 O   0  0  0  0  0  0  0  0  0  0  0  0
   16.8815   -4.8391   46.4223 O   0  0  0  0  0  0  0  0  0  0  0  0
   21.5487   -4.6981   43.8200 O   0  0  0  0  0  0  0  0  0  0  0  0
   20.9162    0.1227   55.7812 C   0  0  1  0  0  0  0  0  0  0  0  0
   19.5424    0.5855   56.3646 C   0  0  1  0  0  0  0  0  0  0  0  0
   19.7228    0.8962   57.8792 C   0  0  2  0  0  0  0  0  0  0  0  0
   20.2299   -0.3636   58.6469 C   0  0  1  0  0  0  0  0  0  0  0  0
   21.6105   -0.8447   58.0576 C   0  0  0  0  0  0  0  0  0  0  0  0
   21.4211   -1.1658   56.5171 C   0  0  2  0  0  0  0  0  0  0  0  0
   20.3996   -0.0398   60.0905 N   0  0  0  0  0  0  0  0  0  0  0  0
   22.7205   -1.6202   55.9729 N   0  0  0  0  0  0  0  0  0  0  0  0
   19.0879    1.7743   55.6913 O   0  0  0  0  0  0  0  0  0  0  0  0
   18.4627    1.3063   58.3841 O   0  0  0  0  0  0  0  0  0  0  0  0
  1  2  1  0  0  0  0
  1 12  1  6  0  0  0
  1 13  1  0  0  0  0
  2  3  1  0  0  0  0
  2 10  1  1  0  0  0
  4  3  1  1  0  0  0
  4  5  1  0  0  0  0
  4 14  1  0  0  0  0
  5  6  1  0  0  0  0
  5 13  1  1  0  0  0
  6  7  1  0  0  0  0
  6 15  1  6  0  0  0
  7  8  1  0  0  0  0
  7 11  1  6  0  0  0
  8 14  1  0  0  0  0
  8 16  1  6  0  0  0
  9 11  1  0  0  0  0
 17 16  1  1  0  0  0
 17 18  1  0  0  0  0
 17 24  1  0  0  0  0
 18 19  1  0  0  0  0
 18 25  1  1  0  0  0
 19 20  1  0  0  0  0
 19 26  1  6  0  0  0
 20 21  1  0  0  0  0
 20 23  1  1  0  0  0
 21 22  1  6  0  0  0
 21 24  1  0  0  0  0
 22 27  1  0  0  0  0
 28 12  1  6  0  0  0
 28 29  1  0  0  0  0
 28 33  1  0  0  0  0
 29 30  1  0  0  0  0
 29 36  1  6  0  0  0
 30 31  1  0  0  0  0
 30 37  1  1  0  0  0
 31 32  1  0  0  0  0
 31 34  1  1  0  0  0
 32 33  1  0  0  0  0
 33 35  1  6  0  0  0
M  END
>  <CHROM.1>
-126.65913697,-66.62724962,169.02382656,-146.15019036,-68.87228918,140.88659345
20.59248241,-1.81988884,51.36797484,-1.51538154,0.29646171,-1.97290735

>  <Name>
2oe8_lig

>  <RI>
0

>  <Rbt.Current_Directory>
/home/itssahil/PROJECTS/Mol_Feturizer/New_Systems/rnas/2oe8

>  <Rbt.Executable>
rbdock ($Id: //depot/dev/client3/rdock/2013.1/src/exe/rbdock.cxx#4 $)

>  <Rbt.Library>
libRbt.so (2013.1, Build901 2013/11/27)

>  <Rbt.Parameter_File>
/export/apps/rDock/src/rDock_2013.1_src/data/scripts/dock_solv.prm

>  <Rbt.Receptor>
prm/pocket_docking_2.prm

>  <SCORE>
-9.24065

>  <SCORE.INTER>
-12.3079

>  <SCORE.INTER.CONST>
1

>  <SCORE.INTER.POLAR>
-0.926488

>  <SCORE.INTER.ROT>
6

>  <SCORE.INTER.SOLV>
14.9452

>  <SCORE.INTER.VDW>
-17.6987

>  <SCORE.INTER.norm>
-0.332646

>  <SCORE.INTRA>
2.13305

>  <SCORE.INTRA.DIHEDRAL>
1.05126

>  <SCORE.INTRA.DIHEDRAL.0>
16.4056

>  <SCORE.INTRA.POLAR>
0

>  <SCORE.INTRA.POLAR.0>
0

>  <SCORE.INTRA.REPUL>
0

>  <SCORE.INTRA.REPUL.0>
0

>  <SCORE.INTRA.SOLV>
0.532075

>  <SCORE.INTRA.SOLV.lig_0>
-90.9627

>  <SCORE.INTRA.VDW>
1.34138

>  <SCORE.INTRA.VDW.0>
-3.28744

>  <SCORE.INTRA.norm>
0.0576499

>  <SCORE.RESTR>
0.934222

>  <SCORE.RESTR.CAVITY>
0.934222

>  <SCORE.RESTR.norm>
0.0252492

>  <SCORE.SYSTEM>
0

>  <SCORE.SYSTEM.CONST>
0

>  <SCORE.SYSTEM.DIHEDRAL>
0

>  <SCORE.SYSTEM.SOLV>
0

>  <SCORE.SYSTEM.norm>
0

>  <SCORE.heavy>
37

>  <SCORE.norm>
-0.249747

>  <RMSD>
1.329

$$$$
2oe8_lig
 OpenBabel11021811463D
libRbt.so/2013.1/901 2013/11/27
 37 40  0  0  0  0  0  0  0  0999 V2000
   20.0113    1.2471   53.6037 C   0  0  1  0  0  0  0  0  0  0  0  0
   19.1723    2.0066   52.5070 C   0  0  1  0  0  0  0  0  0  0  0  0
   18.2070    1.0148   51.8249 C   0  0  0  0  0  0  0  0  0  0  0  0
   19.1033   -0.0928   51.1878 C   0  0  1  0  0  0  0  0  0  0  0  0
   19.9847   -0.8661   52.2974 C   0  0  1  0  0  0  0  0  0  0  0  0
   20.8961   -1.9601   51.6676 C   0  0  1  0  0  0  0  0  0  0  0  0
   19.9541   -2.9697   50.8930 C   0  0  1  0  0  0  0  0  0  0  0  0
   19.0883   -2.1654   49.8618 C   0  0  2  0  0  0  0  0  0  0  0  0
   20.1764   -5.4371   50.0216 C   0  0  0  0  0  0  0  0  0  0  0  0
   18.3913    3.1250   53.1246 N   0  0  0  0  0  0  0  0  0  0  0  0
   20.7649   -4.0600   50.1978 N   0  0  0  0  0  0  0  0  0  0  0  0
   19.1720    0.7027   54.6299 O   0  0  0  0  0  0  0  0  0  0  0  0
   20.7993    0.1253   53.0136 O   0  0  0  0  0  0  0  0  0  0  0  0
   18.2831   -1.0794   50.4942 O   0  0  0  0  0  0  0  0  0  0  0  0
   21.8126   -1.2937   50.7977 O   0  0  0  0  0  0  0  0  0  0  0  0
   18.2219   -3.0350   49.2291 O   0  0  0  0  0  0  0  0  0  0  0  0
   18.0288   -2.7336   47.8367 C   0  0  2  0  0  0  0  0  0  0  0  0
   17.2322   -3.8676   47.1475 C   0  0  1  0  0  0  0  0  0  0  0  0
   18.0398   -5.2011   47.1067 C   0  0  2  0  0  0  0  0  0  0  0  0
   19.3813   -4.9675   46.3510 C   0  0  1  0  0  0  0  0  0  0  0  0
   20.1759   -3.8562   47.1552 C   0  0  1  0  0  0  0  0  0  0  0  0
   21.5136   -3.5235   46.5003 C   0  0  0  0  0  0  0  0  0  0  0  0
   20.1553   -6.2411   46.3104 N   0  0  0  0  0  0  0  0  0  0  0  0
   19.3535   -2.5950   47.1775 O   0  0  0  0  0  0  0  0  0  0  0  0
   15.9896   -4.0115   47.8618 O   0  0  0  0  0  0  0  0  0  0  0  0
   17.2698   -6.1676   46.4232 O   0  0  0  0  0  0  0  0  0  0  0  0
   21.2996   -3.1479   45.1653 O   0  0  0  0  0  0  0  0  0  0  0  0
   19.7462    0.7574   55.9195 C   0  0  1  0  0  0  0  0  0  0  0  0
   18.6356    1.1936   56.9285 C   0  0  1  0  0  0  0  0  0  0  0  0
   19.2626    1.2886   58.3501 C   0  0  2  0  0  0  0  0  0  0  0  0
   19.8658   -0.0835   58.7827 C   0  0  1  0  0  0  0  0  0  0  0  0
   20.9798   -0.5372   57.7639 C   0  0  0  0  0  0  0  0  0  0  0  0
   20.3359   -0.6387   56.3192 C   0  0  2  0  0  0  0  0  0  0  0  0
   20.4635    0.0347   60.1416 N   0  0  0  0  0  0  0  0  0  0  0  0
   21.3873   -1.0688   55.3700 N   0  0  0  0  0  0  0  0  0  0  0  0
   18.1039    2.4804   56.5618 O   0  0  0  0  0  0  0  0  0  0  0  0
   18.2342    1.6785   59.2452 O   0  0  0  0  0  0  0  0  0  0  0  0
  1  2  1  0  0  0  0
  1 12  1  1  0  0  0
  1 13  1  0  0  0  0
  2  3  1  0  0  0  0
  2 10  1  1  0  0  0
  4  3  1  1  0  0  0
  4  5  1  0  0  0  0
  4 14  1  0  0  0  0
  5  6  1  0  0  0  0
  5 13  1  6  0  0  0
  6  7  1  0  0  0  0
  6 15  1  6  0  0  0
  7  8  1  0  0  0  0
  7 11  1  6  0  0  0
  8 14  1  0  0  0  0
  8 16  1  1  0  0  0
  9 11  1  0  0  0  0
 17 16  1  1  0  0  0
 17 18  1  0  0  0  0
 17 24  1  0  0  0  0
 18 19  1  0  0  0  0
 18 25  1  1  0  0  0
 19 20  1  0  0  0  0
 19 26  1  6  0  0  0
 20 21  1  0  0  0  0
 20 23  1  1  0  0  0
 21 22  1  6  0  0  0
 21 24  1  0  0  0  0
 22 27  1  0  0  0  0
 28 12  1  6  0  0  0
 28 29  1  0  0  0  0
 28 33  1  0  0  0  0
 29 30  1  0  0  0  0
 29 36  1  6  0  0  0
 30 31  1  0  0  0  0
 30 37  1  1  0  0  0
 31 32  1  0  0  0  0
 31 34  1  1  0  0  0
 32 33  1  0  0  0  0
 33 35  1  6  0  0  0
M  END
>  <CHROM.1>
-143.56311459,148.79896082,-142.59324143,171.12009330,55.43643531,138.07043373
19.43002312,-1.52383955,51.73316050,1.51372706,-0.94198593,1.04393808

>  <Name>
2oe8_lig

>  <RI>
0

>  <Rbt.Current_Directory>
/home/itssahil/PROJECTS/Mol_Feturizer/New_Systems/rnas/2oe8

>  <Rbt.Executable>
rbdock ($Id: //depot/dev/client3/rdock/2013.1/src/exe/rbdock.cxx#4 $)

>  <Rbt.Library>
libRbt.so (2013.1, Build901 2013/11/27)

>  <Rbt.Parameter_File>
/export/apps/rDock/src/rDock_2013.1_src/data/scripts/dock_solv.prm

>  <Rbt.Receptor>
prm/pocket_docking_2.prm

>  <SCORE>
-15.7415

>  <SCORE.INTER>
-17.5385

>  <SCORE.INTER.CONST>
1

>  <SCORE.INTER.POLAR>
-1.15651

>  <SCORE.INTER.ROT>
6

>  <SCORE.INTER.SOLV>
17.0786

>  <SCORE.INTER.VDW>
-21.1301

>  <SCORE.INTER.norm>
-0.474013

>  <SCORE.INTRA>
0.383547

>  <SCORE.INTRA.DIHEDRAL>
0.121357

>  <SCORE.INTRA.DIHEDRAL.0>
16.4056

>  <SCORE.INTRA.POLAR>
0

>  <SCORE.INTRA.POLAR.0>
0

>  <SCORE.INTRA.REPUL>
0

>  <SCORE.INTRA.REPUL.0>
0

>  <SCORE.INTRA.SOLV>
2.43353

>  <SCORE.INTRA.SOLV.lig_0>
-90.9627

>  <SCORE.INTRA.VDW>
-0.893898

>  <SCORE.INTRA.VDW.0>
-3.28744

>  <SCORE.INTRA.norm>
0.0103661

>  <SCORE.RESTR>
1.4134

>  <SCORE.RESTR.CAVITY>
1.4134

>  <SCORE.RESTR.norm>
0.0381999

>  <SCORE.SYSTEM>
0

>  <SCORE.SYSTEM.CONST>
0

>  <SCORE.SYSTEM.DIHEDRAL>
0

>  <SCORE.SYSTEM.SOLV>
0

>  <SCORE.SYSTEM.norm>
0

>  <SCORE.heavy>
37

>  <SCORE.norm>
-0.425446

>  <RMSD>
1.354

$$$$
2oe8_lig
 OpenBabel11021811463D
libRbt.so/2013.1/901 2013/11/27
 37 40  0  0  0  0  0  0  0  0999 V2000
   20.6841    2.1675   52.9644 C   0  0  1  0  0  0  0  0  0  0  0  0
   19.4127    2.5036   52.0961 C   0  0  1  0  0  0  0  0  0  0  0  0
   18.7946    1.1927   51.5671 C   0  0  0  0  0  0  0  0  0  0  0  0
   19.9030    0.5069   50.7086 C   0  0  1  0  0  0  0  0  0  0  0  0
   21.2205    0.1750   51.5805 C   0  0  1  0  0  0  0  0  0  0  0  0
   22.3387   -0.4921   50.7270 C   0  0  1  0  0  0  0  0  0  0  0  0
   21.7296   -1.8132   50.1019 C   0  0  1  0  0  0  0  0  0  0  0  0
   20.4299   -1.4443   49.3052 C   0  0  2  0  0  0  0  0  0  0  0  0
   23.7214   -3.4981   49.8013 C   0  0  0  0  0  0  0  0  0  0  0  0
   18.3996    3.2441   52.9132 N   0  0  0  0  0  0  0  0  0  0  0  0
   22.7429   -2.5183   49.2044 N   0  0  0  0  0  0  0  0  0  0  0  0
   20.3496    1.3685   54.1062 O   0  0  0  0  0  0  0  0  0  0  0  0
   21.7104    1.4275   52.1726 O   0  0  0  0  0  0  0  0  0  0  0  0
   19.4108   -0.7427   50.1400 O   0  0  0  0  0  0  0  0  0  0  0  0
   22.7266    0.4539   49.7293 O   0  0  0  0  0  0  0  0  0  0  0  0
   19.8629   -2.6027   48.8114 O   0  0  0  0  0  0  0  0  0  0  0  0
   19.0827   -2.3925   47.6223 C   0  0  2  0  0  0  0  0  0  0  0  0
   18.0296   -3.5159   47.4657 C   0  0  1  0  0  0  0  0  0  0  0  0
   18.6953   -4.9020   47.2054 C   0  0  2  0  0  0  0  0  0  0  0  0
   19.5703   -4.8195   45.9198 C   0  0  1  0  0  0  0  0  0  0  0  0
   20.6717   -3.7100   46.1822 C   0  0  1  0  0  0  0  0  0  0  0  0
   21.5908   -3.5212   44.9786 C   0  0  0  0  0  0  0  0  0  0  0  0
   20.2076   -6.1436   45.6685 N   0  0  0  0  0  0  0  0  0  0  0  0
   19.9824   -2.3962   46.4395 O   0  0  0  0  0  0  0  0  0  0  0  0
   17.2277   -3.5191   48.6624 O   0  0  0  0  0  0  0  0  0  0  0  0
   17.6736   -5.8603   47.0260 O   0  0  0  0  0  0  0  0  0  0  0  0
   22.3343   -4.6930   44.7702 O   0  0  0  0  0  0  0  0  0  0  0  0
   21.4043    1.2418   55.0375 C   0  0  1  0  0  0  0  0  0  0  0  0
   21.3937    2.5035   55.9593 C   0  0  1  0  0  0  0  0  0  0  0  0
   22.5714    2.3920   56.9710 C   0  0  2  0  0  0  0  0  0  0  0  0
   22.4393    1.1001   57.8354 C   0  0  1  0  0  0  0  0  0  0  0  0
   22.4378   -0.1779   56.9126 C   0  0  0  0  0  0  0  0  0  0  0  0
   21.2337   -0.0634   55.8883 C   0  0  2  0  0  0  0  0  0  0  0  0
   23.5789    1.0137   58.7901 N   0  0  0  0  0  0  0  0  0  0  0  0
   21.2373   -1.2686   55.0288 N   0  0  0  0  0  0  0  0  0  0  0  0
   21.5598    3.6986   55.1736 O   0  0  0  0  0  0  0  0  0  0  0  0
   22.5345    3.5435   57.7979 O   0  0  0  0  0  0  0  0  0  0  0  0
  1  2  1  0  0  0  0
  1 12  1  1  0  0  0
  1 13  1  0  0  0  0
  2  3  1  0  0  0  0
  2 10  1  1  0  0  0
  4  3  1  1  0  0  0
  4  5  1  0  0  0  0
  4 14  1  0  0  0  0
  5  6  1  0  0  0  0
  5 13  1  6  0  0  0
  6  7  1  0  0  0  0
  6 15  1  6  0  0  0
  7  8  1  0  0  0  0
  7 11  1  6  0  0  0
  8 14  1  0  0  0  0
  8 16  1  1  0  0  0
  9 11  1  0  0  0  0
 17 16  1  1  0  0  0
 17 18  1  0  0  0  0
 17 24  1  0  0  0  0
 18 19  1  0  0  0  0
 18 25  1  1  0  0  0
 19 20  1  0  0  0  0
 19 26  1  6  0  0  0
 20 21  1  0  0  0  0
 20 23  1  1  0  0  0
 21 22  1  6  0  0  0
 21 24  1  0  0  0  0
 22 27  1  0  0  0  0
 28 12  1  6  0  0  0
 28 29  1  0  0  0  0
 28 33  1  0  0  0  0
 29 30  1  0  0  0  0
 29 36  1  6  0  0  0
 30 31  1  0  0  0  0
 30 37  1  1  0  0  0
 31 32  1  0  0  0  0
 31 34  1  1  0  0  0
 32 33  1  0  0  0  0
 33 35  1  6  0  0  0
M  END
>  <CHROM.1>
-169.32630626,86.85762663,-153.26034015,-156.03416797,-65.28474735,83.17786698
20.77912642,-0.86538840,51.12913429,1.38360963,-0.53759188,0.90637160

>  <Name>
2oe8_lig

>  <RI>
0

>  <Rbt.Current_Directory>
/home/itssahil/PROJECTS/Mol_Feturizer/New_Systems/rnas/2oe8

>  <Rbt.Executable>
rbdock ($Id: //depot/dev/client3/rdock/2013.1/src/exe/rbdock.cxx#4 $)

>  <Rbt.Library>
libRbt.so (2013.1, Build901 2013/11/27)

>  <Rbt.Parameter_File>
/export/apps/rDock/src/rDock_2013.1_src/data/scripts/dock_solv.prm

>  <Rbt.Receptor>
prm/pocket_docking_4.prm

>  <SCORE>
-22.6901

>  <SCORE.INTER>
-18.7465

>  <SCORE.INTER.CONST>
1

>  <SCORE.INTER.POLAR>
-1.80246

>  <SCORE.INTER.ROT>
6

>  <SCORE.INTER.SOLV>
20.0112

>  <SCORE.INTER.VDW>
-20.7599

>  <SCORE.INTER.norm>
-0.506663

>  <SCORE.INTRA>
-3.94357

>  <SCORE.INTRA.DIHEDRAL>
-7.40976

>  <SCORE.INTRA.DIHEDRAL.0>
16.4056

>  <SCORE.INTRA.POLAR>
0

>  <SCORE.INTRA.POLAR.0>
0

>  <SCORE.INTRA.REPUL>
0

>  <SCORE.INTRA.REPUL.0>
0

>  <SCORE.INTRA.SOLV>
-0.9227

>  <SCORE.INTRA.SOLV.lig_0>
-90.9627

>  <SCORE.INTRA.VDW>
0.222663

>  <SCORE.INTRA.VDW.0>
-3.28744

>  <SCORE.INTRA.norm>
-0.106583

>  <SCORE.RESTR>
0

>  <SCORE.RESTR.CAVITY>
0

>  <SCORE.RESTR.norm>
0

>  <SCORE.SYSTEM>
0

>  <SCORE.SYSTEM.CONST>
0

>  <SCORE.SYSTEM.DIHEDRAL>
0

>  <SCORE.SYSTEM.SOLV>
0

>  <SCORE.SYSTEM.norm>
0

>  <SCORE.heavy>
37

>  <SCORE.norm>
-0.613246

>  <RMSD>
1.459

$$$$
2oe8_lig
 OpenBabel11021811463D
libRbt.so/2013.1/901 2013/11/27
 37 40  0  0  0  0  0  0  0  0999 V2000
   20.5093    2.2802   53.0033 C   0  0  1  0  0  0  0  0  0  0  0  0
   19.2216    2.5399   52.1327 C   0  0  1  0  0  0  0  0  0  0  0  0
   18.6987    1.1970   51.5813 C   0  0  0  0  0  0  0  0  0  0  0  0
   19.8562    0.6028   50.7193 C   0  0  1  0  0  0  0  0  0  0  0  0
   21.1896    0.3506   51.5937 C   0  0  1  0  0  0  0  0  0  0  0  0
   22.3555   -0.2244   50.7370 C   0  0  1  0  0  0  0  0  0  0  0  0
   21.8429   -1.5752   50.0894 C   0  0  1  0  0  0  0  0  0  0  0  0
   20.5243   -1.2859   49.2909 C   0  0  2  0  0  0  0  0  0  0  0  0
   23.1558   -3.6814   49.2310 C   0  0  0  0  0  0  0  0  0  0  0  0
   18.1556    3.1958   52.9547 N   0  0  0  0  0  0  0  0  0  0  0  0
   22.9070   -2.1948   49.1876 N   0  0  0  0  0  0  0  0  0  0  0  0
   20.2259    1.4430   54.1315 O   0  0  0  0  0  0  0  0  0  0  0  0
   21.5883    1.6253   52.2067 O   0  0  0  0  0  0  0  0  0  0  0  0
   19.4549   -0.6694   50.1299 O   0  0  0  0  0  0  0  0  0  0  0  0
   22.6812    0.7610   49.7554 O   0  0  0  0  0  0  0  0  0  0  0  0
   20.0417   -2.4735   48.7771 O   0  0  0  0  0  0  0  0  0  0  0  0
   19.2389   -2.2988   47.5974 C   0  0  2  0  0  0  0  0  0  0  0  0
   18.1453   -3.3917   47.5257 C   0  0  1  0  0  0  0  0  0  0  0  0
   18.7576   -4.8117   47.3235 C   0  0  2  0  0  0  0  0  0  0  0  0
   19.6017   -4.8268   46.0149 C   0  0  1  0  0  0  0  0  0  0  0  0
   20.7458   -3.7439   46.1919 C   0  0  1  0  0  0  0  0  0  0  0  0
   21.6396   -3.6502   44.9585 C   0  0  0  0  0  0  0  0  0  0  0  0
   20.1879   -6.1835   45.8192 N   0  0  0  0  0  0  0  0  0  0  0  0
   20.1074   -2.3954   46.3954 O   0  0  0  0  0  0  0  0  0  0  0  0
   17.3745   -3.3047   48.7395 O   0  0  0  0  0  0  0  0  0  0  0  0
   17.7003   -5.7421   47.2196 O   0  0  0  0  0  0  0  0  0  0  0  0
   20.8461   -3.4319   43.8219 O   0  0  0  0  0  0  0  0  0  0  0  0
   21.3219    1.2845   55.0086 C   0  0  1  0  0  0  0  0  0  0  0  0
   21.3820    2.5352   55.9433 C   0  0  1  0  0  0  0  0  0  0  0  0
   22.6051    2.3885   56.8949 C   0  0  2  0  0  0  0  0  0  0  0  0
   22.4889    1.0894   57.7508 C   0  0  1  0  0  0  0  0  0  0  0  0
   22.4163   -0.1774   56.8155 C   0  0  0  0  0  0  0  0  0  0  0  0
   21.1663   -0.0270   55.8527 C   0  0  2  0  0  0  0  0  0  0  0  0
   23.6716    0.9691   58.6476 N   0  0  0  0  0  0  0  0  0  0  0  0
   21.1035   -1.2219   54.9811 N   0  0  0  0  0  0  0  0  0  0  0  0
   21.5340    3.7359   55.1634 O   0  0  0  0  0  0  0  0  0  0  0  0
   22.6320    3.5307   57.7350 O   0  0  0  0  0  0  0  0  0  0  0  0
  1  2  1  0  0  0  0
  1 12  1  1  0  0  0
  1 13  1  0  0  0  0
  2  3  1  0  0  0  0
  2 10  1  1  0  0  0
  4  3  1  1  0  0  0
  4  5  1  0  0  0  0
  4 14  1  0  0  0  0
  5  6  1  0  0  0  0
  5 13  1  6  0  0  0
  6  7  1  0  0  0  0
  6 15  1  6  0  0  0
  7  8  1  0  0  0  0
  7 11  1  6  0  0  0
  8 14  1  0  0  0  0
  8 16  1  1  0  0  0
  9 11  1  0  0  0  0
 17 16  1  1  0  0  0
 17 18  1  0  0  0  0
 17 24  1  0  0  0  0
 18 19  1  0  0  0  0
 18 25  1  1  0  0  0
 19 20  1  0  0  0  0
 19 26  1  6  0  0  0
 20 21  1  0  0  0  0
 20 23  1  1  0  0  0
 21 22  1  6  0  0  0
 21 24  1  0  0  0  0
 22 27  1  0  0  0  0
 28 12  1  6  0  0  0
 28 29  1  0  0  0  0
 28 33  1  0  0  0  0
 29 30  1  0  0  0  0
 29 36  1  6  0  0  0
 30 31  1  0  0  0  0
 30 37  1  1  0  0  0
 31 32  1  0  0  0  0
 31 34  1  1  0  0  0
 32 33  1  0  0  0  0
 33 35  1  6  0  0  0
M  END
>  <CHROM.1>
-174.44488421,137.45446971,-154.07770470,-148.46304343,53.75514575,81.47070551
20.72466435,-0.75843610,51.08911036,1.35551715,-0.69081757,0.87846447

>  <Name>
2oe8_lig

>  <RI>
0

>  <Rbt.Current_Directory>
/home/itssahil/PROJECTS/Mol_Feturizer/New_Systems/rnas/2oe8

>  <Rbt.Executable>
rbdock ($Id: //depot/dev/client3/rdock/2013.1/src/exe/rbdock.cxx#4 $)

>  <Rbt.Library>
libRbt.so (2013.1, Build901 2013/11/27)

>  <Rbt.Parameter_File>
/export/apps/rDock/src/rDock_2013.1_src/data/scripts/dock_solv.prm

>  <Rbt.Receptor>
prm/pocket_docking_5.prm

>  <SCORE>
-22.9241

>  <SCORE.INTER>
-18.9156

>  <SCORE.INTER.CONST>
1

>  <SCORE.INTER.POLAR>
-1.79988

>  <SCORE.INTER.ROT>
6

>  <SCORE.INTER.SOLV>
20.1425

>  <SCORE.INTER.VDW>
-20.9249

>  <SCORE.INTER.norm>
-0.511233

>  <SCORE.INTRA>
-4.00846

>  <SCORE.INTRA.DIHEDRAL>
-6.33698

>  <SCORE.INTRA.DIHEDRAL.0>
16.4056

>  <SCORE.INTRA.POLAR>
0

>  <SCORE.INTRA.POLAR.0>
0

>  <SCORE.INTRA.REPUL>
0

>  <SCORE.INTRA.REPUL.0>
0

>  <SCORE.INTRA.SOLV>
-1.53389

>  <SCORE.INTRA.SOLV.lig_0>
-90.9627

>  <SCORE.INTRA.VDW>
-0.07302

>  <SCORE.INTRA.VDW.0>
-3.28744

>  <SCORE.INTRA.norm>
-0.108337

>  <SCORE.RESTR>
0

>  <SCORE.RESTR.CAVITY>
0

>  <SCORE.RESTR.norm>
0

>  <SCORE.SYSTEM>
0

>  <SCORE.SYSTEM.CONST>
0

>  <SCORE.SYSTEM.DIHEDRAL>
0

>  <SCORE.SYSTEM.SOLV>
0

>  <SCORE.SYSTEM.norm>
0

>  <SCORE.heavy>
37

>  <SCORE.norm>
-0.619569

>  <RMSD>
1.505

$$$$
2oe8_lig
 OpenBabel11021811463D
libRbt.so/2013.1/901 2013/11/27
 37 40  0  0  0  0  0  0  0  0999 V2000
   20.1531    0.5025   53.4011 C   0  0  1  0  0  0  0  0  0  0  0  0
   19.1241    0.9404   52.2907 C   0  0  1  0  0  0  0  0  0  0  0  0
   18.2596   -0.2728   51.8888 C   0  0  0  0  0  0  0  0  0  0  0  0
   19.2508   -1.3514   51.3504 C   0  0  1  0  0  0  0  0  0  0  0  0
   20.3247   -1.7951   52.4712 C   0  0  1  0  0  0  0  0  0  0  0  0
   21.3295   -2.8572   51.9361 C   0  0  1  0  0  0  0  0  0  0  0  0
   20.4827   -4.1012   51.4439 C   0  0  1  0  0  0  0  0  0  0  0  0
   19.4263   -3.6114   50.3932 C   0  0  2  0  0  0  0  0  0  0  0  0
   22.1603   -4.9103   49.5926 C   0  0  0  0  0  0  0  0  0  0  0  0
   18.2433    2.0409   52.7958 N   0  0  0  0  0  0  0  0  0  0  0  0
   21.3823   -5.1843   50.8549 N   0  0  0  0  0  0  0  0  0  0  0  0
   19.4903    0.0460   54.5870 O   0  0  0  0  0  0  0  0  0  0  0  0
   21.0436   -0.5956   52.9228 O   0  0  0  0  0  0  0  0  0  0  0  0
   18.5276   -2.5428   50.9208 O   0  0  0  0  0  0  0  0  0  0  0  0
   22.0637   -2.2440   50.8752 O   0  0  0  0  0  0  0  0  0  0  0  0
   18.6456   -4.6837   50.0090 O   0  0  0  0  0  0  0  0  0  0  0  0
   17.8851   -4.4352   48.8145 C   0  0  2  0  0  0  0  0  0  0  0  0
   17.0425   -5.6801   48.4460 C   0  0  1  0  0  0  0  0  0  0  0  0
   17.9410   -6.8890   48.0418 C   0  0  2  0  0  0  0  0  0  0  0  0
   18.8358   -6.4840   46.8333 C   0  0  1  0  0  0  0  0  0  0  0  0
   19.7246   -5.2599   47.3076 C   0  0  1  0  0  0  0  0  0  0  0  0
   20.6420   -4.7557   46.1972 C   0  0  0  0  0  0  0  0  0  0  0  0
   19.6957   -7.6382   46.4448 N   0  0  0  0  0  0  0  0  0  0  0  0
   18.8150   -4.1250   47.6977 O   0  0  0  0  0  0  0  0  0  0  0  0
   16.2095   -5.9832   49.5814 O   0  0  0  0  0  0  0  0  0  0  0  0
   17.1024   -7.9643   47.6747 O   0  0  0  0  0  0  0  0  0  0  0  0
   19.8667   -4.3290   45.1082 O   0  0  0  0  0  0  0  0  0  0  0  0
   20.2467    0.2314   55.7656 C   0  0  1  0  0  0  0  0  0  0  0  0
   19.2939    0.7861   56.8730 C   0  0  1  0  0  0  0  0  0  0  0  0
   20.1217    1.0251   58.1694 C   0  0  2  0  0  0  0  0  0  0  0  0
   20.7872   -0.2998   58.6544 C   0  0  1  0  0  0  0  0  0  0  0  0
   21.7420   -0.8730   57.5388 C   0  0  0  0  0  0  0  0  0  0  0  0
   20.8941   -1.1208   56.2228 C   0  0  2  0  0  0  0  0  0  0  0  0
   21.5767   -0.0442   59.8910 N   0  0  0  0  0  0  0  0  0  0  0  0
   21.7971   -1.6622   55.1822 N   0  0  0  0  0  0  0  0  0  0  0  0
   18.7091    2.0325   56.4516 O   0  0  0  0  0  0  0  0  0  0  0  0
   19.2338    1.5206   59.1579 O   0  0  0  0  0  0  0  0  0  0  0  0
  1  2  1  0  0  0  0
  1 12  1  1  0  0  0
  1 13  1  0  0  0  0
  2  3  1  0  0  0  0
  2 10  1  1  0  0  0
  4  3  1  1  0  0  0
  4  5  1  0  0  0  0
  4 14  1  0  0  0  0
  5  6  1  0  0  0  0
  5 13  1  6  0  0  0
  6  7  1  0  0  0  0
  6 15  1  6  0  0  0
  7  8  1  0  0  0  0
  7 11  1  6  0  0  0
  8 14  1  0  0  0  0
  8 16  1  1  0  0  0
  9 11  1  0  0  0  0
 17 16  1  1  0  0  0
 17 18  1  0  0  0  0
 17 24  1  0  0  0  0
 18 19  1  0  0  0  0
 18 25  1  1  0  0  0
 19 20  1  0  0  0  0
 19 26  1  6  0  0  0
 20 21  1  0  0  0  0
 20 23  1  1  0  0  0
 21 22  1  6  0  0  0
 21 24  1  0  0  0  0
 22 27  1  0  0  0  0
 28 12  1  6  0  0  0
 28 29  1  0  0  0  0
 28 33  1  0  0  0  0
 29 30  1  0  0  0  0
 29 36  1  6  0  0  0
 30 31  1  0  0  0  0
 30 37  1  1  0  0  0
 31 32  1  0  0  0  0
 31 34  1  1  0  0  0
 32 33  1  0  0  0  0
 33 35  1  6  0  0  0
M  END
>  <CHROM.1>
-152.17391309,-65.20321046,-164.85268313,179.79756886,60.40188214,136.40208126
19.65997913,-2.51563176,51.95462456,1.41378994,-0.75951890,0.87201558

>  <Name>
2oe8_lig

>  <RI>
0

>  <Rbt.Current_Directory>
/home/itssahil/PROJECTS/Mol_Feturizer/New_Systems/rnas/2oe8

>  <Rbt.Executable>
rbdock ($Id: //depot/dev/client3/rdock/2013.1/src/exe/rbdock.cxx#4 $)

>  <Rbt.Library>
libRbt.so (2013.1, Build901 2013/11/27)

>  <Rbt.Parameter_File>
/export/apps/rDock/src/rDock_2013.1_src/data/scripts/dock_solv.prm

>  <Rbt.Receptor>
prm/pocket_docking_3.prm

>  <SCORE>
-14.1549

>  <SCORE.INTER>
-12.1719

>  <SCORE.INTER.CONST>
1

>  <SCORE.INTER.POLAR>
-0.543864

>  <SCORE.INTER.ROT>
6

>  <SCORE.INTER.SOLV>
20.7981

>  <SCORE.INTER.VDW>
-20.8344

>  <SCORE.INTER.norm>
-0.328971

>  <SCORE.INTRA>
-1.98296

>  <SCORE.INTRA.DIHEDRAL>
-6.13679

>  <SCORE.INTRA.DIHEDRAL.0>
16.4056

>  <SCORE.INTRA.POLAR>
0

>  <SCORE.INTRA.POLAR.0>
0

>  <SCORE.INTRA.REPUL>
0

>  <SCORE.INTRA.REPUL.0>
0

>  <SCORE.INTRA.SOLV>
1.02649

>  <SCORE.INTRA.SOLV.lig_0>
-90.9627

>  <SCORE.INTRA.VDW>
0.572195

>  <SCORE.INTRA.VDW.0>
-3.28744

>  <SCORE.INTRA.norm>
-0.0535934

>  <SCORE.RESTR>
0

>  <SCORE.RESTR.CAVITY>
0

>  <SCORE.RESTR.norm>
0

>  <SCORE.SYSTEM>
0

>  <SCORE.SYSTEM.CONST>
0

>  <SCORE.SYSTEM.DIHEDRAL>
0

>  <SCORE.SYSTEM.SOLV>
0

>  <SCORE.SYSTEM.norm>
0

>  <SCORE.heavy>
37

>  <SCORE.norm>
-0.382564

>  <RMSD>
1.507

$$$$
2oe8_lig
 OpenBabel11021811463D
libRbt.so/2013.1/901 2013/11/27
 37 40  0  0  0  0  0  0  0  0999 V2000
   20.4680    2.1996   52.9941 C   0  0  1  0  0  0  0  0  0  0  0  0
   19.1290    2.3924   52.1858 C   0  0  1  0  0  0  0  0  0  0  0  0
   18.6782    1.0327   51.6127 C   0  0  0  0  0  0  0  0  0  0  0  0
   19.8363    0.5485   50.6851 C   0  0  1  0  0  0  0  0  0  0  0  0
   21.2205    0.3662   51.4955 C   0  0  1  0  0  0  0  0  0  0  0  0
   22.3858   -0.0984   50.5735 C   0  0  1  0  0  0  0  0  0  0  0  0
   21.9416   -1.4625   49.9037 C   0  0  1  0  0  0  0  0  0  0  0  0
   20.5728   -1.2445   49.1696 C   0  0  2  0  0  0  0  0  0  0  0  0
   24.2923   -2.5529   49.4774 C   0  0  0  0  0  0  0  0  0  0  0  0
   18.0561    2.9458   53.0717 N   0  0  0  0  0  0  0  0  0  0  0  0
   23.0066   -1.9775   48.9392 N   0  0  0  0  0  0  0  0  0  0  0  0
   20.2929    1.3112   54.1049 O   0  0  0  0  0  0  0  0  0  0  0  0
   21.5549    1.6473   52.1330 O   0  0  0  0  0  0  0  0  0  0  0  0
   19.5000   -0.7311   50.0713 O   0  0  0  0  0  0  0  0  0  0  0  0
   22.5990    0.9365   49.6121 O   0  0  0  0  0  0  0  0  0  0  0  0
   20.1529   -2.4477   48.6375 O   0  0  0  0  0  0  0  0  0  0  0  0
   19.2904   -2.2958   47.4974 C   0  0  2  0  0  0  0  0  0  0  0  0
   18.1773   -3.3711   47.5195 C   0  0  1  0  0  0  0  0  0  0  0  0
   18.7552   -4.8072   47.3305 C   0  0  2  0  0  0  0  0  0  0  0  0
   19.5270   -4.8780   45.9797 C   0  0  1  0  0  0  0  0  0  0  0  0
   20.6960   -3.8103   46.0603 C   0  0  1  0  0  0  0  0  0  0  0  0
   21.5233   -3.7708   44.7785 C   0  0  0  0  0  0  0  0  0  0  0  0
   20.0802   -6.2502   45.7966 N   0  0  0  0  0  0  0  0  0  0  0  0
   20.0910   -2.4451   46.2544 O   0  0  0  0  0  0  0  0  0  0  0  0
   17.4748   -3.2327   48.7693 O   0  0  0  0  0  0  0  0  0  0  0  0
   17.6792   -5.7217   47.3132 O   0  0  0  0  0  0  0  0  0  0  0  0
   20.6916   -3.4476   43.6955 O   0  0  0  0  0  0  0  0  0  0  0  0
   21.3967    1.2820   54.9862 C   0  0  1  0  0  0  0  0  0  0  0  0
   21.3984    2.6109   55.8082 C   0  0  1  0  0  0  0  0  0  0  0  0
   22.6286    2.6060   56.7619 C   0  0  2  0  0  0  0  0  0  0  0  0
   22.5760    1.3824   57.7282 C   0  0  1  0  0  0  0  0  0  0  0  0
   22.5626    0.0369   56.9072 C   0  0  0  0  0  0  0  0  0  0  0  0
   21.3053    0.0432   55.9421 C   0  0  2  0  0  0  0  0  0  0  0  0
   23.7645    1.3971   58.6253 N   0  0  0  0  0  0  0  0  0  0  0  0
   21.2983   -1.2248   55.1782 N   0  0  0  0  0  0  0  0  0  0  0  0
   21.4916    3.7448   54.9258 O   0  0  0  0  0  0  0  0  0  0  0  0
   22.6022    3.8170   57.4992 O   0  0  0  0  0  0  0  0  0  0  0  0
  1  2  1  0  0  0  0
  1 12  1  1  0  0  0
  1 13  1  0  0  0  0
  2  3  1  0  0  0  0
  2 10  1  1  0  0  0
  4  3  1  1  0  0  0
  4  5  1  0  0  0  0
  4 14  1  0  0  0  0
  5  6  1  0  0  0  0
  5 13  1  6  0  0  0
  6  7  1  0  0  0  0
  6 15  1  6  0  0  0
  7  8  1  0  0  0  0
  7 11  1  6  0  0  0
  8 14  1  0  0  0  0
  8 16  1  1  0  0  0
  9 11  1  0  0  0  0
 17 16  1  1  0  0  0
 17 18  1  0  0  0  0
 17 24  1  0  0  0  0
 18 19  1  0  0  0  0
 18 25  1  1  0  0  0
 19 20  1  0  0  0  0
 19 26  1  6  0  0  0
 20 21  1  0  0  0  0
 20 23  1  1  0  0  0
 21 22  1  6  0  0  0
 21 24  1  0  0  0  0
 22 27  1  0  0  0  0
 28 12  1  6  0  0  0
 28 29  1  0  0  0  0
 28 33  1  0  0  0  0
 29 30  1  0  0  0  0
 29 36  1  6  0  0  0
 30 31  1  0  0  0  0
 30 37  1  1  0  0  0
 31 32  1  0  0  0  0
 31 34  1  1  0  0  0
 32 33  1  0  0  0  0
 33 35  1  6  0  0  0
M  END
>  <CHROM.1>
-169.93981138,72.58560798,-154.04029101,-142.26580944,59.34017556,73.69452772
20.76932053,-0.69419684,51.03687300,1.38835477,-0.34287244,0.95347803

>  <Name>
2oe8_lig

>  <RI>
0

>  <Rbt.Current_Directory>
/home/itssahil/PROJECTS/Mol_Feturizer/New_Systems/rnas/2oe8

>  <Rbt.Executable>
rbdock ($Id: //depot/dev/client3/rdock/2013.1/src/exe/rbdock.cxx#4 $)

>  <Rbt.Library>
libRbt.so (2013.1, Build901 2013/11/27)

>  <Rbt.Parameter_File>
/export/apps/rDock/src/rDock_2013.1_src/data/scripts/dock_solv.prm

>  <Rbt.Receptor>
prm/pocket_docking_5.prm

>  <SCORE>
-23.1844

>  <SCORE.INTER>
-19.7737

>  <SCORE.INTER.CONST>
1

>  <SCORE.INTER.POLAR>
-1.66896

>  <SCORE.INTER.ROT>
6

>  <SCORE.INTER.SOLV>
20.8771

>  <SCORE.INTER.VDW>
-22.1783

>  <SCORE.INTER.norm>
-0.534424

>  <SCORE.INTRA>
-3.41074

>  <SCORE.INTRA.DIHEDRAL>
-7.00283

>  <SCORE.INTRA.DIHEDRAL.0>
16.4056

>  <SCORE.INTRA.POLAR>
0

>  <SCORE.INTRA.POLAR.0>
0

>  <SCORE.INTRA.REPUL>
0

>  <SCORE.INTRA.REPUL.0>
0

>  <SCORE.INTRA.SOLV>
-1.83214

>  <SCORE.INTRA.SOLV.lig_0>
-90.9627

>  <SCORE.INTRA.VDW>
1.00674

>  <SCORE.INTRA.VDW.0>
-3.28744

>  <SCORE.INTRA.norm>
-0.0921822

>  <SCORE.RESTR>
0

>  <SCORE.RESTR.CAVITY>
0

>  <SCORE.RESTR.norm>
0

>  <SCORE.SYSTEM>
0

>  <SCORE.SYSTEM.CONST>
0

>  <SCORE.SYSTEM.DIHEDRAL>
0

>  <SCORE.SYSTEM.SOLV>
0

>  <SCORE.SYSTEM.norm>
0

>  <SCORE.heavy>
37

>  <SCORE.norm>
-0.626606

>  <RMSD>
1.576

$$$$
2oe8_lig
 OpenBabel11021811463D
libRbt.so/2013.1/901 2013/11/27
 37 40  0  0  0  0  0  0  0  0999 V2000
   20.4869    2.2356   53.0141 C   0  0  1  0  0  0  0  0  0  0  0  0
   19.1724    2.4747   52.1784 C   0  0  1  0  0  0  0  0  0  0  0  0
   18.6637    1.1254   51.6295 C   0  0  0  0  0  0  0  0  0  0  0  0
   19.8111    0.5623   50.7338 C   0  0  1  0  0  0  0  0  0  0  0  0
   21.1712    0.3314   51.5722 C   0  0  1  0  0  0  0  0  0  0  0  0
   22.3267   -0.2124   50.6817 C   0  0  1  0  0  0  0  0  0  0  0  0
   21.8260   -1.5687   50.0363 C   0  0  1  0  0  0  0  0  0  0  0  0
   20.4819   -1.3012   49.2736 C   0  0  2  0  0  0  0  0  0  0  0  0
   23.8890   -3.1438   49.6365 C   0  0  0  0  0  0  0  0  0  0  0  0
   18.1142    3.1018   53.0323 N   0  0  0  0  0  0  0  0  0  0  0  0
   22.8795   -2.1589   49.1029 N   0  0  0  0  0  0  0  0  0  0  0  0
   20.2497    1.3841   54.1422 O   0  0  0  0  0  0  0  0  0  0  0  0
   21.5587    1.6095   52.1853 O   0  0  0  0  0  0  0  0  0  0  0  0
   19.4215   -0.7136   50.1443 O   0  0  0  0  0  0  0  0  0  0  0  0
   22.6068    0.7871   49.7002 O   0  0  0  0  0  0  0  0  0  0  0  0
   20.0112   -2.4946   48.7626 O   0  0  0  0  0  0  0  0  0  0  0  0
   19.4664   -2.3712   47.4379 C   0  0  2  0  0  0  0  0  0  0  0  0
   18.1677   -3.2038   47.3120 C   0  0  1  0  0  0  0  0  0  0  0  0
   18.4459   -4.7335   47.4333 C   0  0  2  0  0  0  0  0  0  0  0  0
   19.4542   -5.1627   46.3268 C   0  0  1  0  0  0  0  0  0  0  0  0
   20.7827   -4.3314   46.5661 C   0  0  1  0  0  0  0  0  0  0  0  0
   21.8530   -4.6529   45.5270 C   0  0  0  0  0  0  0  0  0  0  0  0
   19.7217   -6.6249   46.4406 N   0  0  0  0  0  0  0  0  0  0  0  0
   20.4621   -2.8646   46.4511 O   0  0  0  0  0  0  0  0  0  0  0  0
   17.2616   -2.7381   48.3303 O   0  0  0  0  0  0  0  0  0  0  0  0
   17.2259   -5.4233   47.2601 O   0  0  0  0  0  0  0  0  0  0  0  0
   22.4982   -5.8493   45.8756 O   0  0  0  0  0  0  0  0  0  0  0  0
   21.3645    1.2578   55.0007 C   0  0  1  0  0  0  0  0  0  0  0  0
   21.4044    2.5105   55.9339 C   0  0  1  0  0  0  0  0  0  0  0  0
   22.6471    2.3998   56.8648 C   0  0  2  0  0  0  0  0  0  0  0  0
   22.5827    1.0986   57.7229 C   0  0  1  0  0  0  0  0  0  0  0  0
   22.5308   -0.1705   56.7894 C   0  0  0  0  0  0  0  0  0  0  0  0
   21.2609   -0.0569   55.8478 C   0  0  2  0  0  0  0  0  0  0  0  0
   23.7834    1.0131   58.5996 N   0  0  0  0  0  0  0  0  0  0  0  0
   21.2177   -1.2538   54.9778 N   0  0  0  0  0  0  0  0  0  0  0  0
   21.5087    3.7144   55.1511 O   0  0  0  0  0  0  0  0  0  0  0  0
   22.6554    3.5430   57.7038 O   0  0  0  0  0  0  0  0  0  0  0  0
  1  2  1  0  0  0  0
  1 12  1  1  0  0  0
  1 13  1  0  0  0  0
  2  3  1  0  0  0  0
  2 10  1  1  0  0  0
  4  3  1  1  0  0  0
  4  5  1  0  0  0  0
  4 14  1  0  0  0  0
  5  6  1  0  0  0  0
  5 13  1  6  0  0  0
  6  7  1  0  0  0  0
  6 15  1  6  0  0  0
  7  8  1  0  0  0  0
  7 11  1  6  0  0  0
  8 14  1  0  0  0  0
  8 16  1  1  0  0  0
  9 11  1  0  0  0  0
 17 16  1  1  0  0  0
 17 18  1  0  0  0  0
 17 24  1  0  0  0  0
 18 19  1  0  0  0  0
 18 25  1  1  0  0  0
 19 20  1  0  0  0  0
 19 26  1  6  0  0  0
 20 21  1  0  0  0  0
 20 23  1  1  0  0  0
 21 22  1  6  0  0  0
 21 24  1  0  0  0  0
 22 27  1  0  0  0  0
 28 12  1  6  0  0  0
 28 29  1  0  0  0  0
 28 33  1  0  0  0  0
 29 30  1  0  0  0  0
 29 36  1  6  0  0  0
 30 31  1  0  0  0  0
 30 37  1  1  0  0  0
 31 32  1  0  0  0  0
 31 34  1  1  0  0  0
 32 33  1  0  0  0  0
 33 35  1  6  0  0  0
M  END
>  <CHROM.1>
-173.55565440,91.63569824,-139.34537640,-138.35809166,-80.19403867,81.05914125
20.78162978,-0.87313683,51.18794372,1.38427416,-0.51537612,0.87292938

>  <Name>
2oe8_lig

>  <RI>
0

>  <Rbt.Current_Directory>
/home/itssahil/PROJECTS/Mol_Feturizer/New_Systems/rnas/2oe8

>  <Rbt.Executable>
rbdock ($Id: //depot/dev/client3/rdock/2013.1/src/exe/rbdock.cxx#4 $)

>  <Rbt.Library>
libRbt.so (2013.1, Build901 2013/11/27)

>  <Rbt.Parameter_File>
/export/apps/rDock/src/rDock_2013.1_src/data/scripts/dock_solv.prm

>  <Rbt.Receptor>
prm/pocket_docking_8.prm

>  <SCORE>
-17.6996

>  <SCORE.INTER>
-16.5236

>  <SCORE.INTER.CONST>
1

>  <SCORE.INTER.POLAR>
-1.31264

>  <SCORE.INTER.ROT>
6

>  <SCORE.INTER.SOLV>
20.1234

>  <SCORE.INTER.VDW>
-20.9481

>  <SCORE.INTER.norm>
-0.446584

>  <SCORE.INTRA>
-1.20027

>  <SCORE.INTRA.DIHEDRAL>
-1.05231

>  <SCORE.INTRA.DIHEDRAL.0>
16.4056

>  <SCORE.INTRA.POLAR>
0

>  <SCORE.INTRA.POLAR.0>
0

>  <SCORE.INTRA.REPUL>
0

>  <SCORE.INTRA.REPUL.0>
0

>  <SCORE.INTRA.SOLV>
-1.17727

>  <SCORE.INTRA.SOLV.lig_0>
-90.9627

>  <SCORE.INTRA.VDW>
-0.0854756

>  <SCORE.INTRA.VDW.0>
-3.28744

>  <SCORE.INTRA.norm>
-0.0324396

>  <SCORE.RESTR>
0.024269

>  <SCORE.RESTR.CAVITY>
0.024269

>  <SCORE.RESTR.norm>
0.000655918

>  <SCORE.SYSTEM>
0

>  <SCORE.SYSTEM.CONST>
0

>  <SCORE.SYSTEM.DIHEDRAL>
0

>  <SCORE.SYSTEM.SOLV>
0

>  <SCORE.SYSTEM.norm>
0

>  <SCORE.heavy>
37

>  <SCORE.norm>
-0.478368

>  <RMSD>
1.583

$$$$
2oe8_lig
 OpenBabel11021811463D
libRbt.so/2013.1/901 2013/11/27
 37 40  0  0  0  0  0  0  0  0999 V2000
   20.5927    1.8147   52.9499 C   0  0  1  0  0  0  0  0  0  0  0  0
   19.4652    2.2736   51.9491 C   0  0  1  0  0  0  0  0  0  0  0  0
   18.6653    1.0401   51.4807 C   0  0  0  0  0  0  0  0  0  0  0  0
   19.6940    0.0964   50.7828 C   0  0  1  0  0  0  0  0  0  0  0  0
   20.8672   -0.3657   51.7908 C   0  0  1  0  0  0  0  0  0  0  0  0
   21.9085   -1.2922   51.0970 C   0  0  1  0  0  0  0  0  0  0  0  0
   21.1225   -2.5465   50.5349 C   0  0  1  0  0  0  0  0  0  0  0  0
   19.9679   -2.0438   49.6000 C   0  0  2  0  0  0  0  0  0  0  0  0
   21.6286   -4.9184   49.5276 C   0  0  0  0  0  0  0  0  0  0  0  0
   18.5426    3.2507   52.6097 N   0  0  0  0  0  0  0  0  0  0  0  0
   22.0571   -3.4969   49.7915 N   0  0  0  0  0  0  0  0  0  0  0  0
   20.0425    1.1994   54.1215 O   0  0  0  0  0  0  0  0  0  0  0  0
   21.5264    0.8383   52.3156 O   0  0  0  0  0  0  0  0  0  0  0  0
   19.0313   -1.1019   50.2809 O   0  0  0  0  0  0  0  0  0  0  0  0
   22.5266   -0.5276   50.0606 O   0  0  0  0  0  0  0  0  0  0  0  0
   19.2425   -3.1327   49.1582 O   0  0  0  0  0  0  0  0  0  0  0  0
   18.3439   -2.8188   48.0807 C   0  0  2  0  0  0  0  0  0  0  0  0
   17.4031   -4.0155   47.8007 C   0  0  1  0  0  0  0  0  0  0  0  0
   18.1833   -5.2507   47.2552 C   0  0  2  0  0  0  0  0  0  0  0  0
   18.9294   -4.8521   45.9477 C   0  0  1  0  0  0  0  0  0  0  0  0
   19.9288   -3.6811   46.3259 C   0  0  1  0  0  0  0  0  0  0  0  0
   20.7148   -3.1870   45.1147 C   0  0  0  0  0  0  0  0  0  0  0  0
   19.6759   -6.0315   45.4240 N   0  0  0  0  0  0  0  0  0  0  0  0
   19.1324   -2.5188   46.8573 O   0  0  0  0  0  0  0  0  0  0  0  0
   16.7135   -4.3131   49.0298 O   0  0  0  0  0  0  0  0  0  0  0  0
   17.2546   -6.2783   46.9797 O   0  0  0  0  0  0  0  0  0  0  0  0
   19.8716   -2.4286   44.2883 O   0  0  0  0  0  0  0  0  0  0  0  0
   21.0060    0.9041   55.1117 C   0  0  1  0  0  0  0  0  0  0  0  0
   21.6257    2.2512   55.6047 C   0  0  1  0  0  0  0  0  0  0  0  0
   22.7124    1.9384   56.6744 C   0  0  2  0  0  0  0  0  0  0  0  0
   22.0967    1.1630   57.8798 C   0  0  1  0  0  0  0  0  0  0  0  0
   21.4589   -0.1928   57.3901 C   0  0  0  0  0  0  0  0  0  0  0  0
   20.3488    0.1304   56.3059 C   0  0  2  0  0  0  0  0  0  0  0  0
   23.1557    0.8712   58.8854 N   0  0  0  0  0  0  0  0  0  0  0  0
   19.7528   -1.1472   55.8546 N   0  0  0  0  0  0  0  0  0  0  0  0
   22.2357    2.9532   54.5055 O   0  0  0  0  0  0  0  0  0  0  0  0
   23.2525    3.1756   57.1089 O   0  0  0  0  0  0  0  0  0  0  0  0
  1  2  1  0  0  0  0
  1 12  1  1  0  0  0
  1 13  1  0  0  0  0
  2  3  1  0  0  0  0
  2 10  1  1  0  0  0
  4  3  1  1  0  0  0
  4  5  1  0  0  0  0
  4 14  1  0  0  0  0
  5  6  1  0  0  0  0
  5 13  1  6  0  0  0
  6  7  1  0  0  0  0
  6 15  1  6  0  0  0
  7  8  1  0  0  0  0
  7 11  1  6  0  0  0
  8 14  1  0  0  0  0
  8 16  1  1  0  0  0
  9 11  1  0  0  0  0
 17 16  1  1  0  0  0
 17 18  1  0  0  0  0
 17 24  1  0  0  0  0
 18 19  1  0  0  0  0
 18 25  1  1  0  0  0
 19 20  1  0  0  0  0
 19 26  1  6  0  0  0
 20 21  1  0  0  0  0
 20 23  1  1  0  0  0
 21 22  1  6  0  0  0
 21 24  1  0  0  0  0
 22 27  1  0  0  0  0
 28 12  1  6  0  0  0
 28 29  1  0  0  0  0
 28 33  1  0  0  0  0
 29 30  1  0  0  0  0
 29 36  1  6  0  0  0
 30 31  1  0  0  0  0
 30 37  1  1  0  0  0
 31 32  1  0  0  0  0
 31 34  1  1  0  0  0
 32 33  1  0  0  0  0
 33 35  1  6  0  0  0
M  END
>  <CHROM.1>
-173.47028283,162.20364440,-167.60643471,-170.50883424,73.73793097,63.43970625
20.28362744,-1.15325842,51.20992819,0.24527760,-1.33029787,-0.30546669

>  <Name>
2oe8_lig

>  <RI>
0

>  <Rbt.Current_Directory>
/home/itssahil/PROJECTS/Mol_Feturizer/New_Systems/rnas/2oe8

>  <Rbt.Executable>
rbdock ($Id: //depot/dev/client3/rdock/2013.1/src/exe/rbdock.cxx#4 $)

>  <Rbt.Library>
libRbt.so (2013.1, Build901 2013/11/27)

>  <Rbt.Parameter_File>
/export/apps/rDock/src/rDock_2013.1_src/data/scripts/dock_solv.prm

>  <Rbt.Receptor>
prm/pocket_docking_7.prm

>  <SCORE>
-20.5284

>  <SCORE.INTER>
-14.8867

>  <SCORE.INTER.CONST>
1

>  <SCORE.INTER.POLAR>
-2.19081

>  <SCORE.INTER.ROT>
6

>  <SCORE.INTER.SOLV>
20.4462

>  <SCORE.INTER.VDW>
-17.0372

>  <SCORE.INTER.norm>
-0.402342

>  <SCORE.INTRA>
-5.64172

>  <SCORE.INTRA.DIHEDRAL>
-14.0143

>  <SCORE.INTRA.DIHEDRAL.0>
16.4056

>  <SCORE.INTRA.POLAR>
0

>  <SCORE.INTRA.POLAR.0>
0

>  <SCORE.INTRA.REPUL>
0

>  <SCORE.INTRA.REPUL.0>
0

>  <SCORE.INTRA.SOLV>
-2.46451

>  <SCORE.INTRA.SOLV.lig_0>
-90.9627

>  <SCORE.INTRA.VDW>
2.5977

>  <SCORE.INTRA.VDW.0>
-3.28744

>  <SCORE.INTRA.norm>
-0.152479

>  <SCORE.RESTR>
0

>  <SCORE.RESTR.CAVITY>
0

>  <SCORE.RESTR.norm>
0

>  <SCORE.SYSTEM>
0

>  <SCORE.SYSTEM.CONST>
0

>  <SCORE.SYSTEM.DIHEDRAL>
0

>  <SCORE.SYSTEM.SOLV>
0

>  <SCORE.SYSTEM.norm>
0

>  <SCORE.heavy>
37

>  <SCORE.norm>
-0.554822

>  <RMSD>
1.591

$$$$
2oe8_lig
 OpenBabel11021811463D
libRbt.so/2013.1/901 2013/11/27
 37 40  0  0  0  0  0  0  0  0999 V2000
   20.5307    1.7920   53.0908 C   0  0  1  0  0  0  0  0  0  0  0  0
   19.4006    2.1185   52.0421 C   0  0  1  0  0  0  0  0  0  0  0  0
   18.6410    0.8225   51.6899 C   0  0  0  0  0  0  0  0  0  0  0  0
   19.7032   -0.1536   51.0942 C   0  0  1  0  0  0  0  0  0  0  0  0
   20.8791   -0.4812   52.1506 C   0  0  1  0  0  0  0  0  0  0  0  0
   21.9533   -1.4395   51.5575 C   0  0  1  0  0  0  0  0  0  0  0  0
   21.2093   -2.7649   51.1141 C   0  0  1  0  0  0  0  0  0  0  0  0
   20.0501   -2.3892   50.1266 C   0  0  2  0  0  0  0  0  0  0  0  0
   23.5114   -4.0285   51.1222 C   0  0  0  0  0  0  0  0  0  0  0  0
   18.4439    3.1273   52.5981 N   0  0  0  0  0  0  0  0  0  0  0  0
   22.1781   -3.7548   50.4732 N   0  0  0  0  0  0  0  0  0  0  0  0
   19.9867    1.2771   54.3126 O   0  0  0  0  0  0  0  0  0  0  0  0
   21.4983    0.7868   52.5609 O   0  0  0  0  0  0  0  0  0  0  0  0
   19.0802   -1.4139   50.7061 O   0  0  0  0  0  0  0  0  0  0  0  0
   22.5597   -0.7608   50.4563 O   0  0  0  0  0  0  0  0  0  0  0  0
   19.3607   -3.5366   49.7873 O   0  0  0  0  0  0  0  0  0  0  0  0
   18.9513   -3.5683   48.4095 C   0  0  2  0  0  0  0  0  0  0  0  0
   17.8717   -4.6565   48.1953 C   0  0  1  0  0  0  0  0  0  0  0  0
   18.4411   -6.0904   48.4228 C   0  0  2  0  0  0  0  0  0  0  0  0
   19.6312   -6.3324   47.4480 C   0  0  1  0  0  0  0  0  0  0  0  0
   20.7276   -5.2359   47.7780 C   0  0  1  0  0  0  0  0  0  0  0  0
   21.9487   -5.3577   46.8708 C   0  0  0  0  0  0  0  0  0  0  0  0
   20.1772   -7.7028   47.6634 N   0  0  0  0  0  0  0  0  0  0  0  0
   20.1291   -3.8721   47.5557 O   0  0  0  0  0  0  0  0  0  0  0  0
   16.7832   -4.3602   49.0911 O   0  0  0  0  0  0  0  0  0  0  0  0
   17.4141   -7.0241   48.1623 O   0  0  0  0  0  0  0  0  0  0  0  0
   21.5742   -5.0909   45.5450 O   0  0  0  0  0  0  0  0  0  0  0  0
   20.9662    0.9667   55.2822 C   0  0  1  0  0  0  0  0  0  0  0  0
   21.5744    2.3074   55.8059 C   0  0  1  0  0  0  0  0  0  0  0  0
   22.6782    1.9790   56.8531 C   0  0  2  0  0  0  0  0  0  0  0  0
   22.0877    1.1616   58.0433 C   0  0  1  0  0  0  0  0  0  0  0  0
   21.4616   -0.1882   57.5228 C   0  0  0  0  0  0  0  0  0  0  0  0
   20.3340    0.1508   56.4617 C   0  0  2  0  0  0  0  0  0  0  0  0
   23.1628    0.8556   59.0273 N   0  0  0  0  0  0  0  0  0  0  0  0
   19.7491   -1.1214   55.9813 N   0  0  0  0  0  0  0  0  0  0  0  0
   22.1614    3.0485   54.7199 O   0  0  0  0  0  0  0  0  0  0  0  0
   23.2075    3.2104   57.3162 O   0  0  0  0  0  0  0  0  0  0  0  0
  1  2  1  0  0  0  0
  1 12  1  1  0  0  0
  1 13  1  0  0  0  0
  2  3  1  0  0  0  0
  2 10  1  1  0  0  0
  4  3  1  1  0  0  0
  4  5  1  0  0  0  0
  4 14  1  0  0  0  0
  5  6  1  0  0  0  0
  5 13  1  6  0  0  0
  6  7  1  0  0  0  0
  6 15  1  6  0  0  0
  7  8  1  0  0  0  0
  7 11  1  6  0  0  0
  8 14  1  0  0  0  0
  8 16  1  1  0  0  0
  9 11  1  0  0  0  0
 17 16  1  1  0  0  0
 17 18  1  0  0  0  0
 17 24  1  0  0  0  0
 18 19  1  0  0  0  0
 18 25  1  1  0  0  0
 19 20  1  0  0  0  0
 19 26  1  6  0  0  0
 20 21  1  0  0  0  0
 20 23  1  1  0  0  0
 21 22  1  6  0  0  0
 21 24  1  0  0  0  0
 22 27  1  0  0  0  0
 28 12  1  6  0  0  0
 28 29  1  0  0  0  0
 28 33  1  0  0  0  0
 29 30  1  0  0  0  0
 29 36  1  6  0  0  0
 30 31  1  0  0  0  0
 30 37  1  1  0  0  0
 31 32  1  0  0  0  0
 31 34  1  1  0  0  0
 32 33  1  0  0  0  0
 33 35  1  6  0  0  0
M  END
>  <CHROM.1>
179.84525231,45.67857873,-141.53070540,-164.28621288,64.64979692,70.18283248
20.54268793,-1.57434159,51.76780502,1.35430216,-0.62870853,0.73729919

>  <Name>
2oe8_lig

>  <RI>
0

>  <Rbt.Current_Directory>
/home/itssahil/PROJECTS/Mol_Feturizer/New_Systems/rnas/2oe8

>  <Rbt.Executable>
rbdock ($Id: //depot/dev/client3/rdock/2013.1/src/exe/rbdock.cxx#4 $)

>  <Rbt.Library>
libRbt.so (2013.1, Build901 2013/11/27)

>  <Rbt.Parameter_File>
/export/apps/rDock/src/rDock_2013.1_src/data/scripts/dock_solv.prm

>  <Rbt.Receptor>
prm/pocket_docking_6.prm

>  <SCORE>
-16.576

>  <SCORE.INTER>
-12.9091

>  <SCORE.INTER.CONST>
1

>  <SCORE.INTER.POLAR>
-1.47212

>  <SCORE.INTER.ROT>
6

>  <SCORE.INTER.SOLV>
19.3214

>  <SCORE.INTER.VDW>
-17.7395

>  <SCORE.INTER.norm>
-0.348895

>  <SCORE.INTRA>
-3.66683

>  <SCORE.INTRA.DIHEDRAL>
-9.35317

>  <SCORE.INTRA.DIHEDRAL.0>
16.4056

>  <SCORE.INTRA.POLAR>
0

>  <SCORE.INTRA.POLAR.0>
0

>  <SCORE.INTRA.REPUL>
0

>  <SCORE.INTRA.REPUL.0>
0

>  <SCORE.INTRA.SOLV>
-1.71955

>  <SCORE.INTRA.SOLV.lig_0>
-90.9627

>  <SCORE.INTRA.VDW>
1.86953

>  <SCORE.INTRA.VDW.0>
-3.28744

>  <SCORE.INTRA.norm>
-0.0991035

>  <SCORE.RESTR>
0

>  <SCORE.RESTR.CAVITY>
0

>  <SCORE.RESTR.norm>
0

>  <SCORE.SYSTEM>
0

>  <SCORE.SYSTEM.CONST>
0

>  <SCORE.SYSTEM.DIHEDRAL>
0

>  <SCORE.SYSTEM.SOLV>
0

>  <SCORE.SYSTEM.norm>
0

>  <SCORE.heavy>
37

>  <SCORE.norm>
-0.447999

>  <RMSD>
1.624

$$$$
2oe8_lig
 OpenBabel11021811463D
libRbt.so/2013.1/901 2013/11/27
 37 40  0  0  0  0  0  0  0  0999 V2000
   20.2354    2.2993   53.4732 C   0  0  1  0  0  0  0  0  0  0  0  0
   19.2730    2.7875   52.3248 C   0  0  1  0  0  0  0  0  0  0  0  0
   18.4849    1.5817   51.7720 C   0  0  0  0  0  0  0  0  0  0  0  0
   19.5513    0.5787   51.2309 C   0  0  1  0  0  0  0  0  0  0  0  0
   20.5578    0.0854   52.3926 C   0  0  1  0  0  0  0  0  0  0  0  0
   21.6369   -0.9009   51.8571 C   0  0  1  0  0  0  0  0  0  0  0  0
   20.8740   -2.1301   51.2136 C   0  0  1  0  0  0  0  0  0  0  0  0
   19.8781   -1.5955   50.1263 C   0  0  2  0  0  0  0  0  0  0  0  0
   22.8659   -3.8173   51.5007 C   0  0  0  0  0  0  0  0  0  0  0  0
   18.3183    3.8183   52.8425 N   0  0  0  0  0  0  0  0  0  0  0  0
   21.8529   -3.1365   50.6151 N   0  0  0  0  0  0  0  0  0  0  0  0
   19.5067    1.7335   54.5700 O   0  0  0  0  0  0  0  0  0  0  0  0
   21.1978    1.2692   52.9830 O   0  0  0  0  0  0  0  0  0  0  0  0
   18.9051   -0.5989   50.6627 O   0  0  0  0  0  0  0  0  0  0  0  0
   22.4220   -0.1862   50.9012 O   0  0  0  0  0  0  0  0  0  0  0  0
   19.1671   -2.6597   49.6076 O   0  0  0  0  0  0  0  0  0  0  0  0
   18.6755   -2.4219   48.2777 C   0  0  2  0  0  0  0  0  0  0  0  0
   18.0397   -3.7103   47.7022 C   0  0  1  0  0  0  0  0  0  0  0  0
   19.1001   -4.8332   47.4861 C   0  0  2  0  0  0  0  0  0  0  0  0
   20.2070   -4.3171   46.5200 C   0  0  1  0  0  0  0  0  0  0  0  0
   20.8657   -3.0501   47.2085 C   0  0  1  0  0  0  0  0  0  0  0  0
   21.9646   -2.4372   46.3451 C   0  0  0  0  0  0  0  0  0  0  0  0
   21.2219   -5.3891   46.3117 N   0  0  0  0  0  0  0  0  0  0  0  0
   19.8037   -2.0012   47.4067 O   0  0  0  0  0  0  0  0  0  0  0  0
   17.0010   -4.1176   48.6133 O   0  0  0  0  0  0  0  0  0  0  0  0
   18.4541   -5.9524   46.9165 O   0  0  0  0  0  0  0  0  0  0  0  0
   22.6688   -1.4818   47.0937 O   0  0  0  0  0  0  0  0  0  0  0  0
   20.3133    1.4307   55.6897 C   0  0  1  0  0  0  0  0  0  0  0  0
   20.4662    2.7295   56.5449 C   0  0  1  0  0  0  0  0  0  0  0  0
   21.3794    2.4179   57.7663 C   0  0  2  0  0  0  0  0  0  0  0  0
   20.7701    1.2759   58.6370 C   0  0  1  0  0  0  0  0  0  0  0  0
   20.6016   -0.0358   57.7792 C   0  0  0  0  0  0  0  0  0  0  0  0
   19.6663    0.2841   56.5402 C   0  0  2  0  0  0  0  0  0  0  0  0
   21.6635    0.9930   59.7943 N   0  0  0  0  0  0  0  0  0  0  0  0
   19.5104   -0.9532   55.7427 N   0  0  0  0  0  0  0  0  0  0  0  0
   21.0692    3.7763   55.7614 O   0  0  0  0  0  0  0  0  0  0  0  0
   21.4956    3.6087   58.5274 O   0  0  0  0  0  0  0  0  0  0  0  0
  1  2  1  0  0  0  0
  1 12  1  1  0  0  0
  1 13  1  0  0  0  0
  2  3  1  0  0  0  0
  2 10  1  1  0  0  0
  4  3  1  1  0  0  0
  4  5  1  0  0  0  0
  4 14  1  0  0  0  0
  5  6  1  0  0  0  0
  5 13  1  6  0  0  0
  6  7  1  0  0  0  0
  6 15  1  6  0  0  0
  7  8  1  0  0  0  0
  7 11  1  6  0  0  0
  8 14  1  0  0  0  0
  8 16  1  1  0  0  0
  9 11  1  0  0  0  0
 17 16  1  1  0  0  0
 17 18  1  0  0  0  0
 17 24  1  0  0  0  0
 18 19  1  0  0  0  0
 18 25  1  1  0  0  0
 19 20  1  0  0  0  0
 19 26  1  6  0  0  0
 20 21  1  0  0  0  0
 20 23  1  1  0  0  0
 21 22  1  6  0  0  0
 21 24  1  0  0  0  0
 22 27  1  0  0  0  0
 28 12  1  6  0  0  0
 28 29  1  0  0  0  0
 28 33  1  0  0  0  0
 29 30  1  0  0  0  0
 29 36  1  6  0  0  0
 30 31  1  0  0  0  0
 30 37  1  1  0  0  0
 31 32  1  0  0  0  0
 31 34  1  1  0  0  0
 32 33  1  0  0  0  0
 33 35  1  6  0  0  0
M  END
>  <CHROM.1>
-172.75692692,60.95412321,-154.86544233,173.27732551,-169.49330945,84.46976726
20.26740442,-0.68471591,51.87599743,1.39797860,-1.19800482,0.85509498

>  <Name>
2oe8_lig

>  <RI>
0

>  <Rbt.Current_Directory>
/home/itssahil/PROJECTS/Mol_Feturizer/New_Systems/rnas/2oe8

>  <Rbt.Executable>
rbdock ($Id: //depot/dev/client3/rdock/2013.1/src/exe/rbdock.cxx#4 $)

>  <Rbt.Library>
libRbt.so (2013.1, Build901 2013/11/27)

>  <Rbt.Parameter_File>
/export/apps/rDock/src/rDock_2013.1_src/data/scripts/dock_solv.prm

>  <Rbt.Receptor>
prm/pocket_docking_4.prm

>  <SCORE>
-19.7795

>  <SCORE.INTER>
-14.1281

>  <SCORE.INTER.CONST>
1

>  <SCORE.INTER.POLAR>
-1.80579

>  <SCORE.INTER.ROT>
6

>  <SCORE.INTER.SOLV>
21.1298

>  <SCORE.INTER.VDW>
-18.0427

>  <SCORE.INTER.norm>
-0.38184

>  <SCORE.INTRA>
-5.65918

>  <SCORE.INTRA.DIHEDRAL>
-10.2359

>  <SCORE.INTRA.DIHEDRAL.0>
16.4056

>  <SCORE.INTRA.POLAR>
0

>  <SCORE.INTRA.POLAR.0>
0

>  <SCORE.INTRA.REPUL>
0.00223592

>  <SCORE.INTRA.REPUL.0>
0

>  <SCORE.INTRA.SOLV>
-1.54519

>  <SCORE.INTRA.SOLV.lig_0>
-90.9627

>  <SCORE.INTRA.VDW>
0.220188

>  <SCORE.INTRA.VDW.0>
-3.28744

>  <SCORE.INTRA.norm>
-0.152951

>  <SCORE.RESTR>
0.00778753

>  <SCORE.RESTR.CAVITY>
0.00778753

>  <SCORE.RESTR.norm>
0.000210474

>  <SCORE.SYSTEM>
0

>  <SCORE.SYSTEM.CONST>
0

>  <SCORE.SYSTEM.DIHEDRAL>
0

>  <SCORE.SYSTEM.SOLV>
0

>  <SCORE.SYSTEM.norm>
0

>  <SCORE.heavy>
37

>  <SCORE.norm>
-0.534581

>  <RMSD>
1.644

$$$$
2oe8_lig
 OpenBabel11021811463D
libRbt.so/2013.1/901 2013/11/27
 37 40  0  0  0  0  0  0  0  0999 V2000
   20.2526    0.4584   53.0113 C   0  0  1  0  0  0  0  0  0  0  0  0
   19.0899    0.6711   51.9689 C   0  0  1  0  0  0  0  0  0  0  0  0
   18.6626   -0.6958   51.3947 C   0  0  0  0  0  0  0  0  0  0  0  0
   19.9326   -1.2955   50.7139 C   0  0  1  0  0  0  0  0  0  0  0  0
   21.1399   -1.4998   51.7659 C   0  0  1  0  0  0  0  0  0  0  0  0
   22.4173   -2.0800   51.0908 C   0  0  1  0  0  0  0  0  0  0  0  0
   22.0131   -3.4575   50.4230 C   0  0  1  0  0  0  0  0  0  0  0  0
   20.8099   -3.2137   49.4469 C   0  0  2  0  0  0  0  0  0  0  0  0
   24.4314   -4.4808   50.4601 C   0  0  0  0  0  0  0  0  0  0  0  0
   17.9152    1.3328   52.6204 N   0  0  0  0  0  0  0  0  0  0  0  0
   23.1961   -4.0852   49.6909 N   0  0  0  0  0  0  0  0  0  0  0  0
   19.8312   -0.3502   54.1170 O   0  0  0  0  0  0  0  0  0  0  0  0
   21.4367   -0.2013   52.3867 O   0  0  0  0  0  0  0  0  0  0  0  0
   19.6300   -2.5908   50.1160 O   0  0  0  0  0  0  0  0  0  0  0  0
   22.8590   -1.1183   50.1313 O   0  0  0  0  0  0  0  0  0  0  0  0
   20.4154   -4.4235   48.9105 O   0  0  0  0  0  0  0  0  0  0  0  0
   20.1793   -4.3681   47.4935 C   0  0  2  0  0  0  0  0  0  0  0  0
   18.7861   -3.7586   47.2050 C   0  0  1  0  0  0  0  0  0  0  0  0
   17.6344   -4.6785   47.7145 C   0  0  2  0  0  0  0  0  0  0  0  0
   17.7492   -6.0733   47.0314 C   0  0  1  0  0  0  0  0  0  0  0  0
   19.1617   -6.6693   47.4348 C   0  0  1  0  0  0  0  0  0  0  0  0
   19.4034   -8.0400   46.8089 C   0  0  0  0  0  0  0  0  0  0  0  0
   16.6490   -6.9546   47.5168 N   0  0  0  0  0  0  0  0  0  0  0  0
   20.2379   -5.7432   46.9332 O   0  0  0  0  0  0  0  0  0  0  0  0
   18.7521   -2.4587   47.8247 O   0  0  0  0  0  0  0  0  0  0  0  0
   16.4018   -4.0802   47.3725 O   0  0  0  0  0  0  0  0  0  0  0  0
   19.4355   -7.9164   45.4114 O   0  0  0  0  0  0  0  0  0  0  0  0
   20.5378   -0.0881   55.3119 C   0  0  1  0  0  0  0  0  0  0  0  0
   19.5413    0.5395   56.3390 C   0  0  1  0  0  0  0  0  0  0  0  0
   20.3145    0.8627   57.6507 C   0  0  2  0  0  0  0  0  0  0  0  0
   20.9537   -0.4281   58.2498 C   0  0  1  0  0  0  0  0  0  0  0  0
   21.9525   -1.0747   57.2159 C   0  0  0  0  0  0  0  0  0  0  0  0
   21.1601   -1.4079   55.8842 C   0  0  2  0  0  0  0  0  0  0  0  0
   21.6912   -0.0923   59.4992 N   0  0  0  0  0  0  0  0  0  0  0  0
   22.1041   -2.0179   54.9209 N   0  0  0  0  0  0  0  0  0  0  0  0
   18.9797    1.7560   55.8119 O   0  0  0  0  0  0  0  0  0  0  0  0
   19.3875    1.4233   58.5658 O   0  0  0  0  0  0  0  0  0  0  0  0
  1  2  1  0  0  0  0
  1 12  1  1  0  0  0
  1 13  1  0  0  0  0
  2  3  1  0  0  0  0
  2 10  1  1  0  0  0
  4  3  1  1  0  0  0
  4  5  1  0  0  0  0
  4 14  1  0  0  0  0
  5  6  1  0  0  0  0
  5 13  1  6  0  0  0
  6  7  1  0  0  0  0
  6 15  1  6  0  0  0
  7  8  1  0  0  0  0
  7 11  1  6  0  0  0
  8 14  1  0  0  0  0
  8 16  1  1  0  0  0
  9 11  1  0  0  0  0
 17 16  1  1  0  0  0
 17 18  1  0  0  0  0
 17 24  1  0  0  0  0
 18 19  1  0  0  0  0
 18 25  1  1  0  0  0
 19 20  1  0  0  0  0
 19 26  1  6  0  0  0
 20 21  1  0  0  0  0
 20 23  1  1  0  0  0
 21 22  1  6  0  0  0
 21 24  1  0  0  0  0
 22 27  1  0  0  0  0
 28 12  1  6  0  0  0
 28 29  1  0  0  0  0
 28 33  1  0  0  0  0
 29 30  1  0  0  0  0
 29 36  1  6  0  0  0
 30 31  1  0  0  0  0
 30 37  1  1  0  0  0
 31 32  1  0  0  0  0
 31 34  1  1  0  0  0
 32 33  1  0  0  0  0
 33 35  1  6  0  0  0
M  END
>  <CHROM.1>
-152.53044126,62.23341757,-135.25548724,-79.78178444,63.45349514,113.21382153
20.13028225,-2.39627139,51.48322120,1.44117252,-0.38146511,0.95303180

>  <Name>
2oe8_lig

>  <RI>
0

>  <Rbt.Current_Directory>
/home/itssahil/PROJECTS/Mol_Feturizer/New_Systems/rnas/2oe8

>  <Rbt.Executable>
rbdock ($Id: //depot/dev/client3/rdock/2013.1/src/exe/rbdock.cxx#4 $)

>  <Rbt.Library>
libRbt.so (2013.1, Build901 2013/11/27)

>  <Rbt.Parameter_File>
/export/apps/rDock/src/rDock_2013.1_src/data/scripts/dock_solv.prm

>  <Rbt.Receptor>
prm/pocket_docking_2.prm

>  <SCORE>
-4.914

>  <SCORE.INTER>
-6.85818

>  <SCORE.INTER.CONST>
1

>  <SCORE.INTER.POLAR>
0

>  <SCORE.INTER.ROT>
6

>  <SCORE.INTER.SOLV>
19.6369

>  <SCORE.INTER.VDW>
-18.7178

>  <SCORE.INTER.norm>
-0.185356

>  <SCORE.INTRA>
1.93834

>  <SCORE.INTRA.DIHEDRAL>
1.59134

>  <SCORE.INTRA.DIHEDRAL.0>
16.4056

>  <SCORE.INTRA.POLAR>
0

>  <SCORE.INTRA.POLAR.0>
0

>  <SCORE.INTRA.REPUL>
0

>  <SCORE.INTRA.REPUL.0>
0

>  <SCORE.INTRA.SOLV>
0.82948

>  <SCORE.INTRA.SOLV.lig_0>
-90.9627

>  <SCORE.INTRA.VDW>
0.727934

>  <SCORE.INTRA.VDW.0>
-3.28744

>  <SCORE.INTRA.norm>
0.0523877

>  <SCORE.RESTR>
0.00583323

>  <SCORE.RESTR.CAVITY>
0.00583323

>  <SCORE.RESTR.norm>
0.000157655

>  <SCORE.SYSTEM>
0

>  <SCORE.SYSTEM.CONST>
0

>  <SCORE.SYSTEM.DIHEDRAL>
0

>  <SCORE.SYSTEM.SOLV>
0

>  <SCORE.SYSTEM.norm>
0

>  <SCORE.heavy>
37

>  <SCORE.norm>
-0.132811

>  <RMSD>
1.672

$$$$
2oe8_lig
 OpenBabel11021811463D
libRbt.so/2013.1/901 2013/11/27
 37 40  0  0  0  0  0  0  0  0999 V2000
   21.2621    1.4571   52.9182 C   0  0  1  0  0  0  0  0  0  0  0  0
   20.4021    2.1563   51.7979 C   0  0  1  0  0  0  0  0  0  0  0  0
   19.3500    1.1610   51.2660 C   0  0  0  0  0  0  0  0  0  0  0  0
   20.1504   -0.0504   50.6938 C   0  0  1  0  0  0  0  0  0  0  0  0
   21.0526   -0.7647   51.8259 C   0  0  1  0  0  0  0  0  0  0  0  0
   21.8693   -1.9628   51.2589 C   0  0  1  0  0  0  0  0  0  0  0  0
   20.8340   -2.9858   50.6355 C   0  0  1  0  0  0  0  0  0  0  0  0
   19.9535   -2.2343   49.5774 C   0  0  2  0  0  0  0  0  0  0  0  0
   20.8421   -5.5103   49.9120 C   0  0  0  0  0  0  0  0  0  0  0  0
   19.7160    3.3703   52.3437 N   0  0  0  0  0  0  0  0  0  0  0  0
   21.5469   -4.1808   50.0083 N   0  0  0  0  0  0  0  0  0  0  0  0
   20.4556    1.0598   54.0343 O   0  0  0  0  0  0  0  0  0  0  0  0
   21.9565    0.2420   52.3996 O   0  0  0  0  0  0  0  0  0  0  0  0
   19.2425   -1.0498   50.1423 O   0  0  0  0  0  0  0  0  0  0  0  0
   22.7679   -1.4341   50.2823 O   0  0  0  0  0  0  0  0  0  0  0  0
   19.0090   -3.1091   49.0776 O   0  0  0  0  0  0  0  0  0  0  0  0
   18.4985   -2.7213   47.7908 C   0  0  2  0  0  0  0  0  0  0  0  0
   17.4995   -3.7817   47.2679 C   0  0  1  0  0  0  0  0  0  0  0  0
   18.2018   -5.1417   46.9689 C   0  0  2  0  0  0  0  0  0  0  0  0
   19.3290   -4.9188   45.9178 C   0  0  1  0  0  0  0  0  0  0  0  0
   20.3528   -3.8875   46.5514 C   0  0  1  0  0  0  0  0  0  0  0  0
   21.5061   -3.5715   45.6033 C   0  0  0  0  0  0  0  0  0  0  0  0
   20.0019   -6.2177   45.6300 N   0  0  0  0  0  0  0  0  0  0  0  0
   19.6279   -2.5981   46.8328 O   0  0  0  0  0  0  0  0  0  0  0  0
   16.4627   -3.9166   48.2587 O   0  0  0  0  0  0  0  0  0  0  0  0
   17.2388   -6.0364   46.4527 O   0  0  0  0  0  0  0  0  0  0  0  0
   20.9941   -3.2320   44.3417 O   0  0  0  0  0  0  0  0  0  0  0  0
   21.2064    0.6891   55.1721 C   0  0  1  0  0  0  0  0  0  0  0  0
   21.9715    1.9521   55.6830 C   0  0  1  0  0  0  0  0  0  0  0  0
   22.8284    1.5504   56.9188 C   0  0  2  0  0  0  0  0  0  0  0  0
   21.9269    0.9779   58.0560 C   0  0  1  0  0  0  0  0  0  0  0  0
   21.1423   -0.2906   57.5461 C   0  0  0  0  0  0  0  0  0  0  0  0
   20.2664    0.1241   56.2919 C   0  0  2  0  0  0  0  0  0  0  0  0
   22.7694    0.5964   59.2232 N   0  0  0  0  0  0  0  0  0  0  0  0
   19.5305   -1.0713   55.8221 N   0  0  0  0  0  0  0  0  0  0  0  0
   22.8400    2.4614   54.6537 O   0  0  0  0  0  0  0  0  0  0  0  0
   23.5052    2.7137   57.3656 O   0  0  0  0  0  0  0  0  0  0  0  0
  1  2  1  0  0  0  0
  1 12  1  1  0  0  0
  1 13  1  0  0  0  0
  2  3  1  0  0  0  0
  2 10  1  1  0  0  0
  4  3  1  1  0  0  0
  4  5  1  0  0  0  0
  4 14  1  0  0  0  0
  5  6  1  0  0  0  0
  5 13  1  6  0  0  0
  6  7  1  0  0  0  0
  6 15  1  6  0  0  0
  7  8  1  0  0  0  0
  7 11  1  6  0  0  0
  8 14  1  0  0  0  0
  8 16  1  1  0  0  0
  9 11  1  0  0  0  0
 17 16  1  1  0  0  0
 17 18  1  0  0  0  0
 17 24  1  0  0  0  0
 18 19  1  0  0  0  0
 18 25  1  1  0  0  0
 19 20  1  0  0  0  0
 19 26  1  6  0  0  0
 20 21  1  0  0  0  0
 20 23  1  1  0  0  0
 21 22  1  6  0  0  0
 21 24  1  0  0  0  0
 22 27  1  0  0  0  0
 28 12  1  6  0  0  0
 28 29  1  0  0  0  0
 28 33  1  0  0  0  0
 29 30  1  0  0  0  0
 29 36  1  6  0  0  0
 30 31  1  0  0  0  0
 30 37  1  1  0  0  0
 31 32  1  0  0  0  0
 31 34  1  1  0  0  0
 32 33  1  0  0  0  0
 33 35  1  6  0  0  0
M  END
>  <CHROM.1>
-167.42329018,152.98752454,-157.76519582,177.29176396,49.97446453,64.86422173
20.48665548,-1.37020422,51.20934854,-0.71484594,-1.26725951,-1.27782134

>  <Name>
2oe8_lig

>  <RI>
0

>  <Rbt.Current_Directory>
/home/itssahil/PROJECTS/Mol_Feturizer/New_Systems/rnas/2oe8

>  <Rbt.Executable>
rbdock ($Id: //depot/dev/client3/rdock/2013.1/src/exe/rbdock.cxx#4 $)

>  <Rbt.Library>
libRbt.so (2013.1, Build901 2013/11/27)

>  <Rbt.Parameter_File>
/export/apps/rDock/src/rDock_2013.1_src/data/scripts/dock_solv.prm

>  <Rbt.Receptor>
prm/pocket_docking_4.prm

>  <SCORE>
-16.601

>  <SCORE.INTER>
-11.6912

>  <SCORE.INTER.CONST>
1

>  <SCORE.INTER.POLAR>
-1.84488

>  <SCORE.INTER.ROT>
6

>  <SCORE.INTER.SOLV>
21.6151

>  <SCORE.INTER.VDW>
-16.4496

>  <SCORE.INTER.norm>
-0.315978

>  <SCORE.INTRA>
-5.02451

>  <SCORE.INTRA.DIHEDRAL>
-12.4169

>  <SCORE.INTRA.DIHEDRAL.0>
16.4056

>  <SCORE.INTRA.POLAR>
0

>  <SCORE.INTRA.POLAR.0>
0

>  <SCORE.INTRA.REPUL>
0

>  <SCORE.INTRA.REPUL.0>
0

>  <SCORE.INTRA.SOLV>
-1.50789

>  <SCORE.INTRA.SOLV.lig_0>
-90.9627

>  <SCORE.INTRA.VDW>
1.93789

>  <SCORE.INTRA.VDW.0>
-3.28744

>  <SCORE.INTRA.norm>
-0.135798

>  <SCORE.RESTR>
0.114733

>  <SCORE.RESTR.CAVITY>
0.114733

>  <SCORE.RESTR.norm>
0.00310089

>  <SCORE.SYSTEM>
0

>  <SCORE.SYSTEM.CONST>
0

>  <SCORE.SYSTEM.DIHEDRAL>
0

>  <SCORE.SYSTEM.SOLV>
0

>  <SCORE.SYSTEM.norm>
0

>  <SCORE.heavy>
37

>  <SCORE.norm>
-0.448675

>  <RMSD>
1.678

$$$$
2oe8_lig
 OpenBabel11021811463D
libRbt.so/2013.1/901 2013/11/27
 37 40  0  0  0  0  0  0  0  0999 V2000
   19.9063    1.0079   53.5608 C   0  0  1  0  0  0  0  0  0  0  0  0
   19.0915    1.6823   52.3926 C   0  0  1  0  0  0  0  0  0  0  0  0
   18.5869    0.5909   51.4257 C   0  0  0  0  0  0  0  0  0  0  0  0
   19.8606   -0.1316   50.8858 C   0  0  1  0  0  0  0  0  0  0  0  0
   20.7171   -0.8101   52.0741 C   0  0  1  0  0  0  0  0  0  0  0  0
   21.9998   -1.5169   51.5459 C   0  0  1  0  0  0  0  0  0  0  0  0
   21.5385   -2.6049   50.4922 C   0  0  1  0  0  0  0  0  0  0  0  0
   20.6741   -1.9049   49.3864 C   0  0  2  0  0  0  0  0  0  0  0  0
   23.6579   -4.1326   50.7583 C   0  0  0  0  0  0  0  0  0  0  0  0
   17.9266    2.4483   52.9391 N   0  0  0  0  0  0  0  0  0  0  0  0
   22.7370   -3.3242   49.8794 N   0  0  0  0  0  0  0  0  0  0  0  0
   19.0914    0.1110   54.3259 O   0  0  0  0  0  0  0  0  0  0  0  0
   21.0739    0.2363   53.0422 O   0  0  0  0  0  0  0  0  0  0  0  0
   19.4932   -1.1783   49.9390 O   0  0  0  0  0  0  0  0  0  0  0  0
   22.8250   -0.5079   50.9612 O   0  0  0  0  0  0  0  0  0  0  0  0
   20.2189   -2.8616   48.5007 O   0  0  0  0  0  0  0  0  0  0  0  0
   19.4711   -2.3113   47.4030 C   0  0  2  0  0  0  0  0  0  0  0  0
   18.0989   -3.0168   47.2813 C   0  0  1  0  0  0  0  0  0  0  0  0
   18.2517   -4.5165   46.8818 C   0  0  2  0  0  0  0  0  0  0  0  0
   19.0140   -4.6134   45.5273 C   0  0  1  0  0  0  0  0  0  0  0  0
   20.4346   -3.9456   45.7490 C   0  0  1  0  0  0  0  0  0  0  0  0
   21.2790   -3.9634   44.4780 C   0  0  0  0  0  0  0  0  0  0  0  0
   19.1612   -6.0463   45.1431 N   0  0  0  0  0  0  0  0  0  0  0  0
   20.2354   -2.5061   46.1435 O   0  0  0  0  0  0  0  0  0  0  0  0
   17.4253   -2.8613   48.5450 O   0  0  0  0  0  0  0  0  0  0  0  0
   16.9618   -5.0745   46.7439 O   0  0  0  0  0  0  0  0  0  0  0  0
   20.5522   -3.3854   43.4260 O   0  0  0  0  0  0  0  0  0  0  0  0
   19.4042    0.0969   55.7035 C   0  0  1  0  0  0  0  0  0  0  0  0
   20.8658   -0.4317   55.8652 C   0  0  1  0  0  0  0  0  0  0  0  0
   21.2131   -0.4823   57.3817 C   0  0  2  0  0  0  0  0  0  0  0  0
   21.0840    0.9319   58.0275 C   0  0  1  0  0  0  0  0  0  0  0  0
   19.6150    1.4782   57.8593 C   0  0  0  0  0  0  0  0  0  0  0  0
   19.2677    1.5341   56.3138 C   0  0  2  0  0  0  0  0  0  0  0  0
   21.4155    0.8561   59.4773 N   0  0  0  0  0  0  0  0  0  0  0  0
   17.8888    2.0516   56.1649 N   0  0  0  0  0  0  0  0  0  0  0  0
   20.9832   -1.7555   55.3111 O   0  0  0  0  0  0  0  0  0  0  0  0
   22.5439   -0.9577   57.4994 O   0  0  0  0  0  0  0  0  0  0  0  0
  1  2  1  0  0  0  0
  1 12  1  6  0  0  0
  1 13  1  0  0  0  0
  2  3  1  0  0  0  0
  2 10  1  1  0  0  0
  4  3  1  1  0  0  0
  4  5  1  0  0  0  0
  4 14  1  0  0  0  0
  5  6  1  0  0  0  0
  5 13  1  1  0  0  0
  6  7  1  0  0  0  0
  6 15  1  6  0  0  0
  7  8  1  0  0  0  0
  7 11  1  6  0  0  0
  8 14  1  0  0  0  0
  8 16  1  6  0  0  0
  9 11  1  0  0  0  0
 17 16  1  1  0  0  0
 17 18  1  0  0  0  0
 17 24  1  0  0  0  0
 18 19  1  0  0  0  0
 18 25  1  1  0  0  0
 19 20  1  0  0  0  0
 19 26  1  6  0  0  0
 20 21  1  0  0  0  0
 20 23  1  1  0  0  0
 21 22  1  6  0  0  0
 21 24  1  0  0  0  0
 22 27  1  0  0  0  0
 28 12  1  6  0  0  0
 28 29  1  0  0  0  0
 28 33  1  0  0  0  0
 29 30  1  0  0  0  0
 29 36  1  1  0  0  0
 30 31  1  0  0  0  0
 30 37  1  6  0  0  0
 31 32  1  0  0  0  0
 31 34  1  1  0  0  0
 32 33  1  0  0  0  0
 33 35  1  1  0  0  0
M  END
>  <CHROM.1>
-144.55183588,62.11784377,-176.88057157,-127.23340017,53.49504092,-63.40455373
20.13271675,-1.43118095,51.27818976,1.49976245,-0.49267336,1.12842149

>  <Name>
2oe8_lig

>  <RI>
0

>  <Rbt.Current_Directory>
/home/itssahil/PROJECTS/Mol_Feturizer/New_Systems/rnas/2oe8

>  <Rbt.Executable>
rbdock ($Id: //depot/dev/client3/rdock/2013.1/src/exe/rbdock.cxx#4 $)

>  <Rbt.Library>
libRbt.so (2013.1, Build901 2013/11/27)

>  <Rbt.Parameter_File>
/export/apps/rDock/src/rDock_2013.1_src/data/scripts/dock_solv.prm

>  <Rbt.Receptor>
prm/pocket_docking_2.prm

>  <SCORE>
-15.8229

>  <SCORE.INTER>
-15.2381

>  <SCORE.INTER.CONST>
1

>  <SCORE.INTER.POLAR>
-1.29194

>  <SCORE.INTER.ROT>
6

>  <SCORE.INTER.SOLV>
19.2986

>  <SCORE.INTER.VDW>
-19.8851

>  <SCORE.INTER.norm>
-0.41184

>  <SCORE.INTRA>
-0.610577

>  <SCORE.INTRA.DIHEDRAL>
-4.55062

>  <SCORE.INTRA.DIHEDRAL.0>
16.4056

>  <SCORE.INTRA.POLAR>
0

>  <SCORE.INTRA.POLAR.0>
0

>  <SCORE.INTRA.REPUL>
0

>  <SCORE.INTRA.REPUL.0>
0

>  <SCORE.INTRA.SOLV>
0.454842

>  <SCORE.INTRA.SOLV.lig_0>
-90.9627

>  <SCORE.INTRA.VDW>
1.43731

>  <SCORE.INTRA.VDW.0>
-3.28744

>  <SCORE.INTRA.norm>
-0.0165021

>  <SCORE.RESTR>
0.0257893

>  <SCORE.RESTR.CAVITY>
0.0257893

>  <SCORE.RESTR.norm>
0.000697007

>  <SCORE.SYSTEM>
0

>  <SCORE.SYSTEM.CONST>
0

>  <SCORE.SYSTEM.DIHEDRAL>
0

>  <SCORE.SYSTEM.SOLV>
0

>  <SCORE.SYSTEM.norm>
0

>  <SCORE.heavy>
37

>  <SCORE.norm>
-0.427645

>  <RMSD>
1.763

$$$$
2oe8_lig
 OpenBabel11021811463D
libRbt.so/2013.1/901 2013/11/27
 37 40  0  0  0  0  0  0  0  0999 V2000
   19.9940    1.2047   53.4247 C   0  0  1  0  0  0  0  0  0  0  0  0
   19.0953    1.7852   52.2676 C   0  0  1  0  0  0  0  0  0  0  0  0
   18.5998    0.6274   51.3761 C   0  0  0  0  0  0  0  0  0  0  0  0
   19.8806   -0.0610   50.8090 C   0  0  1  0  0  0  0  0  0  0  0  0
   20.8219   -0.6428   51.9844 C   0  0  1  0  0  0  0  0  0  0  0  0
   22.1115   -1.3145   51.4278 C   0  0  1  0  0  0  0  0  0  0  0  0
   21.6550   -2.4710   50.4476 C   0  0  1  0  0  0  0  0  0  0  0  0
   20.7085   -1.8643   49.3540 C   0  0  2  0  0  0  0  0  0  0  0  0
   24.0259   -2.3434   49.3256 C   0  0  0  0  0  0  0  0  0  0  0  0
   17.9214    2.5223   52.8340 N   0  0  0  0  0  0  0  0  0  0  0  0
   22.8572   -3.1632   49.8112 N   0  0  0  0  0  0  0  0  0  0  0  0
   19.2586    0.3087   54.2676 O   0  0  0  0  0  0  0  0  0  0  0  0
   21.1722    0.4634   52.8861 O   0  0  0  0  0  0  0  0  0  0  0  0
   19.5207   -1.1670   49.9290 O   0  0  0  0  0  0  0  0  0  0  0  0
   22.8599   -0.2977   50.7594 O   0  0  0  0  0  0  0  0  0  0  0  0
   20.2595   -2.8816   48.5351 O   0  0  0  0  0  0  0  0  0  0  0  0
   19.3526   -2.4323   47.5141 C   0  0  2  0  0  0  0  0  0  0  0  0
   18.0468   -3.2624   47.5530 C   0  0  1  0  0  0  0  0  0  0  0  0
   18.2957   -4.7527   47.1668 C   0  0  2  0  0  0  0  0  0  0  0  0
   18.9172   -4.8180   45.7404 C   0  0  1  0  0  0  0  0  0  0  0  0
   20.2848   -4.0182   45.7963 C   0  0  1  0  0  0  0  0  0  0  0  0
   20.9890   -3.9951   44.4427 C   0  0  0  0  0  0  0  0  0  0  0  0
   19.1559   -6.2418   45.3687 N   0  0  0  0  0  0  0  0  0  0  0  0
   19.9951   -2.5922   46.1836 O   0  0  0  0  0  0  0  0  0  0  0  0
   17.4982   -3.1333   48.8787 O   0  0  0  0  0  0  0  0  0  0  0  0
   17.0560   -5.4289   47.1781 O   0  0  0  0  0  0  0  0  0  0  0  0
   20.1500   -3.3977   43.4897 O   0  0  0  0  0  0  0  0  0  0  0  0
   19.1237    0.7651   55.5978 C   0  0  1  0  0  0  0  0  0  0  0  0
   19.9208   -0.2047   56.5282 C   0  0  1  0  0  0  0  0  0  0  0  0
   19.7546    0.2685   58.0017 C   0  0  2  0  0  0  0  0  0  0  0  0
   20.2795    1.7269   58.1781 C   0  0  1  0  0  0  0  0  0  0  0  0
   19.4883    2.7112   57.2347 C   0  0  0  0  0  0  0  0  0  0  0  0
   19.6653    2.2295   55.7350 C   0  0  2  0  0  0  0  0  0  0  0  0
   20.1047    2.1579   59.5928 N   0  0  0  0  0  0  0  0  0  0  0  0
   18.9228    3.1608   54.8561 N   0  0  0  0  0  0  0  0  0  0  0  0
   19.4132   -1.5465   56.4048 O   0  0  0  0  0  0  0  0  0  0  0  0
   20.4918   -0.6226   58.8223 O   0  0  0  0  0  0  0  0  0  0  0  0
  1  2  1  0  0  0  0
  1 12  1  6  0  0  0
  1 13  1  0  0  0  0
  2  3  1  0  0  0  0
  2 10  1  1  0  0  0
  4  3  1  1  0  0  0
  4  5  1  0  0  0  0
  4 14  1  0  0  0  0
  5  6  1  0  0  0  0
  5 13  1  1  0  0  0
  6  7  1  0  0  0  0
  6 15  1  6  0  0  0
  7  8  1  0  0  0  0
  7 11  1  6  0  0  0
  8 14  1  0  0  0  0
  8 16  1  6  0  0  0
  9 11  1  0  0  0  0
 17 16  1  1  0  0  0
 17 18  1  0  0  0  0
 17 24  1  0  0  0  0
 18 19  1  0  0  0  0
 18 25  1  1  0  0  0
 19 20  1  0  0  0  0
 19 26  1  6  0  0  0
 20 21  1  0  0  0  0
 20 23  1  1  0  0  0
 21 22  1  6  0  0  0
 21 24  1  0  0  0  0
 22 27  1  0  0  0  0
 28 12  1  6  0  0  0
 28 29  1  0  0  0  0
 28 33  1  0  0  0  0
 29 30  1  0  0  0  0
 29 36  1  1  0  0  0
 30 31  1  0  0  0  0
 30 37  1  1  0  0  0
 31 32  1  0  0  0  0
 31 34  1  1  0  0  0
 32 33  1  0  0  0  0
 33 35  1  6  0  0  0
M  END
>  <CHROM.1>
-115.74175788,-41.88238388,178.50223487,-126.89777699,59.04490865,-113.82025971
19.94015463,-1.18904601,51.30221168,-1.56155534,-0.01838264,-2.03069730

>  <Name>
2oe8_lig

>  <RI>
0

>  <Rbt.Current_Directory>
/home/itssahil/PROJECTS/Mol_Feturizer/New_Systems/rnas/2oe8

>  <Rbt.Executable>
rbdock ($Id: //depot/dev/client3/rdock/2013.1/src/exe/rbdock.cxx#4 $)

>  <Rbt.Library>
libRbt.so (2013.1, Build901 2013/11/27)

>  <Rbt.Parameter_File>
/export/apps/rDock/src/rDock_2013.1_src/data/scripts/dock_solv.prm

>  <Rbt.Receptor>
prm/pocket_docking_2.prm

>  <SCORE>
-0.810009

>  <SCORE.INTER>
-15.0859

>  <SCORE.INTER.CONST>
1

>  <SCORE.INTER.POLAR>
-2.0203

>  <SCORE.INTER.ROT>
6

>  <SCORE.INTER.SOLV>
15.2142

>  <SCORE.INTER.VDW>
-15.9943

>  <SCORE.INTER.norm>
-0.407728

>  <SCORE.INTRA>
13.8358

>  <SCORE.INTRA.DIHEDRAL>
4.95719

>  <SCORE.INTRA.DIHEDRAL.0>
16.4056

>  <SCORE.INTRA.POLAR>
0

>  <SCORE.INTRA.POLAR.0>
0

>  <SCORE.INTRA.REPUL>
0

>  <SCORE.INTRA.REPUL.0>
0

>  <SCORE.INTRA.SOLV>
2.94695

>  <SCORE.INTRA.SOLV.lig_0>
-90.9627

>  <SCORE.INTRA.VDW>
9.88378

>  <SCORE.INTRA.VDW.0>
-3.28744

>  <SCORE.INTRA.norm>
0.373942

>  <SCORE.RESTR>
0.440075

>  <SCORE.RESTR.CAVITY>
0.440075

>  <SCORE.RESTR.norm>
0.0118939

>  <SCORE.SYSTEM>
0

>  <SCORE.SYSTEM.CONST>
0

>  <SCORE.SYSTEM.DIHEDRAL>
0

>  <SCORE.SYSTEM.SOLV>
0

>  <SCORE.SYSTEM.norm>
0

>  <SCORE.heavy>
37

>  <SCORE.norm>
-0.0218921

>  <RMSD>
1.765

$$$$
2oe8_lig
 OpenBabel11021811463D
libRbt.so/2013.1/901 2013/11/27
 37 40  0  0  0  0  0  0  0  0999 V2000
   19.9327    0.7227   53.5097 C   0  0  1  0  0  0  0  0  0  0  0  0
   19.0622    1.4014   52.3850 C   0  0  1  0  0  0  0  0  0  0  0  0
   18.5894    0.3249   51.3858 C   0  0  0  0  0  0  0  0  0  0  0  0
   19.8842   -0.3142   50.7933 C   0  0  1  0  0  0  0  0  0  0  0  0
   20.7969   -0.9958   51.9371 C   0  0  1  0  0  0  0  0  0  0  0  0
   22.1002   -1.6191   51.3567 C   0  0  1  0  0  0  0  0  0  0  0  0
   21.6686   -2.6868   50.2701 C   0  0  1  0  0  0  0  0  0  0  0  0
   20.7487   -1.9874   49.2098 C   0  0  2  0  0  0  0  0  0  0  0  0
   23.7317   -4.3084   50.3744 C   0  0  0  0  0  0  0  0  0  0  0  0
   17.8742    2.0889   52.9836 N   0  0  0  0  0  0  0  0  0  0  0  0
   22.8866   -3.3236   49.6064 N   0  0  0  0  0  0  0  0  0  0  0  0
   19.1776   -0.2411   54.2546 O   0  0  0  0  0  0  0  0  0  0  0  0
   21.1242    0.0286   52.9386 O   0  0  0  0  0  0  0  0  0  0  0  0
   19.5467   -1.3403   49.8133 O   0  0  0  0  0  0  0  0  0  0  0  0
   22.8640   -0.5499   50.7963 O   0  0  0  0  0  0  0  0  0  0  0  0
   20.3206   -2.9303   48.2961 O   0  0  0  0  0  0  0  0  0  0  0  0
   19.4197   -2.3991   47.3096 C   0  0  2  0  0  0  0  0  0  0  0  0
   18.0588   -3.1336   47.3748 C   0  0  1  0  0  0  0  0  0  0  0  0
   18.1880   -4.6309   46.9585 C   0  0  2  0  0  0  0  0  0  0  0  0
   18.7619   -4.7158   45.5133 C   0  0  1  0  0  0  0  0  0  0  0  0
   20.1849   -4.0177   45.5407 C   0  0  1  0  0  0  0  0  0  0  0  0
   20.8499   -4.0216   44.1671 C   0  0  0  0  0  0  0  0  0  0  0  0
   18.8861   -6.1465   45.1129 N   0  0  0  0  0  0  0  0  0  0  0  0
   20.0105   -2.5815   45.9583 O   0  0  0  0  0  0  0  0  0  0  0  0
   17.5593   -2.9885   48.7180 O   0  0  0  0  0  0  0  0  0  0  0  0
   16.9034   -5.2163   46.9965 O   0  0  0  0  0  0  0  0  0  0  0  0
   20.0013   -3.4042   43.2355 O   0  0  0  0  0  0  0  0  0  0  0  0
   19.5181   -0.2911   55.6248 C   0  0  1  0  0  0  0  0  0  0  0  0
   21.0412   -0.6221   55.7360 C   0  0  1  0  0  0  0  0  0  0  0  0
   21.4237   -0.7113   57.2422 C   0  0  2  0  0  0  0  0  0  0  0  0
   21.1162    0.6323   57.9728 C   0  0  1  0  0  0  0  0  0  0  0  0
   19.5832    0.9802   57.8562 C   0  0  0  0  0  0  0  0  0  0  0  0
   19.1994    1.0763   56.3214 C   0  0  2  0  0  0  0  0  0  0  0  0
   21.4851    0.5198   59.4111 N   0  0  0  0  0  0  0  0  0  0  0  0
   17.7600    1.4069   56.2212 N   0  0  0  0  0  0  0  0  0  0  0  0
   21.3267   -1.8831   55.1024 O   0  0  0  0  0  0  0  0  0  0  0  0
   22.8091   -1.0051   57.3143 O   0  0  0  0  0  0  0  0  0  0  0  0
  1  2  1  0  0  0  0
  1 12  1  6  0  0  0
  1 13  1  0  0  0  0
  2  3  1  0  0  0  0
  2 10  1  1  0  0  0
  4  3  1  1  0  0  0
  4  5  1  0  0  0  0
  4 14  1  0  0  0  0
  5  6  1  0  0  0  0
  5 13  1  1  0  0  0
  6  7  1  0  0  0  0
  6 15  1  6  0  0  0
  7  8  1  0  0  0  0
  7 11  1  6  0  0  0
  8 14  1  0  0  0  0
  8 16  1  6  0  0  0
  9 11  1  0  0  0  0
 17 16  1  1  0  0  0
 17 18  1  0  0  0  0
 17 24  1  0  0  0  0
 18 19  1  0  0  0  0
 18 25  1  1  0  0  0
 19 20  1  0  0  0  0
 19 26  1  6  0  0  0
 20 21  1  0  0  0  0
 20 23  1  1  0  0  0
 21 22  1  6  0  0  0
 21 24  1  0  0  0  0
 22 27  1  0  0  0  0
 28 12  1  6  0  0  0
 28 29  1  0  0  0  0
 28 33  1  0  0  0  0
 29 30  1  0  0  0  0
 29 36  1  6  0  0  0
 30 31  1  0  0  0  0
 30 37  1  6  0  0  0
 31 32  1  0  0  0  0
 31 34  1  1  0  0  0
 32 33  1  0  0  0  0
 33 35  1  1  0  0  0
M  END
>  <CHROM.1>
-144.42798535,72.55145394,177.45442516,-120.05434993,56.29733672,-58.18687649
20.12881386,-1.61940004,51.18445652,1.47891524,-0.40098349,1.14851090

>  <Name>
2oe8_lig

>  <RI>
0

>  <Rbt.Current_Directory>
/home/itssahil/PROJECTS/Mol_Feturizer/New_Systems/rnas/2oe8

>  <Rbt.Executable>
rbdock ($Id: //depot/dev/client3/rdock/2013.1/src/exe/rbdock.cxx#4 $)

>  <Rbt.Library>
libRbt.so (2013.1, Build901 2013/11/27)

>  <Rbt.Parameter_File>
/export/apps/rDock/src/rDock_2013.1_src/data/scripts/dock_solv.prm

>  <Rbt.Receptor>
prm/pocket_docking_2.prm

>  <SCORE>
-17.4385

>  <SCORE.INTER>
-17.5622

>  <SCORE.INTER.CONST>
1

>  <SCORE.INTER.POLAR>
-1.68745

>  <SCORE.INTER.ROT>
6

>  <SCORE.INTER.SOLV>
20.8052

>  <SCORE.INTER.VDW>
-20.6183

>  <SCORE.INTER.norm>
-0.474653

>  <SCORE.INTRA>
-0.392156

>  <SCORE.INTRA.DIHEDRAL>
-4.31153

>  <SCORE.INTRA.DIHEDRAL.0>
16.4056

>  <SCORE.INTRA.POLAR>
0

>  <SCORE.INTRA.POLAR.0>
0

>  <SCORE.INTRA.REPUL>
0

>  <SCORE.INTRA.REPUL.0>
0

>  <SCORE.INTRA.SOLV>
0.417392

>  <SCORE.INTRA.SOLV.lig_0>
-90.9627

>  <SCORE.INTRA.VDW>
1.55491

>  <SCORE.INTRA.VDW.0>
-3.28744

>  <SCORE.INTRA.norm>
-0.0105988

>  <SCORE.RESTR>
0.515811

>  <SCORE.RESTR.CAVITY>
0.515811

>  <SCORE.RESTR.norm>
0.0139408

>  <SCORE.SYSTEM>
0

>  <SCORE.SYSTEM.CONST>
0

>  <SCORE.SYSTEM.DIHEDRAL>
0

>  <SCORE.SYSTEM.SOLV>
0

>  <SCORE.SYSTEM.norm>
0

>  <SCORE.heavy>
37

>  <SCORE.norm>
-0.471311

>  <RMSD>
1.771

$$$$
2oe8_lig
 OpenBabel11021811463D
libRbt.so/2013.1/901 2013/11/27
 37 40  0  0  0  0  0  0  0  0999 V2000
   20.7991    0.2229   53.2862 C   0  0  1  0  0  0  0  0  0  0  0  0
   20.3782    1.1634   52.0938 C   0  0  1  0  0  0  0  0  0  0  0  0
   19.1880    0.5325   51.3415 C   0  0  0  0  0  0  0  0  0  0  0  0
   19.6883   -0.8520   50.8231 C   0  0  1  0  0  0  0  0  0  0  0  0
   20.1427   -1.8195   52.0329 C   0  0  1  0  0  0  0  0  0  0  0  0
   20.6613   -3.1961   51.5229 C   0  0  1  0  0  0  0  0  0  0  0  0
   19.4943   -3.8570   50.6814 C   0  0  1  0  0  0  0  0  0  0  0  0
   19.0587   -2.8615   49.5503 C   0  0  2  0  0  0  0  0  0  0  0  0
   19.9339   -6.4303   50.9664 C   0  0  0  0  0  0  0  0  0  0  0  0
   19.9908    2.5168   52.6041 N   0  0  0  0  0  0  0  0  0  0  0  0
   19.9261   -5.1988   50.0962 N   0  0  0  0  0  0  0  0  0  0  0  0
   19.7372    0.0637   54.2354 O   0  0  0  0  0  0  0  0  0  0  0  0
   21.1895   -1.1346   52.8040 O   0  0  0  0  0  0  0  0  0  0  0  0
   18.6361   -1.5291   50.0737 O   0  0  0  0  0  0  0  0  0  0  0  0
   21.8246   -2.9408   50.7341 O   0  0  0  0  0  0  0  0  0  0  0  0
   17.9994   -3.4097   48.8543 O   0  0  0  0  0  0  0  0  0  0  0  0
   17.8038   -2.8196   47.5579 C   0  0  2  0  0  0  0  0  0  0  0  0
   16.9650   -3.7614   46.6606 C   0  0  1  0  0  0  0  0  0  0  0  0
   17.7289   -5.0806   46.3315 C   0  0  2  0  0  0  0  0  0  0  0  0
   19.0704   -4.7349   45.6203 C   0  0  1  0  0  0  0  0  0  0  0  0
   19.9075   -3.8392   46.6254 C   0  0  1  0  0  0  0  0  0  0  0  0
   21.2494   -3.4175   46.0333 C   0  0  0  0  0  0  0  0  0  0  0  0
   19.8026   -5.9946   45.3044 N   0  0  0  0  0  0  0  0  0  0  0  0
   19.1263   -2.5864   46.9216 O   0  0  0  0  0  0  0  0  0  0  0  0
   15.7248   -4.0137   47.3485 O   0  0  0  0  0  0  0  0  0  0  0  0
   16.9220   -5.8606   45.4742 O   0  0  0  0  0  0  0  0  0  0  0  0
   21.9303   -2.6038   46.9518 O   0  0  0  0  0  0  0  0  0  0  0  0
   20.1084    0.3864   55.5598 C   0  0  1  0  0  0  0  0  0  0  0  0
   18.8346    0.8866   56.3140 C   0  0  1  0  0  0  0  0  0  0  0  0
   19.2356    1.2758   57.7668 C   0  0  2  0  0  0  0  0  0  0  0  0
   19.8536    0.0557   58.5170 C   0  0  1  0  0  0  0  0  0  0  0  0
   21.1334   -0.4632   57.7569 C   0  0  0  0  0  0  0  0  0  0  0  0
   20.7196   -0.8642   56.2804 C   0  0  2  0  0  0  0  0  0  0  0  0
   20.2336    0.4543   59.9006 N   0  0  0  0  0  0  0  0  0  0  0  0
   21.9257   -1.3536   55.5754 N   0  0  0  0  0  0  0  0  0  0  0  0
   18.2827    2.0406   55.6530 O   0  0  0  0  0  0  0  0  0  0  0  0
   18.0628    1.7187   58.4295 O   0  0  0  0  0  0  0  0  0  0  0  0
  1  2  1  0  0  0  0
  1 12  1  1  0  0  0
  1 13  1  0  0  0  0
  2  3  1  0  0  0  0
  2 10  1  1  0  0  0
  4  3  1  1  0  0  0
  4  5  1  0  0  0  0
  4 14  1  0  0  0  0
  5  6  1  0  0  0  0
  5 13  1  6  0  0  0
  6  7  1  0  0  0  0
  6 15  1  6  0  0  0
  7  8  1  0  0  0  0
  7 11  1  6  0  0  0
  8 14  1  0  0  0  0
  8 16  1  1  0  0  0
  9 11  1  0  0  0  0
 17 16  1  1  0  0  0
 17 18  1  0  0  0  0
 17 24  1  0  0  0  0
 18 19  1  0  0  0  0
 18 25  1  1  0  0  0
 19 20  1  0  0  0  0
 19 26  1  6  0  0  0
 20 21  1  0  0  0  0
 20 23  1  1  0  0  0
 21 22  1  6  0  0  0
 21 24  1  0  0  0  0
 22 27  1  0  0  0  0
 28 12  1  6  0  0  0
 28 29  1  0  0  0  0
 28 33  1  0  0  0  0
 29 30  1  0  0  0  0
 29 36  1  6  0  0  0
 30 31  1  0  0  0  0
 30 37  1  1  0  0  0
 31 32  1  0  0  0  0
 31 34  1  1  0  0  0
 32 33  1  0  0  0  0
 33 35  1  6  0  0  0
M  END
>  <CHROM.1>
-125.56118935,79.29627288,-160.74796264,160.54825773,178.62438745,151.25354457
19.53095212,-1.88467806,51.42896054,1.43474683,-0.81037863,1.00932109

>  <Name>
2oe8_lig

>  <RI>
0

>  <Rbt.Current_Directory>
/home/itssahil/PROJECTS/Mol_Feturizer/New_Systems/rnas/2oe8

>  <Rbt.Executable>
rbdock ($Id: //depot/dev/client3/rdock/2013.1/src/exe/rbdock.cxx#4 $)

>  <Rbt.Library>
libRbt.so (2013.1, Build901 2013/11/27)

>  <Rbt.Parameter_File>
/export/apps/rDock/src/rDock_2013.1_src/data/scripts/dock_solv.prm

>  <Rbt.Receptor>
prm/pocket_docking_4.prm

>  <SCORE>
-20.306

>  <SCORE.INTER>
-19.3785

>  <SCORE.INTER.CONST>
1

>  <SCORE.INTER.POLAR>
-1.47103

>  <SCORE.INTER.ROT>
6

>  <SCORE.INTER.SOLV>
15.4875

>  <SCORE.INTER.VDW>
-20.778

>  <SCORE.INTER.norm>
-0.523742

>  <SCORE.INTRA>
-0.927578

>  <SCORE.INTRA.DIHEDRAL>
-2.3207

>  <SCORE.INTRA.DIHEDRAL.0>
16.4056

>  <SCORE.INTRA.POLAR>
0

>  <SCORE.INTRA.POLAR.0>
0

>  <SCORE.INTRA.REPUL>
0.0281247

>  <SCORE.INTRA.REPUL.0>
0

>  <SCORE.INTRA.SOLV>
-0.198022

>  <SCORE.INTRA.SOLV.lig_0>
-90.9627

>  <SCORE.INTRA.VDW>
0.19116

>  <SCORE.INTRA.VDW.0>
-3.28744

>  <SCORE.INTRA.norm>
-0.0250697

>  <SCORE.RESTR>
0

>  <SCORE.RESTR.CAVITY>
0

>  <SCORE.RESTR.norm>
0

>  <SCORE.SYSTEM>
0

>  <SCORE.SYSTEM.CONST>
0

>  <SCORE.SYSTEM.DIHEDRAL>
0

>  <SCORE.SYSTEM.SOLV>
0

>  <SCORE.SYSTEM.norm>
0

>  <SCORE.heavy>
37

>  <SCORE.norm>
-0.548812

>  <RMSD>
1.783

$$$$
2oe8_lig
 OpenBabel11021811463D
libRbt.so/2013.1/901 2013/11/27
 37 40  0  0  0  0  0  0  0  0999 V2000
   20.5883    0.4905   53.1349 C   0  0  1  0  0  0  0  0  0  0  0  0
   20.4197    1.2832   51.7834 C   0  0  1  0  0  0  0  0  0  0  0  0
   19.2610    0.6676   50.9715 C   0  0  0  0  0  0  0  0  0  0  0  0
   19.6568   -0.8196   50.7116 C   0  0  1  0  0  0  0  0  0  0  0  0
   19.8534   -1.6396   52.0881 C   0  0  1  0  0  0  0  0  0  0  0  0
   20.2671   -3.1195   51.8380 C   0  0  1  0  0  0  0  0  0  0  0  0
   19.1383   -3.7800   50.9454 C   0  0  1  0  0  0  0  0  0  0  0  0
   18.9543   -2.9227   49.6449 C   0  0  2  0  0  0  0  0  0  0  0  0
   20.6229   -5.5314   49.6706 C   0  0  0  0  0  0  0  0  0  0  0  0
   20.1327    2.7277   52.0542 N   0  0  0  0  0  0  0  0  0  0  0  0
   19.4791   -5.2283   50.6053 N   0  0  0  0  0  0  0  0  0  0  0  0
   19.4117    0.5751   53.9488 O   0  0  0  0  0  0  0  0  0  0  0  0
   20.8744   -0.9542   52.8926 O   0  0  0  0  0  0  0  0  0  0  0  0
   18.6287   -1.4936   49.9268 O   0  0  0  0  0  0  0  0  0  0  0  0
   21.5359   -3.0960   51.1821 O   0  0  0  0  0  0  0  0  0  0  0  0
   17.9277   -3.4613   48.8945 O   0  0  0  0  0  0  0  0  0  0  0  0
   17.8693   -2.9430   47.5548 C   0  0  2  0  0  0  0  0  0  0  0  0
   17.0658   -3.9015   46.6430 C   0  0  1  0  0  0  0  0  0  0  0  0
   17.7924   -5.2688   46.4564 C   0  0  2  0  0  0  0  0  0  0  0  0
   19.2036   -5.0227   45.8455 C   0  0  1  0  0  0  0  0  0  0  0  0
   19.9942   -4.1035   46.8670 C   0  0  1  0  0  0  0  0  0  0  0  0
   21.3991   -3.7744   46.3704 C   0  0  0  0  0  0  0  0  0  0  0  0
   19.9002   -6.3284   45.6659 N   0  0  0  0  0  0  0  0  0  0  0  0
   19.2500   -2.8037   47.0231 O   0  0  0  0  0  0  0  0  0  0  0  0
   15.7619   -4.0601   47.2341 O   0  0  0  0  0  0  0  0  0  0  0  0
   17.0250   -6.0649   45.5780 O   0  0  0  0  0  0  0  0  0  0  0  0
   21.3133   -3.0551   45.1686 O   0  0  0  0  0  0  0  0  0  0  0  0
   19.6858    0.7236   55.3268 C   0  0  1  0  0  0  0  0  0  0  0  0
   18.4108    1.3068   56.0165 C   0  0  1  0  0  0  0  0  0  0  0  0
   18.7095    1.5053   57.5312 C   0  0  2  0  0  0  0  0  0  0  0  0
   19.1050    0.1526   58.2001 C   0  0  1  0  0  0  0  0  0  0  0  0
   20.3844   -0.4492   57.5031 C   0  0  0  0  0  0  0  0  0  0  0  0
   20.0740   -0.6555   55.9626 C   0  0  2  0  0  0  0  0  0  0  0  0
   19.3908    0.3695   59.6454 N   0  0  0  0  0  0  0  0  0  0  0  0
   21.2785   -1.2241   55.3169 N   0  0  0  0  0  0  0  0  0  0  0  0
   18.0642    2.5775   55.4348 O   0  0  0  0  0  0  0  0  0  0  0  0
   17.5366    2.0277   58.1330 O   0  0  0  0  0  0  0  0  0  0  0  0
  1  2  1  0  0  0  0
  1 12  1  1  0  0  0
  1 13  1  0  0  0  0
  2  3  1  0  0  0  0
  2 10  1  1  0  0  0
  4  3  1  1  0  0  0
  4  5  1  0  0  0  0
  4 14  1  0  0  0  0
  5  6  1  0  0  0  0
  5 13  1  1  0  0  0
  6  7  1  0  0  0  0
  6 15  1  6  0  0  0
  7  8  1  0  0  0  0
  7 11  1  6  0  0  0
  8 14  1  0  0  0  0
  8 16  1  6  0  0  0
  9 11  1  0  0  0  0
 17 16  1  1  0  0  0
 17 18  1  0  0  0  0
 17 24  1  0  0  0  0
 18 19  1  0  0  0  0
 18 25  1  1  0  0  0
 19 20  1  0  0  0  0
 19 26  1  6  0  0  0
 20 21  1  0  0  0  0
 20 23  1  1  0  0  0
 21 22  1  6  0  0  0
 21 24  1  0  0  0  0
 22 27  1  0  0  0  0
 28 12  1  6  0  0  0
 28 29  1  0  0  0  0
 28 33  1  0  0  0  0
 29 30  1  0  0  0  0
 29 36  1  6  0  0  0
 30 31  1  0  0  0  0
 30 37  1  1  0  0  0
 31 32  1  0  0  0  0
 31 34  1  1  0  0  0
 32 33  1  0  0  0  0
 33 35  1  6  0  0  0
M  END
>  <CHROM.1>
-140.43367623,-69.12777380,-166.90056858,160.17357988,62.05537280,159.94258383
19.33613738,-1.82936566,51.29929987,1.45750608,-1.24821448,0.95984316

>  <Name>
2oe8_lig

>  <RI>
0

>  <Rbt.Current_Directory>
/home/itssahil/PROJECTS/Mol_Feturizer/New_Systems/rnas/2oe8

>  <Rbt.Executable>
rbdock ($Id: //depot/dev/client3/rdock/2013.1/src/exe/rbdock.cxx#4 $)

>  <Rbt.Library>
libRbt.so (2013.1, Build901 2013/11/27)

>  <Rbt.Parameter_File>
/export/apps/rDock/src/rDock_2013.1_src/data/scripts/dock_solv.prm

>  <Rbt.Receptor>
prm/pocket_docking_3.prm

>  <SCORE>
-18.7819

>  <SCORE.INTER>
-18.1126

>  <SCORE.INTER.CONST>
1

>  <SCORE.INTER.POLAR>
-1.50798

>  <SCORE.INTER.ROT>
6

>  <SCORE.INTER.SOLV>
17.0974

>  <SCORE.INTER.VDW>
-20.3476

>  <SCORE.INTER.norm>
-0.489529

>  <SCORE.INTRA>
-0.674619

>  <SCORE.INTRA.DIHEDRAL>
-6.58019

>  <SCORE.INTRA.DIHEDRAL.0>
16.4056

>  <SCORE.INTRA.POLAR>
0

>  <SCORE.INTRA.POLAR.0>
0

>  <SCORE.INTRA.REPUL>
0

>  <SCORE.INTRA.REPUL.0>
0

>  <SCORE.INTRA.SOLV>
1.06278

>  <SCORE.INTRA.SOLV.lig_0>
-90.9627

>  <SCORE.INTRA.VDW>
2.08409

>  <SCORE.INTRA.VDW.0>
-3.28744

>  <SCORE.INTRA.norm>
-0.0182329

>  <SCORE.RESTR>
0.00529085

>  <SCORE.RESTR.CAVITY>
0.00529085

>  <SCORE.RESTR.norm>
0.000142996

>  <SCORE.SYSTEM>
0

>  <SCORE.SYSTEM.CONST>
0

>  <SCORE.SYSTEM.DIHEDRAL>
0

>  <SCORE.SYSTEM.SOLV>
0

>  <SCORE.SYSTEM.norm>
0

>  <SCORE.heavy>
37

>  <SCORE.norm>
-0.507619

>  <RMSD>
1.802

$$$$
2oe8_lig
 OpenBabel11021811463D
libRbt.so/2013.1/901 2013/11/27
 37 40  0  0  0  0  0  0  0  0999 V2000
   19.8891    1.3089   53.6737 C   0  0  1  0  0  0  0  0  0  0  0  0
   19.3825    2.0652   52.3874 C   0  0  1  0  0  0  0  0  0  0  0  0
   18.4037    1.1575   51.6136 C   0  0  0  0  0  0  0  0  0  0  0  0
   19.2086   -0.1257   51.2375 C   0  0  1  0  0  0  0  0  0  0  0  0
   19.7520   -0.9004   52.5453 C   0  0  1  0  0  0  0  0  0  0  0  0
   20.5725   -2.1716   52.1782 C   0  0  1  0  0  0  0  0  0  0  0  0
   19.6293   -3.1096   51.3194 C   0  0  1  0  0  0  0  0  0  0  0  0
   19.0926   -2.2986   50.0889 C   0  0  2  0  0  0  0  0  0  0  0  0
   19.5804   -5.5990   50.4845 C   0  0  0  0  0  0  0  0  0  0  0  0
   18.6947    3.3406   52.7649 N   0  0  0  0  0  0  0  0  0  0  0  0
   20.3639   -4.3694   50.8693 N   0  0  0  0  0  0  0  0  0  0  0  0
   18.8102    0.9969   54.5641 O   0  0  0  0  0  0  0  0  0  0  0  0
   20.5784    0.0319   53.3247 O   0  0  0  0  0  0  0  0  0  0  0  0
   18.3737   -1.0501   50.4789 O   0  0  0  0  0  0  0  0  0  0  0  0
   21.7189   -1.7349   51.4463 O   0  0  0  0  0  0  0  0  0  0  0  0
   18.2209   -3.0951   49.3728 O   0  0  0  0  0  0  0  0  0  0  0  0
   18.1171   -2.7234   47.9879 C   0  0  2  0  0  0  0  0  0  0  0  0
   17.3020   -3.7827   47.2075 C   0  0  1  0  0  0  0  0  0  0  0  0
   18.0426   -5.1538   47.1458 C   0  0  2  0  0  0  0  0  0  0  0  0
   19.4322   -4.9583   46.4705 C   0  0  1  0  0  0  0  0  0  0  0  0
   20.2381   -3.9265   47.3645 C   0  0  1  0  0  0  0  0  0  0  0  0
   21.6235   -3.6364   46.7942 C   0  0  0  0  0  0  0  0  0  0  0  0
   20.1422   -6.2678   46.4101 N   0  0  0  0  0  0  0  0  0  0  0  0
   19.4800   -2.6260   47.4036 O   0  0  0  0  0  0  0  0  0  0  0  0
   16.0177   -3.8921   47.8506 O   0  0  0  0  0  0  0  0  0  0  0  0
   17.2621   -6.0477   46.3802 O   0  0  0  0  0  0  0  0  0  0  0  0
   21.4968   -3.1471   45.4851 O   0  0  0  0  0  0  0  0  0  0  0  0
   19.1143    1.2260   55.9245 C   0  0  1  0  0  0  0  0  0  0  0  0
   17.8061    1.6856   56.6449 C   0  0  1  0  0  0  0  0  0  0  0  0
   18.1338    1.9722   58.1394 C   0  0  2  0  0  0  0  0  0  0  0  0
   18.7056    0.6987   58.8356 C   0  0  1  0  0  0  0  0  0  0  0  0
   20.0200    0.2209   58.1084 C   0  0  0  0  0  0  0  0  0  0  0  0
   19.6807   -0.0757   56.5888 C   0  0  2  0  0  0  0  0  0  0  0  0
   19.0159    0.9996   60.2607 N   0  0  0  0  0  0  0  0  0  0  0  0
   20.9188   -0.5272   55.9147 N   0  0  0  0  0  0  0  0  0  0  0  0
   17.2953    2.8865   56.0365 O   0  0  0  0  0  0  0  0  0  0  0  0
   16.9308    2.3798   58.7698 O   0  0  0  0  0  0  0  0  0  0  0  0
  1  2  1  0  0  0  0
  1 12  1  1  0  0  0
  1 13  1  0  0  0  0
  2  3  1  0  0  0  0
  2 10  1  1  0  0  0
  4  3  1  1  0  0  0
  4  5  1  0  0  0  0
  4 14  1  0  0  0  0
  5  6  1  0  0  0  0
  5 13  1  6  0  0  0
  6  7  1  0  0  0  0
  6 15  1  6  0  0  0
  7  8  1  0  0  0  0
  7 11  1  6  0  0  0
  8 14  1  0  0  0  0
  8 16  1  1  0  0  0
  9 11  1  0  0  0  0
 17 16  1  1  0  0  0
 17 18  1  0  0  0  0
 17 24  1  0  0  0  0
 18 19  1  0  0  0  0
 18 25  1  1  0  0  0
 19 20  1  0  0  0  0
 19 26  1  6  0  0  0
 20 21  1  0  0  0  0
 20 23  1  1  0  0  0
 21 22  1  6  0  0  0
 21 24  1  0  0  0  0
 22 27  1  0  0  0  0
 28 12  1  6  0  0  0
 28 29  1  0  0  0  0
 28 33  1  0  0  0  0
 29 30  1  0  0  0  0
 29 36  1  6  0  0  0
 30 31  1  0  0  0  0
 30 37  1  1  0  0  0
 31 32  1  0  0  0  0
 31 34  1  1  0  0  0
 32 33  1  0  0  0  0
 33 35  1  6  0  0  0
M  END
>  <CHROM.1>
-137.66704004,158.22799883,-154.76284987,171.27641463,57.50345673,146.72089182
19.14997584,-1.37298339,51.84750993,1.64841565,-1.03860057,1.10440883

>  <Name>
2oe8_lig

>  <RI>
0

>  <Rbt.Current_Directory>
/home/itssahil/PROJECTS/Mol_Feturizer/New_Systems/rnas/2oe8

>  <Rbt.Executable>
rbdock ($Id: //depot/dev/client3/rdock/2013.1/src/exe/rbdock.cxx#4 $)

>  <Rbt.Library>
libRbt.so (2013.1, Build901 2013/11/27)

>  <Rbt.Parameter_File>
/export/apps/rDock/src/rDock_2013.1_src/data/scripts/dock_solv.prm

>  <Rbt.Receptor>
prm/pocket_docking_3.prm

>  <SCORE>
-21.6967

>  <SCORE.INTER>
-20.4201

>  <SCORE.INTER.CONST>
1

>  <SCORE.INTER.POLAR>
-1.44283

>  <SCORE.INTER.ROT>
6

>  <SCORE.INTER.SOLV>
15.0751

>  <SCORE.INTER.VDW>
-21.429

>  <SCORE.INTER.norm>
-0.551894

>  <SCORE.INTRA>
-1.28071

>  <SCORE.INTRA.DIHEDRAL>
-2.97886

>  <SCORE.INTRA.DIHEDRAL.0>
16.4056

>  <SCORE.INTRA.POLAR>
0

>  <SCORE.INTRA.POLAR.0>
0

>  <SCORE.INTRA.REPUL>
0

>  <SCORE.INTRA.REPUL.0>
0

>  <SCORE.INTRA.SOLV>
1.35331

>  <SCORE.INTRA.SOLV.lig_0>
-90.9627

>  <SCORE.INTRA.VDW>
-0.467937

>  <SCORE.INTRA.VDW.0>
-3.28744

>  <SCORE.INTRA.norm>
-0.0346139

>  <SCORE.RESTR>
0.00405623

>  <SCORE.RESTR.CAVITY>
0.00405623

>  <SCORE.RESTR.norm>
0.000109628

>  <SCORE.SYSTEM>
0

>  <SCORE.SYSTEM.CONST>
0

>  <SCORE.SYSTEM.DIHEDRAL>
0

>  <SCORE.SYSTEM.SOLV>
0

>  <SCORE.SYSTEM.norm>
0

>  <SCORE.heavy>
37

>  <SCORE.norm>
-0.586399

>  <RMSD>
1.805

$$$$
2oe8_lig
 OpenBabel11021811463D
libRbt.so/2013.1/901 2013/11/27
 37 40  0  0  0  0  0  0  0  0999 V2000
   19.9335    1.2162   53.5583 C   0  0  1  0  0  0  0  0  0  0  0  0
   19.2440    1.9275   52.3326 C   0  0  1  0  0  0  0  0  0  0  0  0
   18.6337    0.8604   51.4002 C   0  0  0  0  0  0  0  0  0  0  0  0
   19.8209   -0.0414   50.9387 C   0  0  1  0  0  0  0  0  0  0  0  0
   20.5506   -0.7610   52.1860 C   0  0  1  0  0  0  0  0  0  0  0  0
   21.7485   -1.6476   51.7358 C   0  0  1  0  0  0  0  0  0  0  0  0
   21.1840   -2.7211   50.7180 C   0  0  1  0  0  0  0  0  0  0  0  0
   20.4468   -1.9751   49.5518 C   0  0  2  0  0  0  0  0  0  0  0  0
   23.3352   -3.0422   49.2464 C   0  0  0  0  0  0  0  0  0  0  0  0
   18.1699    2.8591   52.8024 N   0  0  0  0  0  0  0  0  0  0  0  0
   22.2992   -3.6140   50.1810 N   0  0  0  0  0  0  0  0  0  0  0  0
   18.9903    0.4673   54.3352 O   0  0  0  0  0  0  0  0  0  0  0  0
   21.0087    0.2800   53.1166 O   0  0  0  0  0  0  0  0  0  0  0  0
   19.3516   -1.0803   50.0290 O   0  0  0  0  0  0  0  0  0  0  0  0
   22.7108   -0.7800   51.1341 O   0  0  0  0  0  0  0  0  0  0  0  0
   19.9001   -2.9109   48.6959 O   0  0  0  0  0  0  0  0  0  0  0  0
   19.3695   -2.3372   47.4891 C   0  0  2  0  0  0  0  0  0  0  0  0
   18.0180   -3.0000   47.1289 C   0  0  1  0  0  0  0  0  0  0  0  0
   18.1920   -4.5035   46.7529 C   0  0  2  0  0  0  0  0  0  0  0  0
   19.1728   -4.6230   45.5493 C   0  0  1  0  0  0  0  0  0  0  0  0
   20.5535   -3.9994   46.0161 C   0  0  1  0  0  0  0  0  0  0  0  0
   21.6033   -4.0425   44.9093 C   0  0  0  0  0  0  0  0  0  0  0  0
   19.3406   -6.0596   45.1877 N   0  0  0  0  0  0  0  0  0  0  0  0
   20.3330   -2.5547   46.3789 O   0  0  0  0  0  0  0  0  0  0  0  0
   17.1419   -2.8247   48.2587 O   0  0  0  0  0  0  0  0  0  0  0  0
   16.9288   -5.0215   46.3917 O   0  0  0  0  0  0  0  0  0  0  0  0
   21.0976   -3.4144   43.7610 O   0  0  0  0  0  0  0  0  0  0  0  0
   19.3141    0.4007   55.7087 C   0  0  1  0  0  0  0  0  0  0  0  0
   20.7349   -0.2357   55.8434 C   0  0  1  0  0  0  0  0  0  0  0  0
   21.0916   -0.3443   57.3547 C   0  0  2  0  0  0  0  0  0  0  0  0
   21.0716    1.0612   58.0313 C   0  0  1  0  0  0  0  0  0  0  0  0
   19.6447    1.7160   57.8906 C   0  0  0  0  0  0  0  0  0  0  0  0
   19.2880    1.8304   56.3505 C   0  0  2  0  0  0  0  0  0  0  0  0
   21.4102    0.9301   59.4756 N   0  0  0  0  0  0  0  0  0  0  0  0
   17.9490    2.4495   56.2273 N   0  0  0  0  0  0  0  0  0  0  0  0
   20.7507   -1.5522   55.2605 O   0  0  0  0  0  0  0  0  0  0  0  0
   22.3855   -0.9172   57.4480 O   0  0  0  0  0  0  0  0  0  0  0  0
  1  2  1  0  0  0  0
  1 12  1  6  0  0  0
  1 13  1  0  0  0  0
  2  3  1  0  0  0  0
  2 10  1  1  0  0  0
  4  3  1  1  0  0  0
  4  5  1  0  0  0  0
  4 14  1  0  0  0  0
  5  6  1  0  0  0  0
  5 13  1  1  0  0  0
  6  7  1  0  0  0  0
  6 15  1  6  0  0  0
  7  8  1  0  0  0  0
  7 11  1  6  0  0  0
  8 14  1  0  0  0  0
  8 16  1  6  0  0  0
  9 11  1  0  0  0  0
 17 16  1  1  0  0  0
 17 18  1  0  0  0  0
 17 24  1  0  0  0  0
 18 19  1  0  0  0  0
 18 25  1  1  0  0  0
 19 20  1  0  0  0  0
 19 26  1  6  0  0  0
 20 21  1  0  0  0  0
 20 23  1  1  0  0  0
 21 22  1  6  0  0  0
 21 24  1  0  0  0  0
 22 27  1  0  0  0  0
 28 12  1  6  0  0  0
 28 29  1  0  0  0  0
 28 33  1  0  0  0  0
 29 30  1  0  0  0  0
 29 36  1  1  0  0  0
 30 31  1  0  0  0  0
 30 37  1  6  0  0  0
 31 32  1  0  0  0  0
 31 34  1  1  0  0  0
 32 33  1  0  0  0  0
 33 35  1  1  0  0  0
M  END
>  <CHROM.1>
-148.98298893,-69.41477121,-171.42924780,-138.27288356,54.84471647,-57.82281575
20.08192506,-1.32804203,51.28431349,1.51367649,-0.49738302,1.10993233

>  <Name>
2oe8_lig

>  <RI>
0

>  <Rbt.Current_Directory>
/home/itssahil/PROJECTS/Mol_Feturizer/New_Systems/rnas/2oe8

>  <Rbt.Executable>
rbdock ($Id: //depot/dev/client3/rdock/2013.1/src/exe/rbdock.cxx#4 $)

>  <Rbt.Library>
libRbt.so (2013.1, Build901 2013/11/27)

>  <Rbt.Parameter_File>
/export/apps/rDock/src/rDock_2013.1_src/data/scripts/dock_solv.prm

>  <Rbt.Receptor>
prm/pocket_docking_2.prm

>  <SCORE>
-15.9063

>  <SCORE.INTER>
-14.9458

>  <SCORE.INTER.CONST>
1

>  <SCORE.INTER.POLAR>
-1.35074

>  <SCORE.INTER.ROT>
6

>  <SCORE.INTER.SOLV>
18.0525

>  <SCORE.INTER.VDW>
-19.0789

>  <SCORE.INTER.norm>
-0.403941

>  <SCORE.INTRA>
-0.964111

>  <SCORE.INTRA.DIHEDRAL>
-6.35306

>  <SCORE.INTRA.DIHEDRAL.0>
16.4056

>  <SCORE.INTRA.POLAR>
0

>  <SCORE.INTRA.POLAR.0>
0

>  <SCORE.INTRA.REPUL>
0

>  <SCORE.INTRA.REPUL.0>
0

>  <SCORE.INTRA.SOLV>
0.178816

>  <SCORE.INTRA.SOLV.lig_0>
-90.9627

>  <SCORE.INTRA.VDW>
2.12301

>  <SCORE.INTRA.VDW.0>
-3.28744

>  <SCORE.INTRA.norm>
-0.026057

>  <SCORE.RESTR>
0.00362778

>  <SCORE.RESTR.CAVITY>
0.00362778

>  <SCORE.RESTR.norm>
9.8048e-05

>  <SCORE.SYSTEM>
0

>  <SCORE.SYSTEM.CONST>
0

>  <SCORE.SYSTEM.DIHEDRAL>
0

>  <SCORE.SYSTEM.SOLV>
0

>  <SCORE.SYSTEM.norm>
0

>  <SCORE.heavy>
37

>  <SCORE.norm>
-0.4299

>  <RMSD>
1.806

$$$$
2oe8_lig
 OpenBabel11021811463D
libRbt.so/2013.1/901 2013/11/27
 37 40  0  0  0  0  0  0  0  0999 V2000
   20.5110    2.3415   52.9902 C   0  0  1  0  0  0  0  0  0  0  0  0
   19.2133    2.5810   52.1288 C   0  0  1  0  0  0  0  0  0  0  0  0
   18.7032    1.2292   51.5874 C   0  0  0  0  0  0  0  0  0  0  0  0
   19.8614    0.6458   50.7189 C   0  0  1  0  0  0  0  0  0  0  0  0
   21.2046    0.4144   51.5838 C   0  0  1  0  0  0  0  0  0  0  0  0
   22.3710   -0.1496   50.7205 C   0  0  1  0  0  0  0  0  0  0  0  0
   21.8705   -1.5097   50.0829 C   0  0  1  0  0  0  0  0  0  0  0  0
   20.5422   -1.2407   49.2935 C   0  0  2  0  0  0  0  0  0  0  0  0
   24.1783   -2.7251   49.7772 C   0  0  0  0  0  0  0  0  0  0  0  0
   18.1455    3.2270   52.9562 N   0  0  0  0  0  0  0  0  0  0  0  0
   22.9352   -2.1198   49.1754 N   0  0  0  0  0  0  0  0  0  0  0  0
   20.2471    1.5059   54.1243 O   0  0  0  0  0  0  0  0  0  0  0  0
   21.5919    1.6967   52.1881 O   0  0  0  0  0  0  0  0  0  0  0  0
   19.4716   -0.6340   50.1382 O   0  0  0  0  0  0  0  0  0  0  0  0
   22.6765    0.8354   49.7319 O   0  0  0  0  0  0  0  0  0  0  0  0
   20.0706   -2.4366   48.7888 O   0  0  0  0  0  0  0  0  0  0  0  0
   19.2577   -2.2775   47.6137 C   0  0  2  0  0  0  0  0  0  0  0  0
   18.1736   -3.3807   47.5577 C   0  0  1  0  0  0  0  0  0  0  0  0
   18.7973   -4.7965   47.3610 C   0  0  2  0  0  0  0  0  0  0  0  0
   19.6320   -4.8133   46.0464 C   0  0  1  0  0  0  0  0  0  0  0  0
   20.7676   -3.7189   46.2074 C   0  0  1  0  0  0  0  0  0  0  0  0
   21.6516   -3.6258   44.9670 C   0  0  0  0  0  0  0  0  0  0  0  0
   20.2292   -6.1660   45.8560 N   0  0  0  0  0  0  0  0  0  0  0  0
   20.1184   -2.3748   46.4062 O   0  0  0  0  0  0  0  0  0  0  0  0
   17.4109   -3.2921   48.7764 O   0  0  0  0  0  0  0  0  0  0  0  0
   17.7477   -5.7372   47.2713 O   0  0  0  0  0  0  0  0  0  0  0  0
   20.8541   -3.3574   43.8440 O   0  0  0  0  0  0  0  0  0  0  0  0
   20.1584    2.2158   55.3425 C   0  0  1  0  0  0  0  0  0  0  0  0
   19.3828    1.3278   56.3679 C   0  0  1  0  0  0  0  0  0  0  0  0
   19.2501    2.1113   57.7063 C   0  0  2  0  0  0  0  0  0  0  0  0
   20.6554    2.4779   58.2757 C   0  0  1  0  0  0  0  0  0  0  0  0
   21.4500    3.3648   57.2428 C   0  0  0  0  0  0  0  0  0  0  0  0
   21.5883    2.5610   55.8838 C   0  0  2  0  0  0  0  0  0  0  0  0
   20.5018    3.2305   59.5515 N   0  0  0  0  0  0  0  0  0  0  0  0
   22.3385    3.3990   54.9214 N   0  0  0  0  0  0  0  0  0  0  0  0
   18.0671    1.0213   55.8696 O   0  0  0  0  0  0  0  0  0  0  0  0
   18.5501    1.2820   58.6191 O   0  0  0  0  0  0  0  0  0  0  0  0
  1  2  1  0  0  0  0
  1 12  1  1  0  0  0
  1 13  1  0  0  0  0
  2  3  1  0  0  0  0
  2 10  1  1  0  0  0
  4  3  1  1  0  0  0
  4  5  1  0  0  0  0
  4 14  1  0  0  0  0
  5  6  1  0  0  0  0
  5 13  1  6  0  0  0
  6  7  1  0  0  0  0
  6 15  1  6  0  0  0
  7  8  1  0  0  0  0
  7 11  1  6  0  0  0
  8 14  1  0  0  0  0
  8 16  1  1  0  0  0
  9 11  1  0  0  0  0
 17 16  1  1  0  0  0
 17 18  1  0  0  0  0
 17 24  1  0  0  0  0
 18 19  1  0  0  0  0
 18 25  1  1  0  0  0
 19 20  1  0  0  0  0
 19 26  1  6  0  0  0
 20 21  1  0  0  0  0
 20 23  1  1  0  0  0
 21 22  1  6  0  0  0
 21 24  1  0  0  0  0
 22 27  1  0  0  0  0
 28 12  1  6  0  0  0
 28 29  1  0  0  0  0
 28 33  1  0  0  0  0
 29 30  1  0  0  0  0
 29 36  1  6  0  0  0
 30 31  1  0  0  0  0
 30 37  1  1  0  0  0
 31 32  1  0  0  0  0
 31 34  1  1  0  0  0
 32 33  1  0  0  0  0
 33 35  1  6  0  0  0
M  END
>  <CHROM.1>
-103.25902774,71.46034747,-154.00569467,-148.24078000,56.62451913,159.82621690
20.26180423,-0.49016579,51.24604045,-1.56664681,-0.44038576,-2.12936331

>  <Name>
2oe8_lig

>  <RI>
0

>  <Rbt.Current_Directory>
/home/itssahil/PROJECTS/Mol_Feturizer/New_Systems/rnas/2oe8

>  <Rbt.Executable>
rbdock ($Id: //depot/dev/client3/rdock/2013.1/src/exe/rbdock.cxx#4 $)

>  <Rbt.Library>
libRbt.so (2013.1, Build901 2013/11/27)

>  <Rbt.Parameter_File>
/export/apps/rDock/src/rDock_2013.1_src/data/scripts/dock_solv.prm

>  <Rbt.Receptor>
prm/pocket_docking_4.prm

>  <SCORE>
-21.7386

>  <SCORE.INTER>
-21.1217

>  <SCORE.INTER.CONST>
1

>  <SCORE.INTER.POLAR>
-2.4864

>  <SCORE.INTER.ROT>
6

>  <SCORE.INTER.SOLV>
13.9987

>  <SCORE.INTER.VDW>
-18.0594

>  <SCORE.INTER.norm>
-0.570857

>  <SCORE.INTRA>
-0.616927

>  <SCORE.INTRA.DIHEDRAL>
-1.75251

>  <SCORE.INTRA.DIHEDRAL.0>
16.4056

>  <SCORE.INTRA.POLAR>
0

>  <SCORE.INTRA.POLAR.0>
0

>  <SCORE.INTRA.REPUL>
0

>  <SCORE.INTRA.REPUL.0>
0

>  <SCORE.INTRA.SOLV>
0.112506

>  <SCORE.INTRA.SOLV.lig_0>
-90.9627

>  <SCORE.INTRA.VDW>
0.203074

>  <SCORE.INTRA.VDW.0>
-3.28744

>  <SCORE.INTRA.norm>
-0.0166737

>  <SCORE.RESTR>
0

>  <SCORE.RESTR.CAVITY>
0

>  <SCORE.RESTR.norm>
0

>  <SCORE.SYSTEM>
0

>  <SCORE.SYSTEM.CONST>
0

>  <SCORE.SYSTEM.DIHEDRAL>
0

>  <SCORE.SYSTEM.SOLV>
0

>  <SCORE.SYSTEM.norm>
0

>  <SCORE.heavy>
37

>  <SCORE.norm>
-0.58753

>  <RMSD>
1.822

$$$$
2oe8_lig
 OpenBabel11021811463D
libRbt.so/2013.1/901 2013/11/27
 37 40  0  0  0  0  0  0  0  0999 V2000
   19.9570    0.9767   53.4632 C   0  0  1  0  0  0  0  0  0  0  0  0
   19.1625    1.6828   52.2998 C   0  0  1  0  0  0  0  0  0  0  0  0
   18.6037    0.6119   51.3398 C   0  0  0  0  0  0  0  0  0  0  0  0
   19.8408   -0.1659   50.7916 C   0  0  1  0  0  0  0  0  0  0  0  0
   20.6769   -0.8779   51.9749 C   0  0  1  0  0  0  0  0  0  0  0  0
   21.9238   -1.6403   51.4383 C   0  0  1  0  0  0  0  0  0  0  0  0
   21.4077   -2.7099   50.3911 C   0  0  1  0  0  0  0  0  0  0  0  0
   20.5652   -1.9759   49.2905 C   0  0  2  0  0  0  0  0  0  0  0  0
   22.4033   -4.9400   49.4259 C   0  0  0  0  0  0  0  0  0  0  0  0
   18.0360    2.4994   52.8535 N   0  0  0  0  0  0  0  0  0  0  0  0
   22.5692   -3.4815   49.7707 N   0  0  0  0  0  0  0  0  0  0  0  0
   19.1105    0.1173   54.2371 O   0  0  0  0  0  0  0  0  0  0  0  0
   21.0861    0.1544   52.9374 O   0  0  0  0  0  0  0  0  0  0  0  0
   19.4211   -1.1980   49.8505 O   0  0  0  0  0  0  0  0  0  0  0  0
   22.7868   -0.6690   50.8445 O   0  0  0  0  0  0  0  0  0  0  0  0
   20.0623   -2.9142   48.4109 O   0  0  0  0  0  0  0  0  0  0  0  0
   19.2692   -2.3400   47.3582 C   0  0  2  0  0  0  0  0  0  0  0  0
   17.9046   -3.0637   47.2585 C   0  0  1  0  0  0  0  0  0  0  0  0
   18.0670   -4.5465   46.8035 C   0  0  2  0  0  0  0  0  0  0  0  0
   18.7842   -4.5854   45.4217 C   0  0  1  0  0  0  0  0  0  0  0  0
   20.2010   -3.9018   45.6183 C   0  0  1  0  0  0  0  0  0  0  0  0
   21.0019   -3.8632   44.3199 C   0  0  0  0  0  0  0  0  0  0  0  0
   18.9404   -6.0021   44.9843 N   0  0  0  0  0  0  0  0  0  0  0  0
   19.9931   -2.4798   46.0679 O   0  0  0  0  0  0  0  0  0  0  0  0
   17.2721   -2.9618   48.5487 O   0  0  0  0  0  0  0  0  0  0  0  0
   16.7819   -5.1210   46.6899 O   0  0  0  0  0  0  0  0  0  0  0  0
   22.3057   -3.4192   44.5882 O   0  0  0  0  0  0  0  0  0  0  0  0
   19.4136    0.1169   55.6170 C   0  0  1  0  0  0  0  0  0  0  0  0
   20.8684   -0.4248   55.7954 C   0  0  1  0  0  0  0  0  0  0  0  0
   21.2046   -0.4605   57.3148 C   0  0  2  0  0  0  0  0  0  0  0  0
   21.0858    0.9628   57.9424 C   0  0  1  0  0  0  0  0  0  0  0  0
   19.6238    1.5222   57.7572 C   0  0  0  0  0  0  0  0  0  0  0  0
   19.2877    1.5628   56.2088 C   0  0  2  0  0  0  0  0  0  0  0  0
   21.4064    0.9013   59.3954 N   0  0  0  0  0  0  0  0  0  0  0  0
   17.9154    2.0925   56.0438 N   0  0  0  0  0  0  0  0  0  0  0  0
   20.9759   -1.7564   55.2583 O   0  0  0  0  0  0  0  0  0  0  0  0
   22.5296   -0.9480   57.4477 O   0  0  0  0  0  0  0  0  0  0  0  0
  1  2  1  0  0  0  0
  1 12  1  6  0  0  0
  1 13  1  0  0  0  0
  2  3  1  0  0  0  0
  2 10  1  1  0  0  0
  4  3  1  1  0  0  0
  4  5  1  0  0  0  0
  4 14  1  0  0  0  0
  5  6  1  0  0  0  0
  5 13  1  1  0  0  0
  6  7  1  0  0  0  0
  6 15  1  6  0  0  0
  7  8  1  0  0  0  0
  7 11  1  6  0  0  0
  8 14  1  0  0  0  0
  8 16  1  6  0  0  0
  9 11  1  0  0  0  0
 17 16  1  1  0  0  0
 17 18  1  0  0  0  0
 17 24  1  0  0  0  0
 18 19  1  0  0  0  0
 18 25  1  1  0  0  0
 19 20  1  0  0  0  0
 19 26  1  6  0  0  0
 20 21  1  0  0  0  0
 20 23  1  1  0  0  0
 21 22  1  6  0  0  0
 21 24  1  0  0  0  0
 22 27  1  0  0  0  0
 28 12  1  6  0  0  0
 28 29  1  0  0  0  0
 28 33  1  0  0  0  0
 29 30  1  0  0  0  0
 29 36  1  1  0  0  0
 30 31  1  0  0  0  0
 30 37  1  6  0  0  0
 31 32  1  0  0  0  0
 31 34  1  1  0  0  0
 32 33  1  0  0  0  0
 33 35  1  1  0  0  0
M  END
>  <CHROM.1>
-143.15722774,144.75354734,179.94146231,-129.03917208,-172.00691285,-62.25651372
20.07953893,-1.47202304,51.19256568,1.50276903,-0.46057372,1.11637273

>  <Name>
2oe8_lig

>  <RI>
0

>  <Rbt.Current_Directory>
/home/itssahil/PROJECTS/Mol_Feturizer/New_Systems/rnas/2oe8

>  <Rbt.Executable>
rbdock ($Id: //depot/dev/client3/rdock/2013.1/src/exe/rbdock.cxx#4 $)

>  <Rbt.Library>
libRbt.so (2013.1, Build901 2013/11/27)

>  <Rbt.Parameter_File>
/export/apps/rDock/src/rDock_2013.1_src/data/scripts/dock_solv.prm

>  <Rbt.Receptor>
prm/pocket_docking_2.prm

>  <SCORE>
-16.74

>  <SCORE.INTER>
-15.6622

>  <SCORE.INTER.CONST>
1

>  <SCORE.INTER.POLAR>
-1.51823

>  <SCORE.INTER.ROT>
6

>  <SCORE.INTER.SOLV>
19.0824

>  <SCORE.INTER.VDW>
-19.3415

>  <SCORE.INTER.norm>
-0.423304

>  <SCORE.INTRA>
-1.10289

>  <SCORE.INTRA.DIHEDRAL>
-3.69212

>  <SCORE.INTRA.DIHEDRAL.0>
16.4056

>  <SCORE.INTRA.POLAR>
0

>  <SCORE.INTRA.POLAR.0>
0

>  <SCORE.INTRA.REPUL>
0

>  <SCORE.INTRA.REPUL.0>
0

>  <SCORE.INTRA.SOLV>
-0.318564

>  <SCORE.INTRA.SOLV.lig_0>
-90.9627

>  <SCORE.INTRA.VDW>
0.902447

>  <SCORE.INTRA.VDW.0>
-3.28744

>  <SCORE.INTRA.norm>
-0.0298079

>  <SCORE.RESTR>
0.0251339

>  <SCORE.RESTR.CAVITY>
0.0251339

>  <SCORE.RESTR.norm>
0.000679295

>  <SCORE.SYSTEM>
0

>  <SCORE.SYSTEM.CONST>
0

>  <SCORE.SYSTEM.DIHEDRAL>
0

>  <SCORE.SYSTEM.SOLV>
0

>  <SCORE.SYSTEM.norm>
0

>  <SCORE.heavy>
37

>  <SCORE.norm>
-0.452432

>  <RMSD>
1.837

$$$$
2oe8_lig
 OpenBabel11021811463D
libRbt.so/2013.1/901 2013/11/27
 37 40  0  0  0  0  0  0  0  0999 V2000
   20.3788    0.9285   53.4063 C   0  0  1  0  0  0  0  0  0  0  0  0
   20.0639    1.6860   52.0608 C   0  0  1  0  0  0  0  0  0  0  0  0
   18.9766    0.9153   51.2833 C   0  0  0  0  0  0  0  0  0  0  0  0
   19.5637   -0.5049   51.0110 C   0  0  1  0  0  0  0  0  0  0  0  0
   19.9108   -1.2856   52.3807 C   0  0  1  0  0  0  0  0  0  0  0  0
   20.5150   -2.6962   52.1175 C   0  0  1  0  0  0  0  0  0  0  0  0
   19.4611   -3.5075   51.2585 C   0  0  1  0  0  0  0  0  0  0  0  0
   19.1236   -2.6879   49.9645 C   0  0  2  0  0  0  0  0  0  0  0  0
   19.0376   -6.0682   50.8582 C   0  0  0  0  0  0  0  0  0  0  0  0
   19.5906    3.0788   52.3408 N   0  0  0  0  0  0  0  0  0  0  0  0
   19.9861   -4.8970   50.9076 N   0  0  0  0  0  0  0  0  0  0  0  0
   19.2262    0.8547   54.2549 O   0  0  0  0  0  0  0  0  0  0  0  0
   20.8521   -0.4645   53.1548 O   0  0  0  0  0  0  0  0  0  0  0  0
   18.6145   -1.3156   50.2568 O   0  0  0  0  0  0  0  0  0  0  0  0
   21.7489   -2.5021   51.4243 O   0  0  0  0  0  0  0  0  0  0  0  0
   18.1584   -3.3641   49.2446 O   0  0  0  0  0  0  0  0  0  0  0  0
   18.1022   -2.9743   47.8619 C   0  0  2  0  0  0  0  0  0  0  0  0
   17.1943   -3.9439   47.0675 C   0  0  1  0  0  0  0  0  0  0  0  0
   17.7987   -5.3800   47.0004 C   0  0  2  0  0  0  0  0  0  0  0  0
   19.2060   -5.3157   46.3367 C   0  0  1  0  0  0  0  0  0  0  0  0
   20.1012   -4.3734   47.2445 C   0  0  1  0  0  0  0  0  0  0  0  0
   21.5127   -4.2153   46.6865 C   0  0  0  0  0  0  0  0  0  0  0  0
   19.7860   -6.6876   46.2713 N   0  0  0  0  0  0  0  0  0  0  0  0
   19.4727   -3.0057   47.2883 O   0  0  0  0  0  0  0  0  0  0  0  0
   15.9004   -3.9325   47.7005 O   0  0  0  0  0  0  0  0  0  0  0  0
   16.9412   -6.1884   46.2223 O   0  0  0  0  0  0  0  0  0  0  0  0
   22.1771   -5.4502   46.7393 O   0  0  0  0  0  0  0  0  0  0  0  0
   19.5286    0.9580   55.6310 C   0  0  1  0  0  0  0  0  0  0  0  0
   18.2738    1.5335   56.3631 C   0  0  1  0  0  0  0  0  0  0  0  0
   18.6040    1.6823   57.8769 C   0  0  2  0  0  0  0  0  0  0  0  0
   18.9969    0.3057   58.4966 C   0  0  1  0  0  0  0  0  0  0  0  0
   20.2557   -0.2882   57.7566 C   0  0  0  0  0  0  0  0  0  0  0  0
   19.9132   -0.4440   56.2169 C   0  0  2  0  0  0  0  0  0  0  0  0
   19.3131    0.4752   59.9419 N   0  0  0  0  0  0  0  0  0  0  0  0
   21.0986   -1.0055   55.5307 N   0  0  0  0  0  0  0  0  0  0  0  0
   17.9305    2.8251   55.8272 O   0  0  0  0  0  0  0  0  0  0  0  0
   17.4489    2.1987   58.5173 O   0  0  0  0  0  0  0  0  0  0  0  0
  1  2  1  0  0  0  0
  1 12  1  1  0  0  0
  1 13  1  0  0  0  0
  2  3  1  0  0  0  0
  2 10  1  1  0  0  0
  4  3  1  1  0  0  0
  4  5  1  0  0  0  0
  4 14  1  0  0  0  0
  5  6  1  0  0  0  0
  5 13  1  6  0  0  0
  6  7  1  0  0  0  0
  6 15  1  6  0  0  0
  7  8  1  0  0  0  0
  7 11  1  6  0  0  0
  8 14  1  0  0  0  0
  8 16  1  1  0  0  0
  9 11  1  0  0  0  0
 17 16  1  1  0  0  0
 17 18  1  0  0  0  0
 17 24  1  0  0  0  0
 18 19  1  0  0  0  0
 18 25  1  1  0  0  0
 19 20  1  0  0  0  0
 19 26  1  6  0  0  0
 20 21  1  0  0  0  0
 20 23  1  1  0  0  0
 21 22  1  6  0  0  0
 21 24  1  0  0  0  0
 22 27  1  0  0  0  0
 28 12  1  6  0  0  0
 28 29  1  0  0  0  0
 28 33  1  0  0  0  0
 29 30  1  0  0  0  0
 29 36  1  6  0  0  0
 30 31  1  0  0  0  0
 30 37  1  1  0  0  0
 31 32  1  0  0  0  0
 31 34  1  1  0  0  0
 32 33  1  0  0  0  0
 33 35  1  6  0  0  0
M  END
>  <CHROM.1>
-144.28232002,144.01934782,-159.77876869,169.54987023,-65.76906338,153.54221651
19.30534689,-1.77777846,51.70410065,1.55078208,-1.05645858,0.98795134

>  <Name>
2oe8_lig

>  <RI>
0

>  <Rbt.Current_Directory>
/home/itssahil/PROJECTS/Mol_Feturizer/New_Systems/rnas/2oe8

>  <Rbt.Executable>
rbdock ($Id: //depot/dev/client3/rdock/2013.1/src/exe/rbdock.cxx#4 $)

>  <Rbt.Library>
libRbt.so (2013.1, Build901 2013/11/27)

>  <Rbt.Parameter_File>
/export/apps/rDock/src/rDock_2013.1_src/data/scripts/dock_solv.prm

>  <Rbt.Receptor>
prm/pocket_docking_7.prm

>  <SCORE>
-21.5957

>  <SCORE.INTER>
-19.8596

>  <SCORE.INTER.CONST>
1

>  <SCORE.INTER.POLAR>
-1.53095

>  <SCORE.INTER.ROT>
6

>  <SCORE.INTER.SOLV>
16.2887

>  <SCORE.INTER.VDW>
-21.1661

>  <SCORE.INTER.norm>
-0.536747

>  <SCORE.INTRA>
-1.73605

>  <SCORE.INTRA.DIHEDRAL>
-5.52929

>  <SCORE.INTRA.DIHEDRAL.0>
16.4056

>  <SCORE.INTRA.POLAR>
0

>  <SCORE.INTRA.POLAR.0>
0

>  <SCORE.INTRA.REPUL>
0

>  <SCORE.INTRA.REPUL.0>
0

>  <SCORE.INTRA.SOLV>
1.18918

>  <SCORE.INTRA.SOLV.lig_0>
-90.9627

>  <SCORE.INTRA.VDW>
0.434005

>  <SCORE.INTRA.VDW.0>
-3.28744

>  <SCORE.INTRA.norm>
-0.0469202

>  <SCORE.RESTR>
0

>  <SCORE.RESTR.CAVITY>
0

>  <SCORE.RESTR.norm>
0

>  <SCORE.SYSTEM>
0

>  <SCORE.SYSTEM.CONST>
0

>  <SCORE.SYSTEM.DIHEDRAL>
0

>  <SCORE.SYSTEM.SOLV>
0

>  <SCORE.SYSTEM.norm>
0

>  <SCORE.heavy>
37

>  <SCORE.norm>
-0.583667

>  <RMSD>
1.838

$$$$
2oe8_lig
 OpenBabel11021811463D
libRbt.so/2013.1/901 2013/11/27
 37 40  0  0  0  0  0  0  0  0999 V2000
   20.3427    1.0002   53.4875 C   0  0  1  0  0  0  0  0  0  0  0  0
   19.9683    1.7955   52.1796 C   0  0  1  0  0  0  0  0  0  0  0  0
   18.8892    1.0162   51.3993 C   0  0  0  0  0  0  0  0  0  0  0  0
   19.5179   -0.3713   51.0595 C   0  0  1  0  0  0  0  0  0  0  0  0
   19.9258   -1.1895   52.3899 C   0  0  1  0  0  0  0  0  0  0  0  0
   20.5715   -2.5671   52.0592 C   0  0  1  0  0  0  0  0  0  0  0  0
   19.5251   -3.3827   51.1952 C   0  0  1  0  0  0  0  0  0  0  0  0
   19.1273   -2.5281   49.9416 C   0  0  2  0  0  0  0  0  0  0  0  0
   19.1760   -5.9356   50.6876 C   0  0  0  0  0  0  0  0  0  0  0  0
   19.4545    3.1594   52.5234 N   0  0  0  0  0  0  0  0  0  0  0  0
   20.0887   -4.7388   50.7795 N   0  0  0  0  0  0  0  0  0  0  0  0
   19.2149    0.8542   54.3597 O   0  0  0  0  0  0  0  0  0  0  0  0
   20.8573   -0.3649   53.1722 O   0  0  0  0  0  0  0  0  0  0  0  0
   18.5787   -1.1865   50.2976 O   0  0  0  0  0  0  0  0  0  0  0  0
   21.7803   -2.3039   51.3449 O   0  0  0  0  0  0  0  0  0  0  0  0
   18.1684   -3.2109   49.2195 O   0  0  0  0  0  0  0  0  0  0  0  0
   17.9931   -2.7050   47.8853 C   0  0  2  0  0  0  0  0  0  0  0  0
   17.2213   -3.7301   47.0197 C   0  0  1  0  0  0  0  0  0  0  0  0
   18.0459   -5.0342   46.7926 C   0  0  2  0  0  0  0  0  0  0  0  0
   19.3959   -4.6762   46.1038 C   0  0  1  0  0  0  0  0  0  0  0  0
   20.1642   -3.6909   47.0796 C   0  0  1  0  0  0  0  0  0  0  0  0
   21.5076   -3.2502   46.5052 C   0  0  0  0  0  0  0  0  0  0  0  0
   20.1861   -5.9214   45.8853 N   0  0  0  0  0  0  0  0  0  0  0  0
   19.3260   -2.4557   47.2772 O   0  0  0  0  0  0  0  0  0  0  0  0
   15.9697   -3.9922   47.6828 O   0  0  0  0  0  0  0  0  0  0  0  0
   17.2985   -5.8943   45.9584 O   0  0  0  0  0  0  0  0  0  0  0  0
   22.1072   -2.3265   47.3749 O   0  0  0  0  0  0  0  0  0  0  0  0
   19.5348    0.9986   55.7281 C   0  0  1  0  0  0  0  0  0  0  0  0
   18.2518    1.4788   56.4798 C   0  0  1  0  0  0  0  0  0  0  0  0
   18.5984    1.6725   57.9849 C   0  0  2  0  0  0  0  0  0  0  0  0
   19.1147    0.3401   58.6107 C   0  0  1  0  0  0  0  0  0  0  0  0
   20.4031   -0.1581   57.8513 C   0  0  0  0  0  0  0  0  0  0  0  0
   20.0443   -0.3600   56.3207 C   0  0  2  0  0  0  0  0  0  0  0  0
   19.4443    0.5525   60.0474 N   0  0  0  0  0  0  0  0  0  0  0  0
   21.2578   -0.8313   55.6162 N   0  0  0  0  0  0  0  0  0  0  0  0
   17.7935    2.7314   55.9374 O   0  0  0  0  0  0  0  0  0  0  0  0
   17.4178    2.1007   58.6434 O   0  0  0  0  0  0  0  0  0  0  0  0
  1  2  1  0  0  0  0
  1 12  1  1  0  0  0
  1 13  1  0  0  0  0
  2  3  1  0  0  0  0
  2 10  1  1  0  0  0
  4  3  1  1  0  0  0
  4  5  1  0  0  0  0
  4 14  1  0  0  0  0
  5  6  1  0  0  0  0
  5 13  1  6  0  0  0
  6  7  1  0  0  0  0
  6 15  1  6  0  0  0
  7  8  1  0  0  0  0
  7 11  1  6  0  0  0
  8 14  1  0  0  0  0
  8 16  1  1  0  0  0
  9 11  1  0  0  0  0
 17 16  1  1  0  0  0
 17 18  1  0  0  0  0
 17 24  1  0  0  0  0
 18 19  1  0  0  0  0
 18 25  1  1  0  0  0
 19 20  1  0  0  0  0
 19 26  1  6  0  0  0
 20 21  1  0  0  0  0
 20 23  1  1  0  0  0
 21 22  1  6  0  0  0
 21 24  1  0  0  0  0
 22 27  1  0  0  0  0
 28 12  1  6  0  0  0
 28 29  1  0  0  0  0
 28 33  1  0  0  0  0
 29 30  1  0  0  0  0
 29 36  1  6  0  0  0
 30 31  1  0  0  0  0
 30 37  1  1  0  0  0
 31 32  1  0  0  0  0
 31 34  1  1  0  0  0
 32 33  1  0  0  0  0
 33 35  1  6  0  0  0
M  END
>  <CHROM.1>
-140.62091313,144.95792570,-164.23345876,164.21001588,176.82093723,154.04224486
19.34464917,-1.50115322,51.71626553,1.46456766,-1.44906579,0.95884349

>  <Name>
2oe8_lig

>  <RI>
0

>  <Rbt.Current_Directory>
/home/itssahil/PROJECTS/Mol_Feturizer/New_Systems/rnas/2oe8

>  <Rbt.Executable>
rbdock ($Id: //depot/dev/client3/rdock/2013.1/src/exe/rbdock.cxx#4 $)

>  <Rbt.Library>
libRbt.so (2013.1, Build901 2013/11/27)

>  <Rbt.Parameter_File>
/export/apps/rDock/src/rDock_2013.1_src/data/scripts/dock_solv.prm

>  <Rbt.Receptor>
prm/pocket_docking_5.prm

>  <SCORE>
-22.9452

>  <SCORE.INTER>
-20.6749

>  <SCORE.INTER.CONST>
1

>  <SCORE.INTER.POLAR>
-1.51069

>  <SCORE.INTER.ROT>
6

>  <SCORE.INTER.SOLV>
16.2011

>  <SCORE.INTER.VDW>
-21.748

>  <SCORE.INTER.norm>
-0.558782

>  <SCORE.INTRA>
-2.27024

>  <SCORE.INTRA.DIHEDRAL>
-5.13673

>  <SCORE.INTRA.DIHEDRAL.0>
16.4056

>  <SCORE.INTRA.POLAR>
0

>  <SCORE.INTRA.POLAR.0>
0

>  <SCORE.INTRA.REPUL>
0.0145269

>  <SCORE.INTRA.REPUL.0>
0

>  <SCORE.INTRA.SOLV>
-0.0256598

>  <SCORE.INTRA.SOLV.lig_0>
-90.9627

>  <SCORE.INTRA.VDW>
0.238325

>  <SCORE.INTRA.VDW.0>
-3.28744

>  <SCORE.INTRA.norm>
-0.0613577

>  <SCORE.RESTR>
0

>  <SCORE.RESTR.CAVITY>
0

>  <SCORE.RESTR.norm>
0

>  <SCORE.SYSTEM>
0

>  <SCORE.SYSTEM.CONST>
0

>  <SCORE.SYSTEM.DIHEDRAL>
0

>  <SCORE.SYSTEM.SOLV>
0

>  <SCORE.SYSTEM.norm>
0

>  <SCORE.heavy>
37

>  <SCORE.norm>
-0.62014

>  <RMSD>
1.857

$$$$
2oe8_lig
 OpenBabel11021811463D
libRbt.so/2013.1/901 2013/11/27
 37 40  0  0  0  0  0  0  0  0999 V2000
   20.0327    1.5012   53.5894 C   0  0  1  0  0  0  0  0  0  0  0  0
   19.0370    2.1359   52.5457 C   0  0  1  0  0  0  0  0  0  0  0  0
   18.4390    1.0185   51.6657 C   0  0  0  0  0  0  0  0  0  0  0  0
   19.6478    0.3346   50.9536 C   0  0  1  0  0  0  0  0  0  0  0  0
   20.6877   -0.3026   52.0113 C   0  0  1  0  0  0  0  0  0  0  0  0
   21.9065   -0.9703   51.3095 C   0  0  1  0  0  0  0  0  0  0  0  0
   21.3388   -2.0837   50.3374 C   0  0  1  0  0  0  0  0  0  0  0  0
   20.3021   -1.4245   49.3624 C   0  0  2  0  0  0  0  0  0  0  0  0
   23.4191   -3.6856   50.2827 C   0  0  0  0  0  0  0  0  0  0  0  0
   17.9353    2.8670   53.2485 N   0  0  0  0  0  0  0  0  0  0  0  0
   22.4628   -2.7677   49.5639 N   0  0  0  0  0  0  0  0  0  0  0  0
   19.3668    0.5846   54.4670 O   0  0  0  0  0  0  0  0  0  0  0  0
   21.1413    0.7648   52.9137 O   0  0  0  0  0  0  0  0  0  0  0  0
   19.1867   -0.7333   50.0738 O   0  0  0  0  0  0  0  0  0  0  0  0
   22.6042    0.0605   50.6085 O   0  0  0  0  0  0  0  0  0  0  0  0
   19.7597   -2.4049   48.5551 O   0  0  0  0  0  0  0  0  0  0  0  0
   18.6518   -3.0925   49.1606 C   0  0  2  0  0  0  0  0  0  0  0  0
   19.0687   -4.5257   49.5704 C   0  0  1  0  0  0  0  0  0  0  0  0
   19.3926   -5.4122   48.3289 C   0  0  2  0  0  0  0  0  0  0  0  0
   18.1439   -5.4737   47.4003 C   0  0  1  0  0  0  0  0  0  0  0  0
   17.8250   -3.9853   46.9574 C   0  0  1  0  0  0  0  0  0  0  0  0
   16.6010   -3.9092   46.0492 C   0  0  0  0  0  0  0  0  0  0  0  0
   18.4511   -6.3210   46.2127 N   0  0  0  0  0  0  0  0  0  0  0  0
   17.5313   -3.1677   48.1874 O   0  0  0  0  0  0  0  0  0  0  0  0
   20.1981   -4.4049   50.4562 O   0  0  0  0  0  0  0  0  0  0  0  0
   19.7152   -6.7107   48.7806 O   0  0  0  0  0  0  0  0  0  0  0  0
   16.6153   -2.6945   45.3468 O   0  0  0  0  0  0  0  0  0  0  0  0
   19.6959    0.7640   55.8291 C   0  0  1  0  0  0  0  0  0  0  0  0
   18.4801    1.4426   56.5382 C   0  0  1  0  0  0  0  0  0  0  0  0
   18.8414    1.6752   58.0343 C   0  0  2  0  0  0  0  0  0  0  0  0
   19.1830    0.3257   58.7384 C   0  0  1  0  0  0  0  0  0  0  0  0
   20.4019   -0.3719   58.0225 C   0  0  0  0  0  0  0  0  0  0  0  0
   20.0276   -0.6125   56.5013 C   0  0  2  0  0  0  0  0  0  0  0  0
   19.5301    0.5751   60.1649 N   0  0  0  0  0  0  0  0  0  0  0  0
   21.1755   -1.2710   55.8378 N   0  0  0  0  0  0  0  0  0  0  0  0
   18.1857    2.7105   55.9226 O   0  0  0  0  0  0  0  0  0  0  0  0
   17.7210    2.2843   58.6546 O   0  0  0  0  0  0  0  0  0  0  0  0
  1  2  1  0  0  0  0
  1 12  1  1  0  0  0
  1 13  1  0  0  0  0
  2  3  1  0  0  0  0
  2 10  1  1  0  0  0
  4  3  1  1  0  0  0
  4  5  1  0  0  0  0
  4 14  1  0  0  0  0
  5  6  1  0  0  0  0
  5 13  1  1  0  0  0
  6  7  1  0  0  0  0
  6 15  1  6  0  0  0
  7  8  1  0  0  0  0
  7 11  1  6  0  0  0
  8 14  1  0  0  0  0
  8 16  1  6  0  0  0
  9 11  1  0  0  0  0
 17 16  1  6  0  0  0
 17 18  1  0  0  0  0
 17 24  1  0  0  0  0
 18 19  1  0  0  0  0
 18 25  1  1  0  0  0
 19 20  1  0  0  0  0
 19 26  1  1  0  0  0
 20 21  1  0  0  0  0
 20 23  1  6  0  0  0
 21 22  1  6  0  0  0
 21 24  1  0  0  0  0
 22 27  1  0  0  0  0
 28 12  1  6  0  0  0
 28 29  1  0  0  0  0
 28 33  1  0  0  0  0
 29 30  1  0  0  0  0
 29 36  1  6  0  0  0
 30 31  1  0  0  0  0
 30 37  1  1  0  0  0
 31 32  1  0  0  0  0
 31 34  1  1  0  0  0
 32 33  1  0  0  0  0
 33 35  1  6  0  0  0
M  END
>  <CHROM.1>
-133.54431435,70.29466229,84.58733743,-107.53668432,-160.82561767,105.78770601
19.52887440,-1.28506069,51.91158510,1.51895163,-0.77459467,1.00787096

>  <Name>
2oe8_lig

>  <RI>
0

>  <Rbt.Current_Directory>
/home/itssahil/PROJECTS/Mol_Feturizer/New_Systems/rnas/2oe8

>  <Rbt.Executable>
rbdock ($Id: //depot/dev/client3/rdock/2013.1/src/exe/rbdock.cxx#4 $)

>  <Rbt.Library>
libRbt.so (2013.1, Build901 2013/11/27)

>  <Rbt.Parameter_File>
/export/apps/rDock/src/rDock_2013.1_src/data/scripts/dock_solv.prm

>  <Rbt.Receptor>
prm/pocket_docking_5.prm

>  <SCORE>
-14.0308

>  <SCORE.INTER>
-19.6322

>  <SCORE.INTER.CONST>
1

>  <SCORE.INTER.POLAR>
-2.15326

>  <SCORE.INTER.ROT>
6

>  <SCORE.INTER.SOLV>
14.7563

>  <SCORE.INTER.VDW>
-18.4294

>  <SCORE.INTER.norm>
-0.530599

>  <SCORE.INTRA>
5.60141

>  <SCORE.INTRA.DIHEDRAL>
6.51915

>  <SCORE.INTRA.DIHEDRAL.0>
16.4056

>  <SCORE.INTRA.POLAR>
0

>  <SCORE.INTRA.POLAR.0>
0

>  <SCORE.INTRA.REPUL>
0

>  <SCORE.INTRA.REPUL.0>
0

>  <SCORE.INTRA.SOLV>
1.01586

>  <SCORE.INTRA.SOLV.lig_0>
-90.9627

>  <SCORE.INTRA.VDW>
1.8339

>  <SCORE.INTRA.VDW.0>
-3.28744

>  <SCORE.INTRA.norm>
0.151389

>  <SCORE.RESTR>
0

>  <SCORE.RESTR.CAVITY>
0

>  <SCORE.RESTR.norm>
0

>  <SCORE.SYSTEM>
0

>  <SCORE.SYSTEM.CONST>
0

>  <SCORE.SYSTEM.DIHEDRAL>
0

>  <SCORE.SYSTEM.SOLV>
0

>  <SCORE.SYSTEM.norm>
0

>  <SCORE.heavy>
37

>  <SCORE.norm>
-0.37921

>  <RMSD>
1.878

$$$$
2oe8_lig
 OpenBabel11021811463D
libRbt.so/2013.1/901 2013/11/27
 37 40  0  0  0  0  0  0  0  0999 V2000
   19.9335    0.7137   53.5280 C   0  0  1  0  0  0  0  0  0  0  0  0
   19.0342    1.4338   52.4526 C   0  0  1  0  0  0  0  0  0  0  0  0
   18.4222    0.3776   51.5089 C   0  0  0  0  0  0  0  0  0  0  0  0
   19.6270   -0.3566   50.8415 C   0  0  1  0  0  0  0  0  0  0  0  0
   20.5694   -1.0821   51.9331 C   0  0  1  0  0  0  0  0  0  0  0  0
   21.7845   -1.8010   51.2770 C   0  0  1  0  0  0  0  0  0  0  0  0
   21.2080   -2.8525   50.2430 C   0  0  1  0  0  0  0  0  0  0  0  0
   20.2655   -2.1074   49.2349 C   0  0  2  0  0  0  0  0  0  0  0  0
   22.1025   -4.9716   48.9757 C   0  0  0  0  0  0  0  0  0  0  0  0
   17.9394    2.2091   53.1179 N   0  0  0  0  0  0  0  0  0  0  0  0
   22.3316   -3.5801   49.5098 N   0  0  0  0  0  0  0  0  0  0  0  0
   19.1692   -0.1857   54.3410 O   0  0  0  0  0  0  0  0  0  0  0  0
   21.0333   -0.0680   52.8901 O   0  0  0  0  0  0  0  0  0  0  0  0
   19.1543   -1.3713   49.9067 O   0  0  0  0  0  0  0  0  0  0  0  0
   22.5773   -0.7944   50.6453 O   0  0  0  0  0  0  0  0  0  0  0  0
   19.7128   -3.0320   48.3707 O   0  0  0  0  0  0  0  0  0  0  0  0
   18.9749   -2.4331   47.2921 C   0  0  2  0  0  0  0  0  0  0  0  0
   17.7143   -3.2726   46.9730 C   0  0  1  0  0  0  0  0  0  0  0  0
   18.0824   -4.6778   46.4055 C   0  0  2  0  0  0  0  0  0  0  0  0
   18.9380   -4.5043   45.1159 C   0  0  1  0  0  0  0  0  0  0  0  0
   20.2446   -3.7093   45.5331 C   0  0  1  0  0  0  0  0  0  0  0  0
   21.1660   -3.4594   44.3426 C   0  0  0  0  0  0  0  0  0  0  0  0
   19.2909   -5.8464   44.5712 N   0  0  0  0  0  0  0  0  0  0  0  0
   19.8387   -2.3682   46.0846 O   0  0  0  0  0  0  0  0  0  0  0  0
   16.9450   -3.3661   48.1872 O   0  0  0  0  0  0  0  0  0  0  0  0
   16.8856   -5.3604   46.0952 O   0  0  0  0  0  0  0  0  0  0  0  0
   21.8517   -4.6421   44.0262 O   0  0  0  0  0  0  0  0  0  0  0  0
   19.6674   -0.3228   55.6558 C   0  0  1  0  0  0  0  0  0  0  0  0
   21.1970   -0.6295   55.5671 C   0  0  1  0  0  0  0  0  0  0  0  0
   21.7532   -0.8145   57.0092 C   0  0  2  0  0  0  0  0  0  0  0  0
   21.5162    0.4691   57.8636 C   0  0  1  0  0  0  0  0  0  0  0  0
   19.9759    0.7928   57.9493 C   0  0  0  0  0  0  0  0  0  0  0  0
   19.4150    0.9865   56.4796 C   0  0  2  0  0  0  0  0  0  0  0  0
   22.0513    0.2654   59.2383 N   0  0  0  0  0  0  0  0  0  0  0  0
   17.9697    1.2937   56.5695 N   0  0  0  0  0  0  0  0  0  0  0  0
   21.4224   -1.8378   54.8173 O   0  0  0  0  0  0  0  0  0  0  0  0
   23.1411   -1.0841   56.9003 O   0  0  0  0  0  0  0  0  0  0  0  0
  1  2  1  0  0  0  0
  1 12  1  6  0  0  0
  1 13  1  0  0  0  0
  2  3  1  0  0  0  0
  2 10  1  1  0  0  0
  4  3  1  1  0  0  0
  4  5  1  0  0  0  0
  4 14  1  0  0  0  0
  5  6  1  0  0  0  0
  5 13  1  1  0  0  0
  6  7  1  0  0  0  0
  6 15  1  6  0  0  0
  7  8  1  0  0  0  0
  7 11  1  6  0  0  0
  8 14  1  0  0  0  0
  8 16  1  6  0  0  0
  9 11  1  0  0  0  0
 17 16  1  1  0  0  0
 17 18  1  0  0  0  0
 17 24  1  0  0  0  0
 18 19  1  0  0  0  0
 18 25  1  1  0  0  0
 19 20  1  0  0  0  0
 19 26  1  6  0  0  0
 20 21  1  0  0  0  0
 20 23  1  1  0  0  0
 21 22  1  6  0  0  0
 21 24  1  0  0  0  0
 22 27  1  0  0  0  0
 28 12  1  6  0  0  0
 28 29  1  0  0  0  0
 28 33  1  0  0  0  0
 29 30  1  0  0  0  0
 29 36  1  6  0  0  0
 30 31  1  0  0  0  0
 30 37  1  6  0  0  0
 31 32  1  0  0  0  0
 31 34  1  1  0  0  0
 32 33  1  0  0  0  0
 33 35  1  1  0  0  0
M  END
>  <CHROM.1>
-149.37283954,152.81798268,-172.02420824,-142.22498994,-76.51215034,-50.31487783
20.08843306,-1.70996859,51.06972375,1.46867895,-0.41602613,1.13389842

>  <Name>
2oe8_lig

>  <RI>
0

>  <Rbt.Current_Directory>
/home/itssahil/PROJECTS/Mol_Feturizer/New_Systems/rnas/2oe8

>  <Rbt.Executable>
rbdock ($Id: //depot/dev/client3/rdock/2013.1/src/exe/rbdock.cxx#4 $)

>  <Rbt.Library>
libRbt.so (2013.1, Build901 2013/11/27)

>  <Rbt.Parameter_File>
/export/apps/rDock/src/rDock_2013.1_src/data/scripts/dock_solv.prm

>  <Rbt.Receptor>
prm/pocket_docking_3.prm

>  <SCORE>
-19.5676

>  <SCORE.INTER>
-18.6297

>  <SCORE.INTER.CONST>
1

>  <SCORE.INTER.POLAR>
-2.01881

>  <SCORE.INTER.ROT>
6

>  <SCORE.INTER.SOLV>
22.2604

>  <SCORE.INTER.VDW>
-20.7106

>  <SCORE.INTER.norm>
-0.503506

>  <SCORE.INTRA>
-0.947372

>  <SCORE.INTRA.DIHEDRAL>
-5.41992

>  <SCORE.INTRA.DIHEDRAL.0>
16.4056

>  <SCORE.INTRA.POLAR>
0

>  <SCORE.INTRA.POLAR.0>
0

>  <SCORE.INTRA.REPUL>
0

>  <SCORE.INTRA.REPUL.0>
0

>  <SCORE.INTRA.SOLV>
-0.0959948

>  <SCORE.INTRA.SOLV.lig_0>
-90.9627

>  <SCORE.INTRA.VDW>
1.81059

>  <SCORE.INTRA.VDW.0>
-3.28744

>  <SCORE.INTRA.norm>
-0.0256046

>  <SCORE.RESTR>
0.00952809

>  <SCORE.RESTR.CAVITY>
0.00952809

>  <SCORE.RESTR.norm>
0.000257516

>  <SCORE.SYSTEM>
0

>  <SCORE.SYSTEM.CONST>
0

>  <SCORE.SYSTEM.DIHEDRAL>
0

>  <SCORE.SYSTEM.SOLV>
0

>  <SCORE.SYSTEM.norm>
0

>  <SCORE.heavy>
37

>  <SCORE.norm>
-0.528853

>  <RMSD>
1.882

$$$$
2oe8_lig
 OpenBabel11021811463D
libRbt.so/2013.1/901 2013/11/27
 37 40  0  0  0  0  0  0  0  0999 V2000
   20.5271    0.7413   53.4380 C   0  0  1  0  0  0  0  0  0  0  0  0
   20.3409    1.5374   52.0908 C   0  0  1  0  0  0  0  0  0  0  0  0
   19.2269    0.8732   51.2550 C   0  0  0  0  0  0  0  0  0  0  0  0
   19.6995   -0.5902   50.9888 C   0  0  1  0  0  0  0  0  0  0  0  0
   19.9146   -1.4124   52.3613 C   0  0  1  0  0  0  0  0  0  0  0  0
   20.4046   -2.8678   52.1053 C   0  0  1  0  0  0  0  0  0  0  0  0
   19.3240   -3.5746   51.1889 C   0  0  1  0  0  0  0  0  0  0  0  0
   19.1184   -2.7153   49.8930 C   0  0  2  0  0  0  0  0  0  0  0  0
   20.9418   -5.2398   49.9615 C   0  0  0  0  0  0  0  0  0  0  0  0
   19.9789    2.9634   52.3693 N   0  0  0  0  0  0  0  0  0  0  0  0
   19.7411   -5.0012   50.8420 N   0  0  0  0  0  0  0  0  0  0  0  0
   19.3351    0.7604   54.2335 O   0  0  0  0  0  0  0  0  0  0  0  0
   20.8878   -0.6852   53.1880 O   0  0  0  0  0  0  0  0  0  0  0  0
   18.7184   -1.3066   50.1818 O   0  0  0  0  0  0  0  0  0  0  0  0
   21.6810   -2.7759   51.4703 O   0  0  0  0  0  0  0  0  0  0  0  0
   18.1316   -3.2966   49.1214 O   0  0  0  0  0  0  0  0  0  0  0  0
   17.9764   -2.6765   47.8337 C   0  0  2  0  0  0  0  0  0  0  0  0
   17.3492   -3.6737   46.8299 C   0  0  1  0  0  0  0  0  0  0  0  0
   18.3037   -4.8696   46.5281 C   0  0  2  0  0  0  0  0  0  0  0  0
   19.6467   -4.3251   45.9578 C   0  0  1  0  0  0  0  0  0  0  0  0
   20.2686   -3.3788   47.0672 C   0  0  1  0  0  0  0  0  0  0  0  0
   21.5915   -2.7645   46.6182 C   0  0  0  0  0  0  0  0  0  0  0  0
   20.5609   -5.4666   45.6682 N   0  0  0  0  0  0  0  0  0  0  0  0
   19.3086   -2.2494   47.3323 O   0  0  0  0  0  0  0  0  0  0  0  0
   16.0964   -4.1118   47.3896 O   0  0  0  0  0  0  0  0  0  0  0  0
   17.6836   -5.7043   45.5725 O   0  0  0  0  0  0  0  0  0  0  0  0
   22.0979   -1.9472   47.6403 O   0  0  0  0  0  0  0  0  0  0  0  0
   19.5802    0.9004   55.6178 C   0  0  1  0  0  0  0  0  0  0  0  0
   18.2972    1.4964   56.2813 C   0  0  1  0  0  0  0  0  0  0  0  0
   18.5645    1.6857   57.8031 C   0  0  2  0  0  0  0  0  0  0  0  0
   18.9288    0.3258   58.4752 C   0  0  1  0  0  0  0  0  0  0  0  0
   20.2161   -0.2887   57.8044 C   0  0  0  0  0  0  0  0  0  0  0  0
   19.9376   -0.4855   56.2565 C   0  0  2  0  0  0  0  0  0  0  0  0
   19.1850    0.5339   59.9274 N   0  0  0  0  0  0  0  0  0  0  0  0
   21.1493   -1.0662   55.6355 N   0  0  0  0  0  0  0  0  0  0  0  0
   17.9789    2.7734   55.6972 O   0  0  0  0  0  0  0  0  0  0  0  0
   17.3848    2.2199   58.3808 O   0  0  0  0  0  0  0  0  0  0  0  0
  1  2  1  0  0  0  0
  1 12  1  6  0  0  0
  1 13  1  0  0  0  0
  2  3  1  0  0  0  0
  2 10  1  1  0  0  0
  4  3  1  1  0  0  0
  4  5  1  0  0  0  0
  4 14  1  0  0  0  0
  5  6  1  0  0  0  0
  5 13  1  1  0  0  0
  6  7  1  0  0  0  0
  6 15  1  6  0  0  0
  7  8  1  0  0  0  0
  7 11  1  6  0  0  0
  8 14  1  0  0  0  0
  8 16  1  6  0  0  0
  9 11  1  0  0  0  0
 17 16  1  1  0  0  0
 17 18  1  0  0  0  0
 17 24  1  0  0  0  0
 18 19  1  0  0  0  0
 18 25  1  1  0  0  0
 19 20  1  0  0  0  0
 19 26  1  6  0  0  0
 20 21  1  0  0  0  0
 20 23  1  1  0  0  0
 21 22  1  6  0  0  0
 21 24  1  0  0  0  0
 22 27  1  0  0  0  0
 28 12  1  6  0  0  0
 28 29  1  0  0  0  0
 28 33  1  0  0  0  0
 29 30  1  0  0  0  0
 29 36  1  6  0  0  0
 30 31  1  0  0  0  0
 30 37  1  1  0  0  0
 31 32  1  0  0  0  0
 31 34  1  1  0  0  0
 32 33  1  0  0  0  0
 33 35  1  6  0  0  0
M  END
>  <CHROM.1>
-140.82748508,-67.03139554,-172.96261291,155.84475226,-179.58060183,156.57999052
19.45143912,-1.51394646,51.61034153,1.58258591,-1.23514501,1.09690840

>  <Name>
2oe8_lig

>  <RI>
0

>  <Rbt.Current_Directory>
/home/itssahil/PROJECTS/Mol_Feturizer/New_Systems/rnas/2oe8

>  <Rbt.Executable>
rbdock ($Id: //depot/dev/client3/rdock/2013.1/src/exe/rbdock.cxx#4 $)

>  <Rbt.Library>
libRbt.so (2013.1, Build901 2013/11/27)

>  <Rbt.Parameter_File>
/export/apps/rDock/src/rDock_2013.1_src/data/scripts/dock_solv.prm

>  <Rbt.Receptor>
prm/pocket_docking_6.prm

>  <SCORE>
-20.0178

>  <SCORE.INTER>
-19.0442

>  <SCORE.INTER.CONST>
1

>  <SCORE.INTER.POLAR>
-1.55432

>  <SCORE.INTER.ROT>
6

>  <SCORE.INTER.SOLV>
16.8966

>  <SCORE.INTER.VDW>
-20.7472

>  <SCORE.INTER.norm>
-0.514707

>  <SCORE.INTRA>
-0.973639

>  <SCORE.INTRA.DIHEDRAL>
-5.93526

>  <SCORE.INTRA.DIHEDRAL.0>
16.4056

>  <SCORE.INTRA.POLAR>
0

>  <SCORE.INTRA.POLAR.0>
0

>  <SCORE.INTRA.REPUL>
0.00513166

>  <SCORE.INTRA.REPUL.0>
0

>  <SCORE.INTRA.SOLV>
0.546467

>  <SCORE.INTRA.SOLV.lig_0>
-90.9627

>  <SCORE.INTRA.VDW>
1.6951

>  <SCORE.INTRA.VDW.0>
-3.28744

>  <SCORE.INTRA.norm>
-0.0263146

>  <SCORE.RESTR>
0

>  <SCORE.RESTR.CAVITY>
0

>  <SCORE.RESTR.norm>
0

>  <SCORE.SYSTEM>
0

>  <SCORE.SYSTEM.CONST>
0

>  <SCORE.SYSTEM.DIHEDRAL>
0

>  <SCORE.SYSTEM.SOLV>
0

>  <SCORE.SYSTEM.norm>
0

>  <SCORE.heavy>
37

>  <SCORE.norm>
-0.541021

>  <RMSD>
1.906

$$$$
2oe8_lig
 OpenBabel11021811463D
libRbt.so/2013.1/901 2013/11/27
 37 40  0  0  0  0  0  0  0  0999 V2000
   20.1417    1.4986   53.3481 C   0  0  1  0  0  0  0  0  0  0  0  0
   19.2661    2.0894   52.1786 C   0  0  1  0  0  0  0  0  0  0  0  0
   18.5743    0.9343   51.4250 C   0  0  0  0  0  0  0  0  0  0  0  0
   19.7202    0.0289   50.8745 C   0  0  1  0  0  0  0  0  0  0  0  0
   20.6388   -0.5673   52.0605 C   0  0  1  0  0  0  0  0  0  0  0  0
   21.7962   -1.4565   51.5185 C   0  0  1  0  0  0  0  0  0  0  0  0
   21.1384   -2.6237   50.6749 C   0  0  1  0  0  0  0  0  0  0  0  0
   20.2224   -1.9948   49.5679 C   0  0  2  0  0  0  0  0  0  0  0  0
   23.3206   -4.0645   50.9169 C   0  0  0  0  0  0  0  0  0  0  0  0
   18.2323    3.0281   52.7192 N   0  0  0  0  0  0  0  0  0  0  0  0
   22.2023   -3.5283   50.0591 N   0  0  0  0  0  0  0  0  0  0  0  0
   19.3413    0.7915   54.3038 O   0  0  0  0  0  0  0  0  0  0  0  0
   21.1806    0.5576   52.8354 O   0  0  0  0  0  0  0  0  0  0  0  0
   19.1701   -1.0926   50.1216 O   0  0  0  0  0  0  0  0  0  0  0  0
   22.6350   -0.6162   50.7241 O   0  0  0  0  0  0  0  0  0  0  0  0
   19.5992   -3.0111   48.8710 O   0  0  0  0  0  0  0  0  0  0  0  0
   20.4813   -3.7145   47.9799 C   0  0  2  0  0  0  0  0  0  0  0  0
   20.5253   -3.0108   46.6021 C   0  0  1  0  0  0  0  0  0  0  0  0
   19.1521   -3.0896   45.8671 C   0  0  2  0  0  0  0  0  0  0  0  0
   18.7525   -4.5833   45.6814 C   0  0  1  0  0  0  0  0  0  0  0  0
   18.6486   -5.2163   47.1312 C   0  0  1  0  0  0  0  0  0  0  0  0
   18.2757   -6.6953   47.0835 C   0  0  0  0  0  0  0  0  0  0  0  0
   17.4400   -4.6613   44.9787 N   0  0  0  0  0  0  0  0  0  0  0  0
   19.9914   -5.1063   47.8037 O   0  0  0  0  0  0  0  0  0  0  0  0
   20.9371   -1.6496   46.8308 O   0  0  0  0  0  0  0  0  0  0  0  0
   19.2864   -2.4716   44.6044 O   0  0  0  0  0  0  0  0  0  0  0  0
   19.3012   -7.4155   46.4520 O   0  0  0  0  0  0  0  0  0  0  0  0
   19.8877    0.7860   55.6066 C   0  0  1  0  0  0  0  0  0  0  0  0
   18.7613    1.1976   56.6084 C   0  0  1  0  0  0  0  0  0  0  0  0
   19.3581    1.2263   58.0457 C   0  0  2  0  0  0  0  0  0  0  0  0
   19.9327   -0.1707   58.4354 C   0  0  1  0  0  0  0  0  0  0  0  0
   21.0625   -0.5994   57.4232 C   0  0  0  0  0  0  0  0  0  0  0  0
   20.4493   -0.6335   55.9621 C   0  0  2  0  0  0  0  0  0  0  0  0
   20.5019   -0.1159   59.8104 N   0  0  0  0  0  0  0  0  0  0  0  0
   21.5152   -1.0405   55.0190 N   0  0  0  0  0  0  0  0  0  0  0  0
   18.2555    2.5057   56.2827 O   0  0  0  0  0  0  0  0  0  0  0  0
   18.3158    1.5950   58.9337 O   0  0  0  0  0  0  0  0  0  0  0  0
  1  2  1  0  0  0  0
  1 12  1  1  0  0  0
  1 13  1  0  0  0  0
  2  3  1  0  0  0  0
  2 10  1  1  0  0  0
  4  3  1  1  0  0  0
  4  5  1  0  0  0  0
  4 14  1  0  0  0  0
  5  6  1  0  0  0  0
  5 13  1  6  0  0  0
  6  7  1  0  0  0  0
  6 15  1  6  0  0  0
  7  8  1  0  0  0  0
  7 11  1  6  0  0  0
  8 14  1  0  0  0  0
  8 16  1  1  0  0  0
  9 11  1  0  0  0  0
 17 16  1  1  0  0  0
 17 18  1  0  0  0  0
 17 24  1  0  0  0  0
 18 19  1  0  0  0  0
 18 25  1  1  0  0  0
 19 20  1  0  0  0  0
 19 26  1  6  0  0  0
 20 21  1  0  0  0  0
 20 23  1  1  0  0  0
 21 22  1  6  0  0  0
 21 24  1  0  0  0  0
 22 27  1  0  0  0  0
 28 12  1  6  0  0  0
 28 29  1  0  0  0  0
 28 33  1  0  0  0  0
 29 30  1  0  0  0  0
 29 36  1  6  0  0  0
 30 31  1  0  0  0  0
 30 37  1  1  0  0  0
 31 32  1  0  0  0  0
 31 34  1  1  0  0  0
 32 33  1  0  0  0  0
 33 35  1  6  0  0  0
M  END
>  <CHROM.1>
-152.13480413,49.05496320,-73.56748554,-87.64386287,64.29881563,131.36131661
19.94789042,-1.44307961,51.45649116,1.53994157,-1.14304478,1.06356941

>  <Name>
2oe8_lig

>  <RI>
0

>  <Rbt.Current_Directory>
/home/itssahil/PROJECTS/Mol_Feturizer/New_Systems/rnas/2oe8

>  <Rbt.Executable>
rbdock ($Id: //depot/dev/client3/rdock/2013.1/src/exe/rbdock.cxx#4 $)

>  <Rbt.Library>
libRbt.so (2013.1, Build901 2013/11/27)

>  <Rbt.Parameter_File>
/export/apps/rDock/src/rDock_2013.1_src/data/scripts/dock_solv.prm

>  <Rbt.Receptor>
prm/pocket_docking_2.prm

>  <SCORE>
-11.9309

>  <SCORE.INTER>
-14.8685

>  <SCORE.INTER.CONST>
1

>  <SCORE.INTER.POLAR>
-1.65686

>  <SCORE.INTER.ROT>
6

>  <SCORE.INTER.SOLV>
14.0983

>  <SCORE.INTER.VDW>
-16.6889

>  <SCORE.INTER.norm>
-0.401852

>  <SCORE.INTRA>
0.836422

>  <SCORE.INTRA.DIHEDRAL>
-2.40633

>  <SCORE.INTRA.DIHEDRAL.0>
16.4056

>  <SCORE.INTRA.POLAR>
0

>  <SCORE.INTRA.POLAR.0>
0

>  <SCORE.INTRA.REPUL>
0

>  <SCORE.INTRA.REPUL.0>
0

>  <SCORE.INTRA.SOLV>
1.75971

>  <SCORE.INTRA.SOLV.lig_0>
-90.9627

>  <SCORE.INTRA.VDW>
1.15973

>  <SCORE.INTRA.VDW.0>
-3.28744

>  <SCORE.INTRA.norm>
0.022606

>  <SCORE.RESTR>
2.10117

>  <SCORE.RESTR.CAVITY>
2.10117

>  <SCORE.RESTR.norm>
0.0567884

>  <SCORE.SYSTEM>
0

>  <SCORE.SYSTEM.CONST>
0

>  <SCORE.SYSTEM.DIHEDRAL>
0

>  <SCORE.SYSTEM.SOLV>
0

>  <SCORE.SYSTEM.norm>
0

>  <SCORE.heavy>
37

>  <SCORE.norm>
-0.322458

>  <RMSD>
1.926

$$$$
2oe8_lig
 OpenBabel11021811463D
libRbt.so/2013.1/901 2013/11/27
 37 40  0  0  0  0  0  0  0  0999 V2000
   20.6332    1.2550   53.8188 C   0  0  1  0  0  0  0  0  0  0  0  0
   20.4975    2.1547   52.5322 C   0  0  1  0  0  0  0  0  0  0  0  0
   19.5528    1.4664   51.5251 C   0  0  0  0  0  0  0  0  0  0  0  0
   20.2072    0.0900   51.1887 C   0  0  1  0  0  0  0  0  0  0  0  0
   20.3718   -0.8352   52.5014 C   0  0  1  0  0  0  0  0  0  0  0  0
   21.0415   -2.2029   52.1776 C   0  0  1  0  0  0  0  0  0  0  0  0
   20.1425   -2.9223   51.0908 C   0  0  1  0  0  0  0  0  0  0  0  0
   19.9756   -1.9669   49.8582 C   0  0  2  0  0  0  0  0  0  0  0  0
   19.8738   -5.4877   50.5980 C   0  0  0  0  0  0  0  0  0  0  0  0
   19.9553    3.5040   52.8897 N   0  0  0  0  0  0  0  0  0  0  0  0
   20.7461   -4.2599   50.6715 N   0  0  0  0  0  0  0  0  0  0  0  0
   19.3723    1.0782   54.4768 O   0  0  0  0  0  0  0  0  0  0  0  0
   21.1713   -0.0975   53.4893 O   0  0  0  0  0  0  0  0  0  0  0  0
   19.3967   -0.6396   50.2203 O   0  0  0  0  0  0  0  0  0  0  0  0
   22.3575   -1.9231   51.6974 O   0  0  0  0  0  0  0  0  0  0  0  0
   19.1411   -2.5667   48.9358 O   0  0  0  0  0  0  0  0  0  0  0  0
   19.5928   -2.4192   47.5789 C   0  0  2  0  0  0  0  0  0  0  0  0
   18.5115   -2.9276   46.5950 C   0  0  1  0  0  0  0  0  0  0  0  0
   18.2890   -4.4659   46.7230 C   0  0  2  0  0  0  0  0  0  0  0  0
   19.6332   -5.2047   46.4537 C   0  0  1  0  0  0  0  0  0  0  0  0
   20.6654   -4.6958   47.5440 C   0  0  1  0  0  0  0  0  0  0  0  0
   22.0386   -5.3398   47.3756 C   0  0  0  0  0  0  0  0  0  0  0  0
   19.4230   -6.6756   46.5752 N   0  0  0  0  0  0  0  0  0  0  0  0
   20.8378   -3.2080   47.3889 O   0  0  0  0  0  0  0  0  0  0  0  0
   17.3071   -2.1844   46.8630 O   0  0  0  0  0  0  0  0  0  0  0  0
   17.3290   -4.8584   45.7645 O   0  0  0  0  0  0  0  0  0  0  0  0
   22.8970   -4.8810   48.3864 O   0  0  0  0  0  0  0  0  0  0  0  0
   19.4522    1.1582   55.8850 C   0  0  1  0  0  0  0  0  0  0  0  0
   18.0785    1.6743   56.4218 C   0  0  1  0  0  0  0  0  0  0  0  0
   18.1627    1.7973   57.9713 C   0  0  2  0  0  0  0  0  0  0  0  0
   18.5039    0.4198   58.6190 C   0  0  1  0  0  0  0  0  0  0  0  0
   19.8834   -0.1143   58.0747 C   0  0  0  0  0  0  0  0  0  0  0  0
   19.7914   -0.2441   56.4977 C   0  0  2  0  0  0  0  0  0  0  0  0
   18.5842    0.5648   60.0990 N   0  0  0  0  0  0  0  0  0  0  0  0
   21.0889   -0.7495   55.9955 N   0  0  0  0  0  0  0  0  0  0  0  0
   17.7764    2.9663   55.8629 O   0  0  0  0  0  0  0  0  0  0  0  0
   16.9039    2.2598   58.4320 O   0  0  0  0  0  0  0  0  0  0  0  0
  1  2  1  0  0  0  0
  1 12  1  6  0  0  0
  1 13  1  0  0  0  0
  2  3  1  0  0  0  0
  2 10  1  1  0  0  0
  4  3  1  1  0  0  0
  4  5  1  0  0  0  0
  4 14  1  0  0  0  0
  5  6  1  0  0  0  0
  5 13  1  1  0  0  0
  6  7  1  0  0  0  0
  6 15  1  6  0  0  0
  7  8  1  0  0  0  0
  7 11  1  6  0  0  0
  8 14  1  0  0  0  0
  8 16  1  6  0  0  0
  9 11  1  0  0  0  0
 17 16  1  1  0  0  0
 17 18  1  0  0  0  0
 17 24  1  0  0  0  0
 18 19  1  0  0  0  0
 18 25  1  1  0  0  0
 19 20  1  0  0  0  0
 19 26  1  6  0  0  0
 20 21  1  0  0  0  0
 20 23  1  1  0  0  0
 21 22  1  6  0  0  0
 21 24  1  0  0  0  0
 22 27  1  0  0  0  0
 28 12  1  6  0  0  0
 28 29  1  0  0  0  0
 28 33  1  0  0  0  0
 29 30  1  0  0  0  0
 29 36  1  6  0  0  0
 30 31  1  0  0  0  0
 30 37  1  1  0  0  0
 31 32  1  0  0  0  0
 31 34  1  1  0  0  0
 32 33  1  0  0  0  0
 33 35  1  6  0  0  0
M  END
>  <CHROM.1>
-138.57020324,133.02139676,-137.68407764,-171.63383828,-178.41118380,151.56852722
19.70221023,-1.37607855,51.81902979,1.70976173,-1.01635948,1.15266932

>  <Name>
2oe8_lig

>  <RI>
0

>  <Rbt.Current_Directory>
/home/itssahil/PROJECTS/Mol_Feturizer/New_Systems/rnas/2oe8

>  <Rbt.Executable>
rbdock ($Id: //depot/dev/client3/rdock/2013.1/src/exe/rbdock.cxx#4 $)

>  <Rbt.Library>
libRbt.so (2013.1, Build901 2013/11/27)

>  <Rbt.Parameter_File>
/export/apps/rDock/src/rDock_2013.1_src/data/scripts/dock_solv.prm

>  <Rbt.Receptor>
prm/pocket_docking_3.prm

>  <SCORE>
-12.8249

>  <SCORE.INTER>
-12.5327

>  <SCORE.INTER.CONST>
1

>  <SCORE.INTER.POLAR>
-1.12282

>  <SCORE.INTER.ROT>
6

>  <SCORE.INTER.SOLV>
12.86

>  <SCORE.INTER.VDW>
-16.499

>  <SCORE.INTER.norm>
-0.338721

>  <SCORE.INTRA>
-0.301421

>  <SCORE.INTRA.DIHEDRAL>
-0.333122

>  <SCORE.INTRA.DIHEDRAL.0>
16.4056

>  <SCORE.INTRA.POLAR>
0

>  <SCORE.INTRA.POLAR.0>
0

>  <SCORE.INTRA.REPUL>
0

>  <SCORE.INTRA.REPUL.0>
0

>  <SCORE.INTRA.SOLV>
1.59779

>  <SCORE.INTRA.SOLV.lig_0>
-90.9627

>  <SCORE.INTRA.VDW>
-0.933756

>  <SCORE.INTRA.VDW.0>
-3.28744

>  <SCORE.INTRA.norm>
-0.0081465

>  <SCORE.RESTR>
0.00919984

>  <SCORE.RESTR.CAVITY>
0.00919984

>  <SCORE.RESTR.norm>
0.000248644

>  <SCORE.SYSTEM>
0

>  <SCORE.SYSTEM.CONST>
0

>  <SCORE.SYSTEM.DIHEDRAL>
0

>  <SCORE.SYSTEM.SOLV>
0

>  <SCORE.SYSTEM.norm>
0

>  <SCORE.heavy>
37

>  <SCORE.norm>
-0.346618

>  <RMSD>
1.936

$$$$
2oe8_lig
 OpenBabel11021811463D
libRbt.so/2013.1/901 2013/11/27
 37 40  0  0  0  0  0  0  0  0999 V2000
   20.0986    1.0412   53.5448 C   0  0  1  0  0  0  0  0  0  0  0  0
   19.7505    1.7986   52.2074 C   0  0  1  0  0  0  0  0  0  0  0  0
   18.7176    0.9763   51.4089 C   0  0  0  0  0  0  0  0  0  0  0  0
   19.3905   -0.4024   51.1218 C   0  0  1  0  0  0  0  0  0  0  0  0
   19.7719   -1.1813   52.4833 C   0  0  1  0  0  0  0  0  0  0  0  0
   20.4612   -2.5494   52.2056 C   0  0  1  0  0  0  0  0  0  0  0  0
   19.4648   -3.4091   51.3253 C   0  0  1  0  0  0  0  0  0  0  0  0
   19.0899   -2.5919   50.0402 C   0  0  2  0  0  0  0  0  0  0  0  0
   19.1820   -5.9601   50.7693 C   0  0  0  0  0  0  0  0  0  0  0  0
   19.1928    3.1565   52.5029 N   0  0  0  0  0  0  0  0  0  0  0  0
   20.0745   -4.7596   50.9595 N   0  0  0  0  0  0  0  0  0  0  0  0
   18.9454    0.8865   54.3815 O   0  0  0  0  0  0  0  0  0  0  0  0
   20.6561   -0.3173   53.2778 O   0  0  0  0  0  0  0  0  0  0  0  0
   18.4976   -1.2568   50.3472 O   0  0  0  0  0  0  0  0  0  0  0  0
   21.6872   -2.2722   51.5268 O   0  0  0  0  0  0  0  0  0  0  0  0
   18.1729   -3.3136   49.3017 O   0  0  0  0  0  0  0  0  0  0  0  0
   18.1574   -2.9578   47.9088 C   0  0  2  0  0  0  0  0  0  0  0  0
   17.2611   -3.9383   47.1144 C   0  0  1  0  0  0  0  0  0  0  0  0
   17.8525   -5.3813   47.0991 C   0  0  2  0  0  0  0  0  0  0  0  0
   19.2776   -5.3469   46.4721 C   0  0  1  0  0  0  0  0  0  0  0  0
   20.1578   -4.3908   47.3800 C   0  0  1  0  0  0  0  0  0  0  0  0
   21.5852   -4.2601   46.8563 C   0  0  0  0  0  0  0  0  0  0  0  0
   19.8451   -6.7254   46.4561 N   0  0  0  0  0  0  0  0  0  0  0  0
   19.5423   -3.0166   47.3731 O   0  0  0  0  0  0  0  0  0  0  0  0
   15.9510   -3.8989   47.7120 O   0  0  0  0  0  0  0  0  0  0  0  0
   17.0079   -6.2007   46.3185 O   0  0  0  0  0  0  0  0  0  0  0  0
   22.2279   -5.5049   46.9358 O   0  0  0  0  0  0  0  0  0  0  0  0
   19.1982    1.1430   55.7475 C   0  0  1  0  0  0  0  0  0  0  0  0
   17.8646    1.6187   56.4083 C   0  0  1  0  0  0  0  0  0  0  0  0
   18.1361    1.9354   57.9080 C   0  0  2  0  0  0  0  0  0  0  0  0
   18.6787    0.6757   58.6511 C   0  0  1  0  0  0  0  0  0  0  0  0
   20.0187    0.1817   57.9841 C   0  0  0  0  0  0  0  0  0  0  0  0
   19.7366   -0.1456   56.4592 C   0  0  2  0  0  0  0  0  0  0  0  0
   18.9354    1.0053   60.0805 N   0  0  0  0  0  0  0  0  0  0  0  0
   20.9985   -0.6121   55.8418 N   0  0  0  0  0  0  0  0  0  0  0  0
   17.3795    2.8075   55.7567 O   0  0  0  0  0  0  0  0  0  0  0  0
   16.9108    2.3571   58.4840 O   0  0  0  0  0  0  0  0  0  0  0  0
  1  2  1  0  0  0  0
  1 12  1  1  0  0  0
  1 13  1  0  0  0  0
  2  3  1  0  0  0  0
  2 10  1  1  0  0  0
  4  3  1  1  0  0  0
  4  5  1  0  0  0  0
  4 14  1  0  0  0  0
  5  6  1  0  0  0  0
  5 13  1  1  0  0  0
  6  7  1  0  0  0  0
  6 15  1  6  0  0  0
  7  8  1  0  0  0  0
  7 11  1  6  0  0  0
  8 14  1  0  0  0  0
  8 16  1  1  0  0  0
  9 11  1  0  0  0  0
 17 16  1  1  0  0  0
 17 18  1  0  0  0  0
 17 24  1  0  0  0  0
 18 19  1  0  0  0  0
 18 25  1  1  0  0  0
 19 20  1  0  0  0  0
 19 26  1  6  0  0  0
 20 21  1  0  0  0  0
 20 23  1  1  0  0  0
 21 22  1  6  0  0  0
 21 24  1  0  0  0  0
 22 27  1  0  0  0  0
 28 12  1  6  0  0  0
 28 29  1  0  0  0  0
 28 33  1  0  0  0  0
 29 30  1  0  0  0  0
 29 36  1  6  0  0  0
 30 31  1  0  0  0  0
 30 37  1  1  0  0  0
 31 32  1  0  0  0  0
 31 34  1  1  0  0  0
 32 33  1  0  0  0  0
 33 35  1  6  0  0  0
M  END
>  <CHROM.1>
-137.21358792,149.22831538,-156.55452324,171.89922730,-64.74811215,153.04537605
19.17391374,-1.66543145,51.80636840,1.61140581,-0.79319887,1.01717281

>  <Name>
2oe8_lig

>  <RI>
0

>  <Rbt.Current_Directory>
/home/itssahil/PROJECTS/Mol_Feturizer/New_Systems/rnas/2oe8

>  <Rbt.Executable>
rbdock ($Id: //depot/dev/client3/rdock/2013.1/src/exe/rbdock.cxx#4 $)

>  <Rbt.Library>
libRbt.so (2013.1, Build901 2013/11/27)

>  <Rbt.Parameter_File>
/export/apps/rDock/src/rDock_2013.1_src/data/scripts/dock_solv.prm

>  <Rbt.Receptor>
prm/pocket_docking_4.prm

>  <SCORE>
-21.6293

>  <SCORE.INTER>
-20.0082

>  <SCORE.INTER.CONST>
1

>  <SCORE.INTER.POLAR>
-1.48652

>  <SCORE.INTER.ROT>
6

>  <SCORE.INTER.SOLV>
14.9391

>  <SCORE.INTER.VDW>
-20.9634

>  <SCORE.INTER.norm>
-0.540761

>  <SCORE.INTRA>
-1.62118

>  <SCORE.INTRA.DIHEDRAL>
-4.13313

>  <SCORE.INTRA.DIHEDRAL.0>
16.4056

>  <SCORE.INTRA.POLAR>
0

>  <SCORE.INTRA.POLAR.0>
0

>  <SCORE.INTRA.REPUL>
0

>  <SCORE.INTRA.REPUL.0>
0

>  <SCORE.INTRA.SOLV>
1.2985

>  <SCORE.INTRA.SOLV.lig_0>
-90.9627

>  <SCORE.INTRA.VDW>
-0.203867

>  <SCORE.INTRA.VDW.0>
-3.28744

>  <SCORE.INTRA.norm>
-0.0438157

>  <SCORE.RESTR>
0

>  <SCORE.RESTR.CAVITY>
0

>  <SCORE.RESTR.norm>
0

>  <SCORE.SYSTEM>
0

>  <SCORE.SYSTEM.CONST>
0

>  <SCORE.SYSTEM.DIHEDRAL>
0

>  <SCORE.SYSTEM.SOLV>
0

>  <SCORE.SYSTEM.norm>
0

>  <SCORE.heavy>
37

>  <SCORE.norm>
-0.584577

>  <RMSD>
1.940

$$$$
2oe8_lig
 OpenBabel11021811463D
libRbt.so/2013.1/901 2013/11/27
 37 40  0  0  0  0  0  0  0  0999 V2000
   22.5825    0.3493   53.6343 C   0  0  1  0  0  0  0  0  0  0  0  0
   21.5805    1.2337   52.7993 C   0  0  1  0  0  0  0  0  0  0  0  0
   20.6078    0.3155   52.0303 C   0  0  0  0  0  0  0  0  0  0  0  0
   21.4934   -0.5709   51.0999 C   0  0  1  0  0  0  0  0  0  0  0  0
   22.5397   -1.4679   51.9405 C   0  0  1  0  0  0  0  0  0  0  0  0
   23.4403   -2.3412   51.0185 C   0  0  1  0  0  0  0  0  0  0  0  0
   22.4813   -3.2572   50.1535 C   0  0  1  0  0  0  0  0  0  0  0  0
   21.4573   -2.3437   49.3938 C   0  0  2  0  0  0  0  0  0  0  0  0
   23.8146   -5.4574   49.6262 C   0  0  0  0  0  0  0  0  0  0  0  0
   20.8063    2.1441   53.7016 N   0  0  0  0  0  0  0  0  0  0  0  0
   23.2746   -4.1226   49.1783 N   0  0  0  0  0  0  0  0  0  0  0  0
   21.8987   -0.4498   54.6079 O   0  0  0  0  0  0  0  0  0  0  0  0
   23.3669   -0.5691   52.7575 O   0  0  0  0  0  0  0  0  0  0  0  0
   20.6629   -1.4698   50.3065 O   0  0  0  0  0  0  0  0  0  0  0  0
   24.2106   -1.4466   50.2141 O   0  0  0  0  0  0  0  0  0  0  0  0
   20.5807   -3.1437   48.6878 O   0  0  0  0  0  0  0  0  0  0  0  0
   19.6780   -2.3996   47.8521 C   0  0  2  0  0  0  0  0  0  0  0  0
   18.2511   -2.9926   47.9422 C   0  0  1  0  0  0  0  0  0  0  0  0
   18.1813   -4.4288   47.3384 C   0  0  2  0  0  0  0  0  0  0  0  0
   18.6386   -4.3846   45.8505 C   0  0  1  0  0  0  0  0  0  0  0  0
   20.1295   -3.8458   45.8423 C   0  0  1  0  0  0  0  0  0  0  0  0
   20.6913   -3.7403   44.4273 C   0  0  0  0  0  0  0  0  0  0  0  0
   18.5725   -5.7565   45.2709 N   0  0  0  0  0  0  0  0  0  0  0  0
   20.1477   -2.4654   46.4438 O   0  0  0  0  0  0  0  0  0  0  0  0
   17.8671   -2.9720   49.3304 O   0  0  0  0  0  0  0  0  0  0  0  0
   16.8449   -4.8791   47.4132 O   0  0  0  0  0  0  0  0  0  0  0  0
   20.0182   -2.7241   43.7320 O   0  0  0  0  0  0  0  0  0  0  0  0
   21.4453    0.2848   55.7262 C   0  0  1  0  0  0  0  0  0  0  0  0
   20.7332   -0.7055   56.7028 C   0  0  1  0  0  0  0  0  0  0  0  0
   20.2004    0.0966   57.9258 C   0  0  2  0  0  0  0  0  0  0  0  0
   21.3673    0.8240   58.6626 C   0  0  1  0  0  0  0  0  0  0  0  0
   22.0990    1.8174   57.6816 C   0  0  0  0  0  0  0  0  0  0  0  0
   22.6453    0.9959   56.4410 C   0  0  2  0  0  0  0  0  0  0  0  0
   20.8321    1.5876   59.8237 N   0  0  0  0  0  0  0  0  0  0  0  0
   23.3339    1.9352   55.5273 N   0  0  0  0  0  0  0  0  0  0  0  0
   19.6264   -1.3490   56.0438 O   0  0  0  0  0  0  0  0  0  0  0  0
   19.5663   -0.8249   58.7975 O   0  0  0  0  0  0  0  0  0  0  0  0
  1  2  1  0  0  0  0
  1 12  1  1  0  0  0
  1 13  1  0  0  0  0
  2  3  1  0  0  0  0
  2 10  1  1  0  0  0
  4  3  1  1  0  0  0
  4  5  1  0  0  0  0
  4 14  1  0  0  0  0
  5  6  1  0  0  0  0
  5 13  1  6  0  0  0
  6  7  1  0  0  0  0
  6 15  1  6  0  0  0
  7  8  1  0  0  0  0
  7 11  1  6  0  0  0
  8 14  1  0  0  0  0
  8 16  1  1  0  0  0
  9 11  1  0  0  0  0
 17 16  1  1  0  0  0
 17 18  1  0  0  0  0
 17 24  1  0  0  0  0
 18 19  1  0  0  0  0
 18 25  1  1  0  0  0
 19 20  1  0  0  0  0
 19 26  1  6  0  0  0
 20 21  1  0  0  0  0
 20 23  1  1  0  0  0
 21 22  1  6  0  0  0
 21 24  1  0  0  0  0
 22 27  1  0  0  0  0
 28 12  1  6  0  0  0
 28 29  1  0  0  0  0
 28 33  1  0  0  0  0
 29 30  1  0  0  0  0
 29 36  1  6  0  0  0
 30 31  1  0  0  0  0
 30 37  1  1  0  0  0
 31 32  1  0  0  0  0
 31 34  1  1  0  0  0
 32 33  1  0  0  0  0
 33 35  1  6  0  0  0
M  END
>  <CHROM.1>
-74.70289231,86.62032587,-174.37133611,-138.00307520,68.03073783,-179.60746933
20.94663936,-1.61145905,51.46755702,-1.42182722,-0.23827547,-1.93907278

>  <Name>
2oe8_lig

>  <RI>
0

>  <Rbt.Current_Directory>
/home/itssahil/PROJECTS/Mol_Feturizer/New_Systems/rnas/2oe8

>  <Rbt.Executable>
rbdock ($Id: //depot/dev/client3/rdock/2013.1/src/exe/rbdock.cxx#4 $)

>  <Rbt.Library>
libRbt.so (2013.1, Build901 2013/11/27)

>  <Rbt.Parameter_File>
/export/apps/rDock/src/rDock_2013.1_src/data/scripts/dock_solv.prm

>  <Rbt.Receptor>
prm/pocket_docking_5.prm

>  <SCORE>
-16.8257

>  <SCORE.INTER>
-16.0357

>  <SCORE.INTER.CONST>
1

>  <SCORE.INTER.POLAR>
-2.42809

>  <SCORE.INTER.ROT>
6

>  <SCORE.INTER.SOLV>
12.1214

>  <SCORE.INTER.VDW>
-14.2373

>  <SCORE.INTER.norm>
-0.433398

>  <SCORE.INTRA>
-0.790008

>  <SCORE.INTRA.DIHEDRAL>
-8.73328

>  <SCORE.INTRA.DIHEDRAL.0>
16.4056

>  <SCORE.INTRA.POLAR>
0

>  <SCORE.INTRA.POLAR.0>
0

>  <SCORE.INTRA.REPUL>
0

>  <SCORE.INTRA.REPUL.0>
0

>  <SCORE.INTRA.SOLV>
2.28005

>  <SCORE.INTRA.SOLV.lig_0>
-90.9627

>  <SCORE.INTRA.VDW>
2.43661

>  <SCORE.INTRA.VDW.0>
-3.28744

>  <SCORE.INTRA.norm>
-0.0213516

>  <SCORE.RESTR>
0

>  <SCORE.RESTR.CAVITY>
0

>  <SCORE.RESTR.norm>
0

>  <SCORE.SYSTEM>
0

>  <SCORE.SYSTEM.CONST>
0

>  <SCORE.SYSTEM.DIHEDRAL>
0

>  <SCORE.SYSTEM.SOLV>
0

>  <SCORE.SYSTEM.norm>
0

>  <SCORE.heavy>
37

>  <SCORE.norm>
-0.454749

>  <RMSD>
1.953

$$$$
2oe8_lig
 OpenBabel11021811463D
libRbt.so/2013.1/901 2013/11/27
 37 40  0  0  0  0  0  0  0  0999 V2000
   20.5003    1.7216   52.8944 C   0  0  1  0  0  0  0  0  0  0  0  0
   19.0948    1.9169   52.2090 C   0  0  1  0  0  0  0  0  0  0  0  0
   18.5861    0.5557   51.6902 C   0  0  0  0  0  0  0  0  0  0  0  0
   19.6527    0.0569   50.6657 C   0  0  1  0  0  0  0  0  0  0  0  0
   21.1035   -0.1281   51.3491 C   0  0  1  0  0  0  0  0  0  0  0  0
   22.1779   -0.6073   50.3294 C   0  0  1  0  0  0  0  0  0  0  0  0
   21.6670   -1.9737   49.7137 C   0  0  1  0  0  0  0  0  0  0  0  0
   20.2387   -1.7524   49.1046 C   0  0  2  0  0  0  0  0  0  0  0  0
   23.4258   -3.7598   48.9306 C   0  0  0  0  0  0  0  0  0  0  0  0
   18.1096    2.4841   53.1837 N   0  0  0  0  0  0  0  0  0  0  0  0
   22.6374   -2.5029   48.6612 N   0  0  0  0  0  0  0  0  0  0  0  0
   20.4213    0.8429   54.0238 O   0  0  0  0  0  0  0  0  0  0  0  0
   21.5016    1.1556   51.9432 O   0  0  0  0  0  0  0  0  0  0  0  0
   19.2549   -1.2251   50.0954 O   0  0  0  0  0  0  0  0  0  0  0  0
   22.3092    0.4187   49.3441 O   0  0  0  0  0  0  0  0  0  0  0  0
   19.7654   -2.9569   48.6226 O   0  0  0  0  0  0  0  0  0  0  0  0
   18.9537   -2.8190   47.4441 C   0  0  2  0  0  0  0  0  0  0  0  0
   17.8428   -3.8966   47.4284 C   0  0  1  0  0  0  0  0  0  0  0  0
   18.4312   -5.3333   47.2802 C   0  0  2  0  0  0  0  0  0  0  0  0
   19.2619   -5.4162   45.9655 C   0  0  1  0  0  0  0  0  0  0  0  0
   20.4242   -4.3450   46.0864 C   0  0  1  0  0  0  0  0  0  0  0  0
   21.3071   -4.3169   44.8419 C   0  0  0  0  0  0  0  0  0  0  0  0
   19.8254   -6.7889   45.8214 N   0  0  0  0  0  0  0  0  0  0  0  0
   19.8086   -2.9793   46.2392 O   0  0  0  0  0  0  0  0  0  0  0  0
   17.0856   -3.7469   48.6446 O   0  0  0  0  0  0  0  0  0  0  0  0
   17.3588   -6.2505   47.2251 O   0  0  0  0  0  0  0  0  0  0  0  0
   22.2405   -3.2752   44.9547 O   0  0  0  0  0  0  0  0  0  0  0  0
   19.6267    1.3458   55.0781 C   0  0  1  0  0  0  0  0  0  0  0  0
   19.7409    0.3610   56.2860 C   0  0  1  0  0  0  0  0  0  0  0  0
   18.8446    0.8869   57.4448 C   0  0  2  0  0  0  0  0  0  0  0  0
   19.2860    2.3181   57.8813 C   0  0  1  0  0  0  0  0  0  0  0  0
   19.1848    3.3165   56.6658 C   0  0  0  0  0  0  0  0  0  0  0  0
   20.1035    2.7808   55.4905 C   0  0  2  0  0  0  0  0  0  0  0  0
   18.4112    2.8005   58.9857 N   0  0  0  0  0  0  0  0  0  0  0  0
   20.0056    3.7257   54.3553 N   0  0  0  0  0  0  0  0  0  0  0  0
   19.2932   -0.9531   55.9041 O   0  0  0  0  0  0  0  0  0  0  0  0
   18.9718   -0.0193   58.5281 O   0  0  0  0  0  0  0  0  0  0  0  0
  1  2  1  0  0  0  0
  1 12  1  1  0  0  0
  1 13  1  0  0  0  0
  2  3  1  0  0  0  0
  2 10  1  1  0  0  0
  4  3  1  1  0  0  0
  4  5  1  0  0  0  0
  4 14  1  0  0  0  0
  5  6  1  0  0  0  0
  5 13  1  6  0  0  0
  6  7  1  0  0  0  0
  6 15  1  6  0  0  0
  7  8  1  0  0  0  0
  7 11  1  6  0  0  0
  8 14  1  0  0  0  0
  8 16  1  1  0  0  0
  9 11  1  0  0  0  0
 17 16  1  1  0  0  0
 17 18  1  0  0  0  0
 17 24  1  0  0  0  0
 18 19  1  0  0  0  0
 18 25  1  1  0  0  0
 19 20  1  0  0  0  0
 19 26  1  6  0  0  0
 20 21  1  0  0  0  0
 20 23  1  1  0  0  0
 21 22  1  6  0  0  0
 21 24  1  0  0  0  0
 22 27  1  0  0  0  0
 28 12  1  6  0  0  0
 28 29  1  0  0  0  0
 28 33  1  0  0  0  0
 29 30  1  0  0  0  0
 29 36  1  6  0  0  0
 30 31  1  0  0  0  0
 30 37  1  1  0  0  0
 31 32  1  0  0  0  0
 31 34  1  1  0  0  0
 32 33  1  0  0  0  0
 33 35  1  6  0  0  0
M  END
>  <CHROM.1>
-64.28988160,111.84020403,-145.70241039,-146.65269155,174.83138679,-174.58048678
19.91016535,-1.07594307,51.07965255,-1.64166557,-0.69127783,-2.18536330

>  <Name>
2oe8_lig

>  <RI>
0

>  <Rbt.Current_Directory>
/home/itssahil/PROJECTS/Mol_Feturizer/New_Systems/rnas/2oe8

>  <Rbt.Executable>
rbdock ($Id: //depot/dev/client3/rdock/2013.1/src/exe/rbdock.cxx#4 $)

>  <Rbt.Library>
libRbt.so (2013.1, Build901 2013/11/27)

>  <Rbt.Parameter_File>
/export/apps/rDock/src/rDock_2013.1_src/data/scripts/dock_solv.prm

>  <Rbt.Receptor>
prm/pocket_docking_2.prm

>  <SCORE>
-10.2929

>  <SCORE.INTER>
-14.0481

>  <SCORE.INTER.CONST>
1

>  <SCORE.INTER.POLAR>
-1.35612

>  <SCORE.INTER.ROT>
6

>  <SCORE.INTER.SOLV>
14.4221

>  <SCORE.INTER.VDW>
-17.2524

>  <SCORE.INTER.norm>
-0.379678

>  <SCORE.INTRA>
2.57822

>  <SCORE.INTRA.DIHEDRAL>
-6.27268

>  <SCORE.INTRA.DIHEDRAL.0>
16.4056

>  <SCORE.INTRA.POLAR>
0

>  <SCORE.INTRA.POLAR.0>
0

>  <SCORE.INTRA.REPUL>
0

>  <SCORE.INTRA.REPUL.0>
0

>  <SCORE.INTRA.SOLV>
4.06873

>  <SCORE.INTRA.SOLV.lig_0>
-90.9627

>  <SCORE.INTRA.VDW>
3.6802

>  <SCORE.INTRA.VDW.0>
-3.28744

>  <SCORE.INTRA.norm>
0.0696817

>  <SCORE.RESTR>
1.17697

>  <SCORE.RESTR.CAVITY>
1.17697

>  <SCORE.RESTR.norm>
0.0318101

>  <SCORE.SYSTEM>
0

>  <SCORE.SYSTEM.CONST>
0

>  <SCORE.SYSTEM.DIHEDRAL>
0

>  <SCORE.SYSTEM.SOLV>
0

>  <SCORE.SYSTEM.norm>
0

>  <SCORE.heavy>
37

>  <SCORE.norm>
-0.278186

>  <RMSD>
1.972

$$$$
2oe8_lig
 OpenBabel11021811463D
libRbt.so/2013.1/901 2013/11/27
 37 40  0  0  0  0  0  0  0  0999 V2000
   19.7560    1.4122   53.7182 C   0  0  1  0  0  0  0  0  0  0  0  0
   19.0719    2.0917   52.4718 C   0  0  1  0  0  0  0  0  0  0  0  0
   18.3323    1.0179   51.6468 C   0  0  0  0  0  0  0  0  0  0  0  0
   19.4177   -0.0134   51.2064 C   0  0  1  0  0  0  0  0  0  0  0  0
   20.1421   -0.7031   52.4735 C   0  0  1  0  0  0  0  0  0  0  0  0
   21.2399   -1.7196   52.0427 C   0  0  1  0  0  0  0  0  0  0  0  0
   20.5414   -2.8097   51.1314 C   0  0  1  0  0  0  0  0  0  0  0  0
   19.8154   -2.0874   49.9435 C   0  0  2  0  0  0  0  0  0  0  0  0
   21.0715   -5.0794   49.9215 C   0  0  0  0  0  0  0  0  0  0  0  0
   18.1020    3.1436   52.9136 N   0  0  0  0  0  0  0  0  0  0  0  0
   21.5523   -3.8314   50.6180 N   0  0  0  0  0  0  0  0  0  0  0  0
   18.7910    0.8045   54.5862 O   0  0  0  0  0  0  0  0  0  0  0  0
   20.7280    0.3577   53.3047 O   0  0  0  0  0  0  0  0  0  0  0  0
   18.8218   -1.0698   50.3963 O   0  0  0  0  0  0  0  0  0  0  0  0
   22.2420   -0.9830   51.3398 O   0  0  0  0  0  0  0  0  0  0  0  0
   19.1536   -3.0307   49.1824 O   0  0  0  0  0  0  0  0  0  0  0  0
   18.6130   -2.4993   47.9608 C   0  0  2  0  0  0  0  0  0  0  0  0
   17.6023   -3.4955   47.3431 C   0  0  1  0  0  0  0  0  0  0  0  0
   18.2976   -4.8102   46.8737 C   0  0  2  0  0  0  0  0  0  0  0  0
   19.3998   -4.4649   45.8292 C   0  0  1  0  0  0  0  0  0  0  0  0
   20.4380   -3.5103   46.5531 C   0  0  1  0  0  0  0  0  0  0  0  0
   21.5687   -3.0842   45.6209 C   0  0  0  0  0  0  0  0  0  0  0  0
   20.0660   -5.7203   45.3786 N   0  0  0  0  0  0  0  0  0  0  0  0
   19.7196   -2.2637   46.9974 O   0  0  0  0  0  0  0  0  0  0  0  0
   16.5890   -3.7463   48.3357 O   0  0  0  0  0  0  0  0  0  0  0  0
   17.3229   -5.6425   46.2807 O   0  0  0  0  0  0  0  0  0  0  0  0
   22.2036   -4.2243   45.1050 O   0  0  0  0  0  0  0  0  0  0  0  0
   19.1287    0.8883   55.9554 C   0  0  1  0  0  0  0  0  0  0  0  0
   20.2852   -0.1248   56.2342 C   0  0  1  0  0  0  0  0  0  0  0  0
   20.6463   -0.0657   57.7472 C   0  0  2  0  0  0  0  0  0  0  0  0
   21.0891    1.3733   58.1556 C   0  0  1  0  0  0  0  0  0  0  0  0
   19.9322    2.4044   57.8674 C   0  0  0  0  0  0  0  0  0  0  0  0
   19.5719    2.3455   56.3250 C   0  0  2  0  0  0  0  0  0  0  0  0
   21.4235    1.4050   59.6064 N   0  0  0  0  0  0  0  0  0  0  0  0
   18.4880    3.3190   56.0625 N   0  0  0  0  0  0  0  0  0  0  0  0
   19.8696   -1.4626   55.9015 O   0  0  0  0  0  0  0  0  0  0  0  0
   21.7006   -0.9874   57.9710 O   0  0  0  0  0  0  0  0  0  0  0  0
  1  2  1  0  0  0  0
  1 12  1  1  0  0  0
  1 13  1  0  0  0  0
  2  3  1  0  0  0  0
  2 10  1  1  0  0  0
  4  3  1  1  0  0  0
  4  5  1  0  0  0  0
  4 14  1  0  0  0  0
  5  6  1  0  0  0  0
  5 13  1  1  0  0  0
  6  7  1  0  0  0  0
  6 15  1  6  0  0  0
  7  8  1  0  0  0  0
  7 11  1  6  0  0  0
  8 14  1  0  0  0  0
  8 16  1  1  0  0  0
  9 11  1  0  0  0  0
 17 16  1  1  0  0  0
 17 18  1  0  0  0  0
 17 24  1  0  0  0  0
 18 19  1  0  0  0  0
 18 25  1  1  0  0  0
 19 20  1  0  0  0  0
 19 26  1  6  0  0  0
 20 21  1  0  0  0  0
 20 23  1  1  0  0  0
 21 22  1  6  0  0  0
 21 24  1  0  0  0  0
 22 27  1  0  0  0  0
 28 12  1  6  0  0  0
 28 29  1  0  0  0  0
 28 33  1  0  0  0  0
 29 30  1  0  0  0  0
 29 36  1  1  0  0  0
 30 31  1  0  0  0  0
 30 37  1  6  0  0  0
 31 32  1  0  0  0  0
 31 34  1  1  0  0  0
 32 33  1  0  0  0  0
 33 35  1  1  0  0  0
M  END
>  <CHROM.1>
-144.92321048,169.99838945,-171.63657690,-165.87946744,-56.26864745,-73.97837209
19.80650462,-1.31186565,51.60469550,1.49982258,-0.80286423,1.02560342

>  <Name>
2oe8_lig

>  <RI>
0

>  <Rbt.Current_Directory>
/home/itssahil/PROJECTS/Mol_Feturizer/New_Systems/rnas/2oe8

>  <Rbt.Executable>
rbdock ($Id: //depot/dev/client3/rdock/2013.1/src/exe/rbdock.cxx#4 $)

>  <Rbt.Library>
libRbt.so (2013.1, Build901 2013/11/27)

>  <Rbt.Parameter_File>
/export/apps/rDock/src/rDock_2013.1_src/data/scripts/dock_solv.prm

>  <Rbt.Receptor>
prm/pocket_docking_2.prm

>  <SCORE>
-16.1767

>  <SCORE.INTER>
-14.5583

>  <SCORE.INTER.CONST>
1

>  <SCORE.INTER.POLAR>
-1.77197

>  <SCORE.INTER.ROT>
6

>  <SCORE.INTER.SOLV>
18.2129

>  <SCORE.INTER.VDW>
-17.4699

>  <SCORE.INTER.norm>
-0.393468

>  <SCORE.INTRA>
-2.37025

>  <SCORE.INTRA.DIHEDRAL>
-9.49658

>  <SCORE.INTRA.DIHEDRAL.0>
16.4056

>  <SCORE.INTRA.POLAR>
0

>  <SCORE.INTRA.POLAR.0>
0

>  <SCORE.INTRA.REPUL>
0

>  <SCORE.INTRA.REPUL.0>
0

>  <SCORE.INTRA.SOLV>
1.04063

>  <SCORE.INTRA.SOLV.lig_0>
-90.9627

>  <SCORE.INTRA.VDW>
1.85772

>  <SCORE.INTRA.VDW.0>
-3.28744

>  <SCORE.INTRA.norm>
-0.0640608

>  <SCORE.RESTR>
0.751837

>  <SCORE.RESTR.CAVITY>
0.751837

>  <SCORE.RESTR.norm>
0.0203199

>  <SCORE.SYSTEM>
0

>  <SCORE.SYSTEM.CONST>
0

>  <SCORE.SYSTEM.DIHEDRAL>
0

>  <SCORE.SYSTEM.SOLV>
0

>  <SCORE.SYSTEM.norm>
0

>  <SCORE.heavy>
37

>  <SCORE.norm>
-0.437209

>  <RMSD>
1.991

$$$$
2oe8_lig
 OpenBabel11021811463D
libRbt.so/2013.1/901 2013/11/27
 37 40  0  0  0  0  0  0  0  0999 V2000
   19.7385    1.4107   53.7965 C   0  0  1  0  0  0  0  0  0  0  0  0
   19.0349    2.1030   52.5680 C   0  0  1  0  0  0  0  0  0  0  0  0
   18.2916    1.0361   51.7375 C   0  0  0  0  0  0  0  0  0  0  0  0
   19.3777    0.0176   51.2696 C   0  0  1  0  0  0  0  0  0  0  0  0
   20.1219   -0.6849   52.5181 C   0  0  1  0  0  0  0  0  0  0  0  0
   21.2203   -1.6886   52.0599 C   0  0  1  0  0  0  0  0  0  0  0  0
   20.5171   -2.7704   51.1422 C   0  0  1  0  0  0  0  0  0  0  0  0
   19.7721   -2.0363   49.9734 C   0  0  2  0  0  0  0  0  0  0  0  0
   21.0476   -4.9952   49.8517 C   0  0  0  0  0  0  0  0  0  0  0  0
   18.0643    3.1427   53.0363 N   0  0  0  0  0  0  0  0  0  0  0  0
   21.5277   -3.7787   50.6024 N   0  0  0  0  0  0  0  0  0  0  0  0
   18.7880    0.7852   54.6678 O   0  0  0  0  0  0  0  0  0  0  0  0
   20.7116    0.3680   53.3565 O   0  0  0  0  0  0  0  0  0  0  0  0
   18.7782   -1.0312   50.4524 O   0  0  0  0  0  0  0  0  0  0  0  0
   22.2092   -0.9363   51.3549 O   0  0  0  0  0  0  0  0  0  0  0  0
   19.1066   -2.9732   49.2076 O   0  0  0  0  0  0  0  0  0  0  0  0
   18.5992   -2.4418   47.9719 C   0  0  2  0  0  0  0  0  0  0  0  0
   17.6000   -3.4349   47.3307 C   0  0  1  0  0  0  0  0  0  0  0  0
   18.3011   -4.7534   46.8814 C   0  0  2  0  0  0  0  0  0  0  0  0
   19.4308   -4.4150   45.8643 C   0  0  1  0  0  0  0  0  0  0  0  0
   20.4546   -3.4634   46.6123 C   0  0  1  0  0  0  0  0  0  0  0  0
   21.6103   -3.0440   45.7081 C   0  0  0  0  0  0  0  0  0  0  0  0
   20.1025   -5.6741   45.4329 N   0  0  0  0  0  0  0  0  0  0  0  0
   19.7308   -2.2129   47.0361 O   0  0  0  0  0  0  0  0  0  0  0  0
   16.5610   -3.6793   48.2980 O   0  0  0  0  0  0  0  0  0  0  0  0
   17.3380   -5.5827   46.2656 O   0  0  0  0  0  0  0  0  0  0  0  0
   22.1872   -4.1841   45.1281 O   0  0  0  0  0  0  0  0  0  0  0  0
   19.1382    0.8592   56.0345 C   0  0  1  0  0  0  0  0  0  0  0  0
   20.2761   -0.1778   56.3020 C   0  0  1  0  0  0  0  0  0  0  0  0
   20.6503   -0.1293   57.8122 C   0  0  2  0  0  0  0  0  0  0  0  0
   21.1255    1.2996   58.2199 C   0  0  1  0  0  0  0  0  0  0  0  0
   19.9874    2.3545   57.9430 C   0  0  0  0  0  0  0  0  0  0  0  0
   19.6138    2.3064   56.4034 C   0  0  2  0  0  0  0  0  0  0  0  0
   21.4719    1.3214   59.6681 N   0  0  0  0  0  0  0  0  0  0  0  0
   18.5479    3.3021   56.1515 N   0  0  0  0  0  0  0  0  0  0  0  0
   19.8307   -1.5061   55.9700 O   0  0  0  0  0  0  0  0  0  0  0  0
   21.6874   -1.0726   58.0257 O   0  0  0  0  0  0  0  0  0  0  0  0
  1  2  1  0  0  0  0
  1 12  1  1  0  0  0
  1 13  1  0  0  0  0
  2  3  1  0  0  0  0
  2 10  1  1  0  0  0
  4  3  1  1  0  0  0
  4  5  1  0  0  0  0
  4 14  1  0  0  0  0
  5  6  1  0  0  0  0
  5 13  1  1  0  0  0
  6  7  1  0  0  0  0
  6 15  1  6  0  0  0
  7  8  1  0  0  0  0
  7 11  1  6  0  0  0
  8 14  1  0  0  0  0
  8 16  1  1  0  0  0
  9 11  1  0  0  0  0
 17 16  1  1  0  0  0
 17 18  1  0  0  0  0
 17 24  1  0  0  0  0
 18 19  1  0  0  0  0
 18 25  1  1  0  0  0
 19 20  1  0  0  0  0
 19 26  1  6  0  0  0
 20 21  1  0  0  0  0
 20 23  1  1  0  0  0
 21 22  1  6  0  0  0
 21 24  1  0  0  0  0
 22 27  1  0  0  0  0
 28 12  1  6  0  0  0
 28 29  1  0  0  0  0
 28 33  1  0  0  0  0
 29 30  1  0  0  0  0
 29 36  1  1  0  0  0
 30 31  1  0  0  0  0
 30 37  1  6  0  0  0
 31 32  1  0  0  0  0
 31 34  1  1  0  0  0
 32 33  1  0  0  0  0
 33 35  1  1  0  0  0
M  END
>  <CHROM.1>
-144.57097943,172.17778910,-169.02020887,-166.87168443,-51.70429083,-75.76039478
19.80093978,-1.29767493,51.64859779,1.49888527,-0.79627382,1.03487823

>  <Name>
2oe8_lig

>  <RI>
0

>  <Rbt.Current_Directory>
/home/itssahil/PROJECTS/Mol_Feturizer/New_Systems/rnas/2oe8

>  <Rbt.Executable>
rbdock ($Id: //depot/dev/client3/rdock/2013.1/src/exe/rbdock.cxx#4 $)

>  <Rbt.Library>
libRbt.so (2013.1, Build901 2013/11/27)

>  <Rbt.Parameter_File>
/export/apps/rDock/src/rDock_2013.1_src/data/scripts/dock_solv.prm

>  <Rbt.Receptor>
prm/pocket_docking_2.prm

>  <SCORE>
-15.644

>  <SCORE.INTER>
-14.5175

>  <SCORE.INTER.CONST>
1

>  <SCORE.INTER.POLAR>
-1.82797

>  <SCORE.INTER.ROT>
6

>  <SCORE.INTER.SOLV>
18.5527

>  <SCORE.INTER.VDW>
-17.3693

>  <SCORE.INTER.norm>
-0.392364

>  <SCORE.INTRA>
-1.74772

>  <SCORE.INTRA.DIHEDRAL>
-8.92025

>  <SCORE.INTRA.DIHEDRAL.0>
16.4056

>  <SCORE.INTRA.POLAR>
0

>  <SCORE.INTRA.POLAR.0>
0

>  <SCORE.INTRA.REPUL>
0

>  <SCORE.INTRA.REPUL.0>
0

>  <SCORE.INTRA.SOLV>
1.25526

>  <SCORE.INTRA.SOLV.lig_0>
-90.9627

>  <SCORE.INTRA.VDW>
2.08478

>  <SCORE.INTRA.VDW.0>
-3.28744

>  <SCORE.INTRA.norm>
-0.0472356

>  <SCORE.RESTR>
0.621222

>  <SCORE.RESTR.CAVITY>
0.621222

>  <SCORE.RESTR.norm>
0.0167898

>  <SCORE.SYSTEM>
0

>  <SCORE.SYSTEM.CONST>
0

>  <SCORE.SYSTEM.DIHEDRAL>
0

>  <SCORE.SYSTEM.SOLV>
0

>  <SCORE.SYSTEM.norm>
0

>  <SCORE.heavy>
37

>  <SCORE.norm>
-0.42281

>  <RMSD>
1.998

$$$$
2oe8_lig
 OpenBabel11021811463D
libRbt.so/2013.1/901 2013/11/27
 37 40  0  0  0  0  0  0  0  0999 V2000
   20.5076    1.7143   53.5772 C   0  0  1  0  0  0  0  0  0  0  0  0
   19.4239    2.3133   52.6024 C   0  0  1  0  0  0  0  0  0  0  0  0
   18.7556    1.1668   51.8153 C   0  0  0  0  0  0  0  0  0  0  0  0
   19.9006    0.4593   51.0251 C   0  0  1  0  0  0  0  0  0  0  0  0
   21.0295   -0.1418   52.0101 C   0  0  1  0  0  0  0  0  0  0  0  0
   22.1853   -0.8327   51.2287 C   0  0  1  0  0  0  0  0  0  0  0  0
   21.5393   -1.9783   50.3471 C   0  0  1  0  0  0  0  0  0  0  0  0
   20.4205   -1.3525   49.4435 C   0  0  2  0  0  0  0  0  0  0  0  0
   22.3781   -4.1180   49.0764 C   0  0  0  0  0  0  0  0  0  0  0  0
   18.3846    3.0677   53.3725 N   0  0  0  0  0  0  0  0  0  0  0  0
   22.5945   -2.6880   49.5031 N   0  0  0  0  0  0  0  0  0  0  0  0
   19.9223    0.8277   54.5392 O   0  0  0  0  0  0  0  0  0  0  0  0
   21.5560    0.9555   52.8337 O   0  0  0  0  0  0  0  0  0  0  0  0
   19.3686   -0.6376   50.2246 O   0  0  0  0  0  0  0  0  0  0  0  0
   22.8171    0.1738   50.4359 O   0  0  0  0  0  0  0  0  0  0  0  0
   19.8136   -2.3595   48.7193 O   0  0  0  0  0  0  0  0  0  0  0  0
   18.5799   -2.8145   49.3005 C   0  0  2  0  0  0  0  0  0  0  0  0
   18.8040   -4.1416   50.0650 C   0  0  1  0  0  0  0  0  0  0  0  0
   19.1866   -5.3073   49.1022 C   0  0  2  0  0  0  0  0  0  0  0  0
   18.0578   -5.4941   48.0458 C   0  0  1  0  0  0  0  0  0  0  0  0
   17.9397   -4.1275   47.2509 C   0  0  1  0  0  0  0  0  0  0  0  0
   16.8462   -4.1776   46.1876 C   0  0  0  0  0  0  0  0  0  0  0  0
   18.4211   -6.6083   47.1243 N   0  0  0  0  0  0  0  0  0  0  0  0
   17.5817   -3.0334   48.2216 O   0  0  0  0  0  0  0  0  0  0  0  0
   19.8259   -3.8991   51.0508 O   0  0  0  0  0  0  0  0  0  0  0  0
   19.3256   -6.4877   49.8650 O   0  0  0  0  0  0  0  0  0  0  0  0
   16.9102   -3.0202   45.3968 O   0  0  0  0  0  0  0  0  0  0  0  0
   20.2460    1.1494   55.8762 C   0  0  1  0  0  0  0  0  0  0  0  0
   19.0022    0.8329   56.7676 C   0  0  1  0  0  0  0  0  0  0  0  0
   19.3343    1.2126   58.2402 C   0  0  2  0  0  0  0  0  0  0  0  0
   20.5732    0.4149   58.7525 C   0  0  1  0  0  0  0  0  0  0  0  0
   21.8306    0.7194   57.8520 C   0  0  0  0  0  0  0  0  0  0  0  0
   21.4906    0.3257   56.3548 C   0  0  2  0  0  0  0  0  0  0  0  0
   20.8736    0.7993   60.1595 N   0  0  0  0  0  0  0  0  0  0  0  0
   22.6773    0.6110   55.5173 N   0  0  0  0  0  0  0  0  0  0  0  0
   17.8646    1.5989   56.3292 O   0  0  0  0  0  0  0  0  0  0  0  0
   18.1940    0.9096   59.0269 O   0  0  0  0  0  0  0  0  0  0  0  0
  1  2  1  0  0  0  0
  1 12  1  1  0  0  0
  1 13  1  0  0  0  0
  2  3  1  0  0  0  0
  2 10  1  1  0  0  0
  4  3  1  1  0  0  0
  4  5  1  0  0  0  0
  4 14  1  0  0  0  0
  5  6  1  0  0  0  0
  5 13  1  6  0  0  0
  6  7  1  0  0  0  0
  6 15  1  6  0  0  0
  7  8  1  0  0  0  0
  7 11  1  6  0  0  0
  8 14  1  0  0  0  0
  8 16  1  1  0  0  0
  9 11  1  0  0  0  0
 17 16  1  6  0  0  0
 17 18  1  0  0  0  0
 17 24  1  0  0  0  0
 18 19  1  0  0  0  0
 18 25  1  1  0  0  0
 19 20  1  0  0  0  0
 19 26  1  1  0  0  0
 20 21  1  0  0  0  0
 20 23  1  6  0  0  0
 21 22  1  6  0  0  0
 21 24  1  0  0  0  0
 22 27  1  0  0  0  0
 28 12  1  6  0  0  0
 28 29  1  0  0  0  0
 28 33  1  0  0  0  0
 29 30  1  0  0  0  0
 29 36  1  6  0  0  0
 30 31  1  0  0  0  0
 30 37  1  1  0  0  0
 31 32  1  0  0  0  0
 31 34  1  1  0  0  0
 32 33  1  0  0  0  0
 33 35  1  6  0  0  0
M  END
>  <CHROM.1>
-126.65699469,153.26736444,98.23137063,-101.06630344,-171.84148002,144.46216430
19.82607455,-1.20580987,52.04917676,-1.38720669,-0.81171933,-1.96756676

>  <Name>
2oe8_lig

>  <RI>
0

>  <Rbt.Current_Directory>
/home/itssahil/PROJECTS/Mol_Feturizer/New_Systems/rnas/2oe8

>  <Rbt.Executable>
rbdock ($Id: //depot/dev/client3/rdock/2013.1/src/exe/rbdock.cxx#4 $)

>  <Rbt.Library>
libRbt.so (2013.1, Build901 2013/11/27)

>  <Rbt.Parameter_File>
/export/apps/rDock/src/rDock_2013.1_src/data/scripts/dock_solv.prm

>  <Rbt.Receptor>
prm/pocket_docking_3.prm

>  <SCORE>
-10.6548

>  <SCORE.INTER>
-16.771

>  <SCORE.INTER.CONST>
1

>  <SCORE.INTER.POLAR>
-1.72652

>  <SCORE.INTER.ROT>
6

>  <SCORE.INTER.SOLV>
13.2309

>  <SCORE.INTER.VDW>
-17.4359

>  <SCORE.INTER.norm>
-0.453269

>  <SCORE.INTRA>
5.57461

>  <SCORE.INTRA.DIHEDRAL>
6.57223

>  <SCORE.INTRA.DIHEDRAL.0>
16.4056

>  <SCORE.INTRA.POLAR>
0

>  <SCORE.INTRA.POLAR.0>
0

>  <SCORE.INTRA.REPUL>
0

>  <SCORE.INTRA.REPUL.0>
0

>  <SCORE.INTRA.SOLV>
0.910568

>  <SCORE.INTRA.SOLV.lig_0>
-90.9627

>  <SCORE.INTRA.VDW>
1.83321

>  <SCORE.INTRA.VDW.0>
-3.28744

>  <SCORE.INTRA.norm>
0.150665

>  <SCORE.RESTR>
0.541586

>  <SCORE.RESTR.CAVITY>
0.541586

>  <SCORE.RESTR.norm>
0.0146375

>  <SCORE.SYSTEM>
0

>  <SCORE.SYSTEM.CONST>
0

>  <SCORE.SYSTEM.DIHEDRAL>
0

>  <SCORE.SYSTEM.SOLV>
0

>  <SCORE.SYSTEM.norm>
0

>  <SCORE.heavy>
37

>  <SCORE.norm>
-0.287967

>  <RMSD>
1.999

$$$$
2oe8_lig
 OpenBabel11021811463D
libRbt.so/2013.1/901 2013/11/27
 37 40  0  0  0  0  0  0  0  0999 V2000
   19.9682    1.2685   53.6392 C   0  0  1  0  0  0  0  0  0  0  0  0
   19.5627    2.0378   52.3249 C   0  0  1  0  0  0  0  0  0  0  0  0
   18.5591    1.1838   51.5224 C   0  0  0  0  0  0  0  0  0  0  0  0
   19.2941   -0.1531   51.1936 C   0  0  1  0  0  0  0  0  0  0  0  0
   19.7343   -0.9429   52.5310 C   0  0  1  0  0  0  0  0  0  0  0  0
   20.4853   -2.2687   52.2116 C   0  0  1  0  0  0  0  0  0  0  0  0
   19.5186   -3.1564   51.3259 C   0  0  1  0  0  0  0  0  0  0  0  0
   19.0844   -2.3299   50.0656 C   0  0  2  0  0  0  0  0  0  0  0  0
   19.3495   -5.6980   50.6873 C   0  0  0  0  0  0  0  0  0  0  0  0
   18.9439    3.3596   52.6600 N   0  0  0  0  0  0  0  0  0  0  0  0
   20.1880   -4.4666   50.9200 N   0  0  0  0  0  0  0  0  0  0  0  0
   18.8370    1.0383   54.4885 O   0  0  0  0  0  0  0  0  0  0  0  0
   20.5873   -0.0545   53.3326 O   0  0  0  0  0  0  0  0  0  0  0  0
   18.4323   -1.0328   50.4122 O   0  0  0  0  0  0  0  0  0  0  0  0
   21.6856   -1.9161   51.5218 O   0  0  0  0  0  0  0  0  0  0  0  0
   18.1924   -3.0789   49.3238 O   0  0  0  0  0  0  0  0  0  0  0  0
   18.0265   -2.5988   47.9788 C   0  0  2  0  0  0  0  0  0  0  0  0
   17.3261   -3.6705   47.1090 C   0  0  1  0  0  0  0  0  0  0  0  0
   18.2173   -4.9363   46.9198 C   0  0  2  0  0  0  0  0  0  0  0  0
   19.5654   -4.5226   46.2591 C   0  0  1  0  0  0  0  0  0  0  0  0
   20.2614   -3.4895   47.2396 C   0  0  1  0  0  0  0  0  0  0  0  0
   21.5962   -2.9921   46.6919 C   0  0  0  0  0  0  0  0  0  0  0  0
   20.4192   -5.7311   46.0769 N   0  0  0  0  0  0  0  0  0  0  0  0
   19.3607   -2.2935   47.3999 O   0  0  0  0  0  0  0  0  0  0  0  0
   16.0723   -3.9840   47.7451 O   0  0  0  0  0  0  0  0  0  0  0  0
   17.5327   -5.8416   46.0796 O   0  0  0  0  0  0  0  0  0  0  0  0
   22.1480   -2.0587   47.5826 O   0  0  0  0  0  0  0  0  0  0  0  0
   19.1056    1.2496   55.8592 C   0  0  1  0  0  0  0  0  0  0  0  0
   17.7877    1.7350   56.5443 C   0  0  1  0  0  0  0  0  0  0  0  0
   18.0774    2.0022   58.0501 C   0  0  2  0  0  0  0  0  0  0  0  0
   18.5976    0.7100   58.7524 C   0  0  1  0  0  0  0  0  0  0  0  0
   19.9215    0.2064   58.0605 C   0  0  0  0  0  0  0  0  0  0  0  0
   19.6208   -0.0704   56.5292 C   0  0  2  0  0  0  0  0  0  0  0  0
   18.8722    0.9924   60.1885 N   0  0  0  0  0  0  0  0  0  0  0  0
   20.8674   -0.5463   55.8884 N   0  0  0  0  0  0  0  0  0  0  0  0
   17.3241    2.9524   55.9310 O   0  0  0  0  0  0  0  0  0  0  0  0
   16.8660    2.4337   58.6480 O   0  0  0  0  0  0  0  0  0  0  0  0
  1  2  1  0  0  0  0
  1 12  1  1  0  0  0
  1 13  1  0  0  0  0
  2  3  1  0  0  0  0
  2 10  1  1  0  0  0
  4  3  1  1  0  0  0
  4  5  1  0  0  0  0
  4 14  1  0  0  0  0
  5  6  1  0  0  0  0
  5 13  1  1  0  0  0
  6  7  1  0  0  0  0
  6 15  1  6  0  0  0
  7  8  1  0  0  0  0
  7 11  1  6  0  0  0
  8 14  1  0  0  0  0
  8 16  1  1  0  0  0
  9 11  1  0  0  0  0
 17 16  1  1  0  0  0
 17 18  1  0  0  0  0
 17 24  1  0  0  0  0
 18 19  1  0  0  0  0
 18 25  1  1  0  0  0
 19 20  1  0  0  0  0
 19 26  1  6  0  0  0
 20 21  1  0  0  0  0
 20 23  1  1  0  0  0
 21 22  1  6  0  0  0
 21 24  1  0  0  0  0
 22 27  1  0  0  0  0
 28 12  1  6  0  0  0
 28 29  1  0  0  0  0
 28 33  1  0  0  0  0
 29 30  1  0  0  0  0
 29 36  1  6  0  0  0
 30 31  1  0  0  0  0
 30 37  1  1  0  0  0
 31 32  1  0  0  0  0
 31 34  1  1  0  0  0
 32 33  1  0  0  0  0
 33 35  1  6  0  0  0
M  END
>  <CHROM.1>
-138.43722072,150.47328057,-163.11344357,165.12907450,178.52889576,149.58597928
19.17767463,-1.27398193,51.84520379,1.70414079,-1.24366337,1.17703597

>  <Name>
2oe8_lig

>  <RI>
0

>  <Rbt.Current_Directory>
/home/itssahil/PROJECTS/Mol_Feturizer/New_Systems/rnas/2oe8

>  <Rbt.Executable>
rbdock ($Id: //depot/dev/client3/rdock/2013.1/src/exe/rbdock.cxx#4 $)

>  <Rbt.Library>
libRbt.so (2013.1, Build901 2013/11/27)

>  <Rbt.Parameter_File>
/export/apps/rDock/src/rDock_2013.1_src/data/scripts/dock_solv.prm

>  <Rbt.Receptor>
prm/pocket_docking_7.prm

>  <SCORE>
-23.2907

>  <SCORE.INTER>
-21.1635

>  <SCORE.INTER.CONST>
1

>  <SCORE.INTER.POLAR>
-1.44231

>  <SCORE.INTER.ROT>
6

>  <SCORE.INTER.SOLV>
15.9038

>  <SCORE.INTER.VDW>
-22.2026

>  <SCORE.INTER.norm>
-0.571986

>  <SCORE.INTRA>
-2.12721

>  <SCORE.INTRA.DIHEDRAL>
-4.12235

>  <SCORE.INTRA.DIHEDRAL.0>
16.4056

>  <SCORE.INTRA.POLAR>
0

>  <SCORE.INTRA.POLAR.0>
0

>  <SCORE.INTRA.REPUL>
0.0194363

>  <SCORE.INTRA.REPUL.0>
0

>  <SCORE.INTRA.SOLV>
0.038762

>  <SCORE.INTRA.SOLV.lig_0>
-90.9627

>  <SCORE.INTRA.VDW>
-0.182594

>  <SCORE.INTRA.VDW.0>
-3.28744

>  <SCORE.INTRA.norm>
-0.0574921

>  <SCORE.RESTR>
0

>  <SCORE.RESTR.CAVITY>
0

>  <SCORE.RESTR.norm>
0

>  <SCORE.SYSTEM>
0

>  <SCORE.SYSTEM.CONST>
0

>  <SCORE.SYSTEM.DIHEDRAL>
0

>  <SCORE.SYSTEM.SOLV>
0

>  <SCORE.SYSTEM.norm>
0

>  <SCORE.heavy>
37

>  <SCORE.norm>
-0.629479

>  <RMSD>
2.011

$$$$
2oe8_lig
 OpenBabel11021811463D
libRbt.so/2013.1/901 2013/11/27
 37 40  0  0  0  0  0  0  0  0999 V2000
   20.0460    1.2251   53.6740 C   0  0  1  0  0  0  0  0  0  0  0  0
   19.6756    2.0020   52.3538 C   0  0  1  0  0  0  0  0  0  0  0  0
   18.6596    1.1725   51.5412 C   0  0  0  0  0  0  0  0  0  0  0  0
   19.3637   -0.1836   51.2232 C   0  0  1  0  0  0  0  0  0  0  0  0
   19.7680   -0.9817   52.5669 C   0  0  1  0  0  0  0  0  0  0  0  0
   20.4882   -2.3271   52.2585 C   0  0  1  0  0  0  0  0  0  0  0  0
   19.5093   -3.1913   51.3631 C   0  0  1  0  0  0  0  0  0  0  0  0
   19.1110   -2.3565   50.0966 C   0  0  2  0  0  0  0  0  0  0  0  0
   19.2840   -5.7343   50.7475 C   0  0  0  0  0  0  0  0  0  0  0  0
   19.0872    3.3399   52.6795 N   0  0  0  0  0  0  0  0  0  0  0  0
   20.1493   -4.5191   50.9672 N   0  0  0  0  0  0  0  0  0  0  0  0
   18.8995    1.0258   54.5106 O   0  0  0  0  0  0  0  0  0  0  0  0
   20.6343   -0.1140   53.3769 O   0  0  0  0  0  0  0  0  0  0  0  0
   18.4886   -1.0423   50.4334 O   0  0  0  0  0  0  0  0  0  0  0  0
   21.7051   -2.0069   51.5820 O   0  0  0  0  0  0  0  0  0  0  0  0
   18.2086   -3.0838   49.3457 O   0  0  0  0  0  0  0  0  0  0  0  0
   18.0413   -2.5784   48.0102 C   0  0  2  0  0  0  0  0  0  0  0  0
   17.3547   -3.6396   47.1169 C   0  0  1  0  0  0  0  0  0  0  0  0
   18.2597   -4.8919   46.9049 C   0  0  2  0  0  0  0  0  0  0  0  0
   19.6052   -4.4508   46.2566 C   0  0  1  0  0  0  0  0  0  0  0  0
   20.2876   -3.4304   47.2598 C   0  0  1  0  0  0  0  0  0  0  0  0
   21.6185   -2.9081   46.7262 C   0  0  0  0  0  0  0  0  0  0  0  0
   20.4721   -5.6464   46.0526 N   0  0  0  0  0  0  0  0  0  0  0  0
   19.3738   -2.2474   47.4415 O   0  0  0  0  0  0  0  0  0  0  0  0
   16.1025   -3.9790   47.7429 O   0  0  0  0  0  0  0  0  0  0  0  0
   17.5869   -5.7872   46.0446 O   0  0  0  0  0  0  0  0  0  0  0  0
   22.1655   -1.9989   47.6445 O   0  0  0  0  0  0  0  0  0  0  0  0
   19.1626    1.2129   55.8859 C   0  0  1  0  0  0  0  0  0  0  0  0
   17.8436    1.6923   56.5729 C   0  0  1  0  0  0  0  0  0  0  0  0
   18.1272    1.9329   58.0844 C   0  0  2  0  0  0  0  0  0  0  0  0
   18.6388    0.6269   58.7671 C   0  0  1  0  0  0  0  0  0  0  0  0
   19.9637    0.1293   58.0731 C   0  0  0  0  0  0  0  0  0  0  0  0
   19.6691   -0.1204   56.5359 C   0  0  2  0  0  0  0  0  0  0  0  0
   18.9078    0.8840   60.2091 N   0  0  0  0  0  0  0  0  0  0  0  0
   20.9167   -0.5908   55.8930 N   0  0  0  0  0  0  0  0  0  0  0  0
   17.3879    2.9218   55.9781 O   0  0  0  0  0  0  0  0  0  0  0  0
   16.9149    2.3595   58.6838 O   0  0  0  0  0  0  0  0  0  0  0  0
  1  2  1  0  0  0  0
  1 12  1  1  0  0  0
  1 13  1  0  0  0  0
  2  3  1  0  0  0  0
  2 10  1  1  0  0  0
  4  3  1  1  0  0  0
  4  5  1  0  0  0  0
  4 14  1  0  0  0  0
  5  6  1  0  0  0  0
  5 13  1  1  0  0  0
  6  7  1  0  0  0  0
  6 15  1  6  0  0  0
  7  8  1  0  0  0  0
  7 11  1  6  0  0  0
  8 14  1  0  0  0  0
  8 16  1  1  0  0  0
  9 11  1  0  0  0  0
 17 16  1  1  0  0  0
 17 18  1  0  0  0  0
 17 24  1  0  0  0  0
 18 19  1  0  0  0  0
 18 25  1  1  0  0  0
 19 20  1  0  0  0  0
 19 26  1  6  0  0  0
 20 21  1  0  0  0  0
 20 23  1  1  0  0  0
 21 22  1  6  0  0  0
 21 24  1  0  0  0  0
 22 27  1  0  0  0  0
 28 12  1  6  0  0  0
 28 29  1  0  0  0  0
 28 33  1  0  0  0  0
 29 30  1  0  0  0  0
 29 36  1  6  0  0  0
 30 31  1  0  0  0  0
 30 37  1  1  0  0  0
 31 32  1  0  0  0  0
 31 34  1  1  0  0  0
 32 33  1  0  0  0  0
 33 35  1  6  0  0  0
M  END
>  <CHROM.1>
-139.34991843,149.53998384,-164.83555094,163.89730788,179.21814028,151.40712981
19.21760444,-1.29050487,51.87008360,1.79208645,-1.39096022,1.27714866

>  <Name>
2oe8_lig

>  <RI>
0

>  <Rbt.Current_Directory>
/home/itssahil/PROJECTS/Mol_Feturizer/New_Systems/rnas/2oe8

>  <Rbt.Executable>
rbdock ($Id: //depot/dev/client3/rdock/2013.1/src/exe/rbdock.cxx#4 $)

>  <Rbt.Library>
libRbt.so (2013.1, Build901 2013/11/27)

>  <Rbt.Parameter_File>
/export/apps/rDock/src/rDock_2013.1_src/data/scripts/dock_solv.prm

>  <Rbt.Receptor>
prm/pocket_docking_5.prm

>  <SCORE>
-23.3343

>  <SCORE.INTER>
-21.1286

>  <SCORE.INTER.CONST>
1

>  <SCORE.INTER.POLAR>
-1.46933

>  <SCORE.INTER.ROT>
6

>  <SCORE.INTER.SOLV>
16.0797

>  <SCORE.INTER.VDW>
-22.1478

>  <SCORE.INTER.norm>
-0.571043

>  <SCORE.INTRA>
-2.20577

>  <SCORE.INTRA.DIHEDRAL>
-4.65463

>  <SCORE.INTRA.DIHEDRAL.0>
16.4056

>  <SCORE.INTRA.POLAR>
0

>  <SCORE.INTRA.POLAR.0>
0

>  <SCORE.INTRA.REPUL>
0.0191548

>  <SCORE.INTRA.REPUL.0>
0

>  <SCORE.INTRA.SOLV>
-0.0325658

>  <SCORE.INTRA.SOLV.lig_0>
-90.9627

>  <SCORE.INTRA.VDW>
0.0420553

>  <SCORE.INTRA.VDW.0>
-3.28744

>  <SCORE.INTRA.norm>
-0.0596154

>  <SCORE.RESTR>
0

>  <SCORE.RESTR.CAVITY>
0

>  <SCORE.RESTR.norm>
0

>  <SCORE.SYSTEM>
0

>  <SCORE.SYSTEM.CONST>
0

>  <SCORE.SYSTEM.DIHEDRAL>
0

>  <SCORE.SYSTEM.SOLV>
0

>  <SCORE.SYSTEM.norm>
0

>  <SCORE.heavy>
37

>  <SCORE.norm>
-0.630658

>  <RMSD>
2.017

$$$$
2oe8_lig
 OpenBabel11021811463D
libRbt.so/2013.1/901 2013/11/27
 37 40  0  0  0  0  0  0  0  0999 V2000
   19.6582    2.1404   53.8579 C   0  0  1  0  0  0  0  0  0  0  0  0
   19.0708    2.7210   52.5157 C   0  0  1  0  0  0  0  0  0  0  0  0
   18.3741    1.5894   51.7316 C   0  0  0  0  0  0  0  0  0  0  0  0
   19.4722    0.5159   51.4531 C   0  0  1  0  0  0  0  0  0  0  0  0
   20.0983   -0.0734   52.8194 C   0  0  1  0  0  0  0  0  0  0  0  0
   21.2083   -1.1314   52.5502 C   0  0  1  0  0  0  0  0  0  0  0  0
   20.5582   -2.2867   51.6844 C   0  0  1  0  0  0  0  0  0  0  0  0
   19.9257   -1.6583   50.3941 C   0  0  2  0  0  0  0  0  0  0  0  0
   22.4827   -3.9244   52.3992 C   0  0  0  0  0  0  0  0  0  0  0  0
   18.0882    3.8140   52.8020 N   0  0  0  0  0  0  0  0  0  0  0  0
   21.5872   -3.3559   51.3274 N   0  0  0  0  0  0  0  0  0  0  0  0
   18.6274    1.6146   54.7034 O   0  0  0  0  0  0  0  0  0  0  0  0
   20.6410    1.0471   53.6001 O   0  0  0  0  0  0  0  0  0  0  0  0
   18.9182   -0.5983   50.6924 O   0  0  0  0  0  0  0  0  0  0  0  0
   22.2666   -0.4639   51.8609 O   0  0  0  0  0  0  0  0  0  0  0  0
   19.3041   -2.6553   49.6683 O   0  0  0  0  0  0  0  0  0  0  0  0
   18.8891   -2.2317   48.3587 C   0  0  2  0  0  0  0  0  0  0  0  0
   18.2763   -3.4203   47.5793 C   0  0  1  0  0  0  0  0  0  0  0  0
   19.3384   -4.5196   47.2699 C   0  0  2  0  0  0  0  0  0  0  0  0
   20.5013   -3.8940   46.4444 C   0  0  1  0  0  0  0  0  0  0  0  0
   21.1305   -2.7424   47.3338 C   0  0  1  0  0  0  0  0  0  0  0  0
   22.2805   -2.0348   46.6227 C   0  0  0  0  0  0  0  0  0  0  0  0
   21.5180   -4.9432   46.1471 N   0  0  0  0  0  0  0  0  0  0  0  0
   20.0673   -1.7140   47.6154 O   0  0  0  0  0  0  0  0  0  0  0  0
   17.1854   -3.9315   48.3689 O   0  0  0  0  0  0  0  0  0  0  0  0
   18.7164   -5.5411   46.5189 O   0  0  0  0  0  0  0  0  0  0  0  0
   22.9194   -1.1646   47.5192 O   0  0  0  0  0  0  0  0  0  0  0  0
   18.9238    1.7061   56.0816 C   0  0  1  0  0  0  0  0  0  0  0  0
   17.5899    1.9765   56.8494 C   0  0  1  0  0  0  0  0  0  0  0  0
   17.9065    2.1111   58.3674 C   0  0  2  0  0  0  0  0  0  0  0  0
   18.5796    0.8128   58.9106 C   0  0  1  0  0  0  0  0  0  0  0  0
   19.9210    0.5258   58.1340 C   0  0  0  0  0  0  0  0  0  0  0  0
   19.5934    0.3832   56.5898 C   0  0  2  0  0  0  0  0  0  0  0  0
   18.8772    0.9684   60.3614 N   0  0  0  0  0  0  0  0  0  0  0  0
   20.8571    0.1101   55.8689 N   0  0  0  0  0  0  0  0  0  0  0  0
   16.9839    3.1973   56.3850 O   0  0  0  0  0  0  0  0  0  0  0  0
   16.6808    2.3485   59.0399 O   0  0  0  0  0  0  0  0  0  0  0  0
  1  2  1  0  0  0  0
  1 12  1  1  0  0  0
  1 13  1  0  0  0  0
  2  3  1  0  0  0  0
  2 10  1  1  0  0  0
  4  3  1  1  0  0  0
  4  5  1  0  0  0  0
  4 14  1  0  0  0  0
  5  6  1  0  0  0  0
  5 13  1  6  0  0  0
  6  7  1  0  0  0  0
  6 15  1  6  0  0  0
  7  8  1  0  0  0  0
  7 11  1  6  0  0  0
  8 14  1  0  0  0  0
  8 16  1  1  0  0  0
  9 11  1  0  0  0  0
 17 16  1  1  0  0  0
 17 18  1  0  0  0  0
 17 24  1  0  0  0  0
 18 19  1  0  0  0  0
 18 25  1  1  0  0  0
 19 20  1  0  0  0  0
 19 26  1  6  0  0  0
 20 21  1  0  0  0  0
 20 23  1  1  0  0  0
 21 22  1  6  0  0  0
 21 24  1  0  0  0  0
 22 27  1  0  0  0  0
 28 12  1  6  0  0  0
 28 29  1  0  0  0  0
 28 33  1  0  0  0  0
 29 30  1  0  0  0  0
 29 36  1  6  0  0  0
 30 31  1  0  0  0  0
 30 37  1  1  0  0  0
 31 32  1  0  0  0  0
 31 34  1  1  0  0  0
 32 33  1  0  0  0  0
 33 35  1  6  0  0  0
M  END
>  <CHROM.1>
-149.98113158,48.27400112,-170.01129372,176.77848914,-171.59578412,145.27434302
19.64640741,-0.67921632,52.13999690,1.81330807,-0.83663539,1.26269164

>  <Name>
2oe8_lig

>  <RI>
0

>  <Rbt.Current_Directory>
/home/itssahil/PROJECTS/Mol_Feturizer/New_Systems/rnas/2oe8

>  <Rbt.Executable>
rbdock ($Id: //depot/dev/client3/rdock/2013.1/src/exe/rbdock.cxx#4 $)

>  <Rbt.Library>
libRbt.so (2013.1, Build901 2013/11/27)

>  <Rbt.Parameter_File>
/export/apps/rDock/src/rDock_2013.1_src/data/scripts/dock_solv.prm

>  <Rbt.Receptor>
prm/pocket_docking_7.prm

>  <SCORE>
-19.7415

>  <SCORE.INTER>
-17.2013

>  <SCORE.INTER.CONST>
1

>  <SCORE.INTER.POLAR>
-1.39791

>  <SCORE.INTER.ROT>
6

>  <SCORE.INTER.SOLV>
16.3781

>  <SCORE.INTER.VDW>
-19.8673

>  <SCORE.INTER.norm>
-0.464901

>  <SCORE.INTRA>
-2.54016

>  <SCORE.INTRA.DIHEDRAL>
-7.39523

>  <SCORE.INTRA.DIHEDRAL.0>
16.4056

>  <SCORE.INTRA.POLAR>
0

>  <SCORE.INTRA.POLAR.0>
0

>  <SCORE.INTRA.REPUL>
0

>  <SCORE.INTRA.REPUL.0>
0

>  <SCORE.INTRA.SOLV>
0.0595039

>  <SCORE.INTRA.SOLV.lig_0>
-90.9627

>  <SCORE.INTRA.VDW>
1.1277

>  <SCORE.INTRA.VDW.0>
-3.28744

>  <SCORE.INTRA.norm>
-0.0686531

>  <SCORE.RESTR>
0

>  <SCORE.RESTR.CAVITY>
0

>  <SCORE.RESTR.norm>
0

>  <SCORE.SYSTEM>
0

>  <SCORE.SYSTEM.CONST>
0

>  <SCORE.SYSTEM.DIHEDRAL>
0

>  <SCORE.SYSTEM.SOLV>
0

>  <SCORE.SYSTEM.norm>
0

>  <SCORE.heavy>
37

>  <SCORE.norm>
-0.533554

>  <RMSD>
2.040

$$$$
2oe8_lig
 OpenBabel11021811463D
libRbt.so/2013.1/901 2013/11/27
 37 40  0  0  0  0  0  0  0  0999 V2000
   19.7093    2.0912   53.8428 C   0  0  1  0  0  0  0  0  0  0  0  0
   19.1396    2.6761   52.4949 C   0  0  1  0  0  0  0  0  0  0  0  0
   18.4281    1.5533   51.7115 C   0  0  0  0  0  0  0  0  0  0  0  0
   19.5093    0.4601   51.4437 C   0  0  1  0  0  0  0  0  0  0  0  0
   20.1174   -0.1341   52.8159 C   0  0  1  0  0  0  0  0  0  0  0  0
   21.2107   -1.2120   52.5574 C   0  0  1  0  0  0  0  0  0  0  0  0
   20.5458   -2.3597   51.6927 C   0  0  1  0  0  0  0  0  0  0  0  0
   19.9315   -1.7260   50.3961 C   0  0  2  0  0  0  0  0  0  0  0  0
   22.6074   -3.8464   52.3532 C   0  0  0  0  0  0  0  0  0  0  0  0
   18.1742    3.7869   52.7711 N   0  0  0  0  0  0  0  0  0  0  0  0
   21.5584   -3.4478   51.3460 N   0  0  0  0  0  0  0  0  0  0  0  0
   18.6649    1.5866   54.6845 O   0  0  0  0  0  0  0  0  0  0  0  0
   20.6747    0.9802   53.5951 O   0  0  0  0  0  0  0  0  0  0  0  0
   18.9406   -0.6477   50.6843 O   0  0  0  0  0  0  0  0  0  0  0  0
   22.2841   -0.5656   51.8715 O   0  0  0  0  0  0  0  0  0  0  0  0
   19.2971   -2.7153   49.6709 O   0  0  0  0  0  0  0  0  0  0  0  0
   18.8869   -2.2868   48.3613 C   0  0  2  0  0  0  0  0  0  0  0  0
   18.3077   -3.4798   47.5633 C   0  0  1  0  0  0  0  0  0  0  0  0
   19.3961   -4.5530   47.2538 C   0  0  2  0  0  0  0  0  0  0  0  0
   20.5540   -3.8942   46.4473 C   0  0  1  0  0  0  0  0  0  0  0  0
   21.1491   -2.7389   47.3552 C   0  0  1  0  0  0  0  0  0  0  0  0
   22.2912   -1.9997   46.6637 C   0  0  0  0  0  0  0  0  0  0  0  0
   21.5958   -4.9183   46.1500 N   0  0  0  0  0  0  0  0  0  0  0  0
   20.0613   -1.7363   47.6361 O   0  0  0  0  0  0  0  0  0  0  0  0
   17.2198   -4.0224   48.3359 O   0  0  0  0  0  0  0  0  0  0  0  0
   18.8040   -5.5795   46.4858 O   0  0  0  0  0  0  0  0  0  0  0  0
   22.8759   -1.0963   47.5642 O   0  0  0  0  0  0  0  0  0  0  0  0
   18.9417    1.7072   56.0646 C   0  0  1  0  0  0  0  0  0  0  0  0
   17.5965    1.9891   56.8079 C   0  0  1  0  0  0  0  0  0  0  0  0
   17.8915    2.1557   58.3272 C   0  0  2  0  0  0  0  0  0  0  0  0
   18.5605    0.8708   58.9061 C   0  0  1  0  0  0  0  0  0  0  0  0
   19.9134    0.5720   58.1543 C   0  0  0  0  0  0  0  0  0  0  0  0
   19.6078    0.3970   56.6090 C   0  0  2  0  0  0  0  0  0  0  0  0
   18.8373    1.0569   60.3575 N   0  0  0  0  0  0  0  0  0  0  0  0
   20.8822    0.1131   55.9115 N   0  0  0  0  0  0  0  0  0  0  0  0
   16.9938    3.1983   56.3103 O   0  0  0  0  0  0  0  0  0  0  0  0
   16.6559    2.4031   58.9776 O   0  0  0  0  0  0  0  0  0  0  0  0
  1  2  1  0  0  0  0
  1 12  1  1  0  0  0
  1 13  1  0  0  0  0
  2  3  1  0  0  0  0
  2 10  1  1  0  0  0
  4  3  1  1  0  0  0
  4  5  1  0  0  0  0
  4 14  1  0  0  0  0
  5  6  1  0  0  0  0
  5 13  1  6  0  0  0
  6  7  1  0  0  0  0
  6 15  1  6  0  0  0
  7  8  1  0  0  0  0
  7 11  1  6  0  0  0
  8 14  1  0  0  0  0
  8 16  1  1  0  0  0
  9 11  1  0  0  0  0
 17 16  1  1  0  0  0
 17 18  1  0  0  0  0
 17 24  1  0  0  0  0
 18 19  1  0  0  0  0
 18 25  1  1  0  0  0
 19 20  1  0  0  0  0
 19 26  1  6  0  0  0
 20 21  1  0  0  0  0
 20 23  1  1  0  0  0
 21 22  1  6  0  0  0
 21 24  1  0  0  0  0
 22 27  1  0  0  0  0
 28 12  1  6  0  0  0
 28 29  1  0  0  0  0
 28 33  1  0  0  0  0
 29 30  1  0  0  0  0
 29 36  1  6  0  0  0
 30 31  1  0  0  0  0
 30 37  1  1  0  0  0
 31 32  1  0  0  0  0
 31 34  1  1  0  0  0
 32 33  1  0  0  0  0
 33 35  1  6  0  0  0
M  END
>  <CHROM.1>
-148.59645833,36.95449556,-170.50453660,174.64941238,-173.36285935,145.61212900
19.66796662,-0.69710857,52.13279567,1.80955085,-0.81520637,1.25193711

>  <Name>
2oe8_lig

>  <RI>
0

>  <Rbt.Current_Directory>
/home/itssahil/PROJECTS/Mol_Feturizer/New_Systems/rnas/2oe8

>  <Rbt.Executable>
rbdock ($Id: //depot/dev/client3/rdock/2013.1/src/exe/rbdock.cxx#4 $)

>  <Rbt.Library>
libRbt.so (2013.1, Build901 2013/11/27)

>  <Rbt.Parameter_File>
/export/apps/rDock/src/rDock_2013.1_src/data/scripts/dock_solv.prm

>  <Rbt.Receptor>
prm/pocket_docking_8.prm

>  <SCORE>
-19.9256

>  <SCORE.INTER>
-17.9756

>  <SCORE.INTER.CONST>
1

>  <SCORE.INTER.POLAR>
-1.38363

>  <SCORE.INTER.ROT>
6

>  <SCORE.INTER.SOLV>
16.0844

>  <SCORE.INTER.VDW>
-20.3331

>  <SCORE.INTER.norm>
-0.485826

>  <SCORE.INTRA>
-1.95003

>  <SCORE.INTRA.DIHEDRAL>
-6.97116

>  <SCORE.INTRA.DIHEDRAL.0>
16.4056

>  <SCORE.INTRA.POLAR>
0

>  <SCORE.INTRA.POLAR.0>
0

>  <SCORE.INTRA.REPUL>
0.00035514

>  <SCORE.INTRA.REPUL.0>
0

>  <SCORE.INTRA.SOLV>
0.0406346

>  <SCORE.INTRA.SOLV.lig_0>
-90.9627

>  <SCORE.INTRA.VDW>
1.51346

>  <SCORE.INTRA.VDW.0>
-3.28744

>  <SCORE.INTRA.norm>
-0.0527035

>  <SCORE.RESTR>
0

>  <SCORE.RESTR.CAVITY>
0

>  <SCORE.RESTR.norm>
0

>  <SCORE.SYSTEM>
0

>  <SCORE.SYSTEM.CONST>
0

>  <SCORE.SYSTEM.DIHEDRAL>
0

>  <SCORE.SYSTEM.SOLV>
0

>  <SCORE.SYSTEM.norm>
0

>  <SCORE.heavy>
37

>  <SCORE.norm>
-0.53853

>  <RMSD>
2.046

$$$$
2oe8_lig
 OpenBabel11021811463D
libRbt.so/2013.1/901 2013/11/27
 37 40  0  0  0  0  0  0  0  0999 V2000
   21.7181    1.1994   52.1003 C   0  0  1  0  0  0  0  0  0  0  0  0
   20.5076    1.8532   51.3318 C   0  0  1  0  0  0  0  0  0  0  0  0
   19.5193    0.7491   50.9020 C   0  0  0  0  0  0  0  0  0  0  0  0
   20.3242   -0.2163   49.9768 C   0  0  1  0  0  0  0  0  0  0  0  0
   21.5804   -0.8783   50.7448 C   0  0  1  0  0  0  0  0  0  0  0  0
   22.4001   -1.8281   49.8230 C   0  0  1  0  0  0  0  0  0  0  0  0
   21.4091   -2.9454   49.2971 C   0  0  1  0  0  0  0  0  0  0  0  0
   20.1866   -2.2518   48.6012 C   0  0  2  0  0  0  0  0  0  0  0  0
   22.8613   -5.0949   48.8877 C   0  0  0  0  0  0  0  0  0  0  0  0
   19.8049    2.8454   52.2059 N   0  0  0  0  0  0  0  0  0  0  0  0
   22.1140   -3.9045   48.3417 N   0  0  0  0  0  0  0  0  0  0  0  0
   21.2890    0.5304   53.2929 O   0  0  0  0  0  0  0  0  0  0  0  0
   22.4358    0.2045   51.2503 O   0  0  0  0  0  0  0  0  0  0  0  0
   19.4695   -1.2952   49.4948 O   0  0  0  0  0  0  0  0  0  0  0  0
   22.9324   -1.0302   48.7643 O   0  0  0  0  0  0  0  0  0  0  0  0
   19.2910   -3.2221   48.1970 O   0  0  0  0  0  0  0  0  0  0  0  0
   18.4397   -2.7974   47.1191 C   0  0  2  0  0  0  0  0  0  0  0  0
   17.2726   -3.7966   46.9314 C   0  0  1  0  0  0  0  0  0  0  0  0
   17.7761   -5.1916   46.4491 C   0  0  2  0  0  0  0  0  0  0  0  0
   18.5458   -5.0248   45.1056 C   0  0  1  0  0  0  0  0  0  0  0  0
   19.7682   -4.0568   45.3919 C   0  0  1  0  0  0  0  0  0  0  0  0
   20.5989   -3.7992   44.1379 C   0  0  0  0  0  0  0  0  0  0  0  0
   19.0280   -6.3572   44.6422 N   0  0  0  0  0  0  0  0  0  0  0  0
   19.2340   -2.7309   45.8649 O   0  0  0  0  0  0  0  0  0  0  0  0
   16.5757   -3.8803   48.1893 O   0  0  0  0  0  0  0  0  0  0  0  0
   16.6544   -6.0274   46.2552 O   0  0  0  0  0  0  0  0  0  0  0  0
   21.8559   -3.2952   44.5055 O   0  0  0  0  0  0  0  0  0  0  0  0
   20.8285    1.4077   54.2999 C   0  0  1  0  0  0  0  0  0  0  0  0
   19.5449    0.7854   54.9377 C   0  0  1  0  0  0  0  0  0  0  0  0
   19.0081    1.7576   56.0285 C   0  0  2  0  0  0  0  0  0  0  0  0
   20.0847    2.0031   57.1304 C   0  0  1  0  0  0  0  0  0  0  0  0
   21.3880    2.6207   56.4943 C   0  0  0  0  0  0  0  0  0  0  0  0
   21.9347    1.6250   55.3889 C   0  0  2  0  0  0  0  0  0  0  0  0
   19.5500    2.9393   58.1578 N   0  0  0  0  0  0  0  0  0  0  0  0
   23.1599    2.2105   54.7997 N   0  0  0  0  0  0  0  0  0  0  0  0
   18.5291    0.5964   53.9349 O   0  0  0  0  0  0  0  0  0  0  0  0
   17.8500    1.1669   56.5946 O   0  0  0  0  0  0  0  0  0  0  0  0
  1  2  1  0  0  0  0
  1 12  1  1  0  0  0
  1 13  1  0  0  0  0
  2  3  1  0  0  0  0
  2 10  1  1  0  0  0
  4  3  1  1  0  0  0
  4  5  1  0  0  0  0
  4 14  1  0  0  0  0
  5  6  1  0  0  0  0
  5 13  1  6  0  0  0
  6  7  1  0  0  0  0
  6 15  1  6  0  0  0
  7  8  1  0  0  0  0
  7 11  1  6  0  0  0
  8 14  1  0  0  0  0
  8 16  1  1  0  0  0
  9 11  1  0  0  0  0
 17 16  1  1  0  0  0
 17 18  1  0  0  0  0
 17 24  1  0  0  0  0
 18 19  1  0  0  0  0
 18 25  1  1  0  0  0
 19 20  1  0  0  0  0
 19 26  1  6  0  0  0
 20 21  1  0  0  0  0
 20 23  1  1  0  0  0
 21 22  1  6  0  0  0
 21 24  1  0  0  0  0
 22 27  1  0  0  0  0
 28 12  1  6  0  0  0
 28 29  1  0  0  0  0
 28 33  1  0  0  0  0
 29 30  1  0  0  0  0
 29 36  1  6  0  0  0
 30 31  1  0  0  0  0
 30 37  1  1  0  0  0
 31 32  1  0  0  0  0
 31 34  1  1  0  0  0
 32 33  1  0  0  0  0
 33 35  1  6  0  0  0
M  END
>  <CHROM.1>
-68.74857466,86.18217261,-156.46845838,-167.48059551,-162.22944097,137.97054079
20.13450687,-1.25282793,50.37974760,-1.47389903,-0.25407497,-2.13424401

>  <Name>
2oe8_lig

>  <RI>
0

>  <Rbt.Current_Directory>
/home/itssahil/PROJECTS/Mol_Feturizer/New_Systems/rnas/2oe8

>  <Rbt.Executable>
rbdock ($Id: //depot/dev/client3/rdock/2013.1/src/exe/rbdock.cxx#4 $)

>  <Rbt.Library>
libRbt.so (2013.1, Build901 2013/11/27)

>  <Rbt.Parameter_File>
/export/apps/rDock/src/rDock_2013.1_src/data/scripts/dock_solv.prm

>  <Rbt.Receptor>
prm/pocket_docking_6.prm

>  <SCORE>
-21.2094

>  <SCORE.INTER>
-18.8083

>  <SCORE.INTER.CONST>
1

>  <SCORE.INTER.POLAR>
-2.56467

>  <SCORE.INTER.ROT>
6

>  <SCORE.INTER.SOLV>
12.4053

>  <SCORE.INTER.VDW>
-15.725

>  <SCORE.INTER.norm>
-0.508332

>  <SCORE.INTRA>
-2.40109

>  <SCORE.INTRA.DIHEDRAL>
-5.58642

>  <SCORE.INTRA.DIHEDRAL.0>
16.4056

>  <SCORE.INTRA.POLAR>
0

>  <SCORE.INTRA.POLAR.0>
0

>  <SCORE.INTRA.REPUL>
0

>  <SCORE.INTRA.REPUL.0>
0

>  <SCORE.INTRA.SOLV>
1.02892

>  <SCORE.INTRA.SOLV.lig_0>
-90.9627

>  <SCORE.INTRA.VDW>
-0.122337

>  <SCORE.INTRA.VDW.0>
-3.28744

>  <SCORE.INTRA.norm>
-0.0648943

>  <SCORE.RESTR>
0

>  <SCORE.RESTR.CAVITY>
0

>  <SCORE.RESTR.norm>
0

>  <SCORE.SYSTEM>
0

>  <SCORE.SYSTEM.CONST>
0

>  <SCORE.SYSTEM.DIHEDRAL>
0

>  <SCORE.SYSTEM.SOLV>
0

>  <SCORE.SYSTEM.norm>
0

>  <SCORE.heavy>
37

>  <SCORE.norm>
-0.573226

>  <RMSD>
2.058

$$$$
2oe8_lig
 OpenBabel11021811463D
libRbt.so/2013.1/901 2013/11/27
 37 40  0  0  0  0  0  0  0  0999 V2000
   21.6570    0.9869   52.2075 C   0  0  1  0  0  0  0  0  0  0  0  0
   20.4896    1.7007   51.4258 C   0  0  1  0  0  0  0  0  0  0  0  0
   19.4678    0.6439   50.9572 C   0  0  0  0  0  0  0  0  0  0  0  0
   20.2533   -0.3375   50.0322 C   0  0  1  0  0  0  0  0  0  0  0  0
   21.4660   -1.0614   50.8142 C   0  0  1  0  0  0  0  0  0  0  0  0
   22.2668   -2.0279   49.8931 C   0  0  1  0  0  0  0  0  0  0  0  0
   21.2438   -3.0963   49.3282 C   0  0  1  0  0  0  0  0  0  0  0  0
   20.0645   -2.3434   48.6196 C   0  0  2  0  0  0  0  0  0  0  0  0
   21.3879   -5.4635   48.2003 C   0  0  0  0  0  0  0  0  0  0  0  0
   19.8083    2.7056   52.3023 N   0  0  0  0  0  0  0  0  0  0  0  0
   21.9303   -4.0669   48.3711 N   0  0  0  0  0  0  0  0  0  0  0  0
   21.1769    0.3161   53.3796 O   0  0  0  0  0  0  0  0  0  0  0  0
   22.3526   -0.0219   51.3554 O   0  0  0  0  0  0  0  0  0  0  0  0
   19.3670   -1.3737   49.5146 O   0  0  0  0  0  0  0  0  0  0  0  0
   22.8522   -1.2347   48.8593 O   0  0  0  0  0  0  0  0  0  0  0  0
   19.1400   -3.2706   48.1807 O   0  0  0  0  0  0  0  0  0  0  0  0
   18.2484   -2.7547   47.1778 C   0  0  2  0  0  0  0  0  0  0  0  0
   17.0979   -3.7565   46.9160 C   0  0  1  0  0  0  0  0  0  0  0  0
   17.6166   -5.0797   46.2740 C   0  0  2  0  0  0  0  0  0  0  0  0
   18.3426   -4.7525   44.9357 C   0  0  1  0  0  0  0  0  0  0  0  0
   19.5520   -3.7909   45.2905 C   0  0  1  0  0  0  0  0  0  0  0  0
   20.3397   -3.3813   44.0493 C   0  0  0  0  0  0  0  0  0  0  0  0
   18.8392   -6.0160   44.3197 N   0  0  0  0  0  0  0  0  0  0  0  0
   19.0038   -2.5360   45.9169 O   0  0  0  0  0  0  0  0  0  0  0  0
   16.4404   -3.9902   48.1761 O   0  0  0  0  0  0  0  0  0  0  0  0
   16.5078   -5.9173   46.0223 O   0  0  0  0  0  0  0  0  0  0  0  0
   21.0849   -4.4765   43.5864 O   0  0  0  0  0  0  0  0  0  0  0  0
   20.7630    1.1948   54.4054 C   0  0  1  0  0  0  0  0  0  0  0  0
   19.5819    0.5216   55.1757 C   0  0  1  0  0  0  0  0  0  0  0  0
   19.0947    1.4933   56.2900 C   0  0  2  0  0  0  0  0  0  0  0  0
   20.2536    1.8278   57.2793 C   0  0  1  0  0  0  0  0  0  0  0  0
   21.4547    2.4974   56.5089 C   0  0  0  0  0  0  0  0  0  0  0  0
   21.9517    1.5025   55.3796 C   0  0  2  0  0  0  0  0  0  0  0  0
   19.7646    2.7617   58.3311 N   0  0  0  0  0  0  0  0  0  0  0  0
   23.0815    2.1371   54.6641 N   0  0  0  0  0  0  0  0  0  0  0  0
   18.4895    0.2496   54.2780 O   0  0  0  0  0  0  0  0  0  0  0  0
   18.0298    0.8564   56.9764 O   0  0  0  0  0  0  0  0  0  0  0  0
  1  2  1  0  0  0  0
  1 12  1  1  0  0  0
  1 13  1  0  0  0  0
  2  3  1  0  0  0  0
  2 10  1  1  0  0  0
  4  3  1  1  0  0  0
  4  5  1  0  0  0  0
  4 14  1  0  0  0  0
  5  6  1  0  0  0  0
  5 13  1  6  0  0  0
  6  7  1  0  0  0  0
  6 15  1  6  0  0  0
  7  8  1  0  0  0  0
  7 11  1  6  0  0  0
  8 14  1  0  0  0  0
  8 16  1  1  0  0  0
  9 11  1  0  0  0  0
 17 16  1  1  0  0  0
 17 18  1  0  0  0  0
 17 24  1  0  0  0  0
 18 19  1  0  0  0  0
 18 25  1  1  0  0  0
 19 20  1  0  0  0  0
 19 26  1  6  0  0  0
 20 21  1  0  0  0  0
 20 23  1  1  0  0  0
 21 22  1  6  0  0  0
 21 24  1  0  0  0  0
 22 27  1  0  0  0  0
 28 12  1  6  0  0  0
 28 29  1  0  0  0  0
 28 33  1  0  0  0  0
 29 30  1  0  0  0  0
 29 36  1  6  0  0  0
 30 31  1  0  0  0  0
 30 37  1  1  0  0  0
 31 32  1  0  0  0  0
 31 34  1  1  0  0  0
 32 33  1  0  0  0  0
 33 35  1  6  0  0  0
M  END
>  <CHROM.1>
-70.32130938,152.56399099,-161.83291085,-170.15951199,-72.23425890,147.36589228
19.99411695,-1.37286680,50.37183645,-1.44792693,-0.29782655,-2.09051295

>  <Name>
2oe8_lig

>  <RI>
0

>  <Rbt.Current_Directory>
/home/itssahil/PROJECTS/Mol_Feturizer/New_Systems/rnas/2oe8

>  <Rbt.Executable>
rbdock ($Id: //depot/dev/client3/rdock/2013.1/src/exe/rbdock.cxx#4 $)

>  <Rbt.Library>
libRbt.so (2013.1, Build901 2013/11/27)

>  <Rbt.Parameter_File>
/export/apps/rDock/src/rDock_2013.1_src/data/scripts/dock_solv.prm

>  <Rbt.Receptor>
prm/pocket_docking_3.prm

>  <SCORE>
-19.7091

>  <SCORE.INTER>
-16.8301

>  <SCORE.INTER.CONST>
1

>  <SCORE.INTER.POLAR>
-2.27295

>  <SCORE.INTER.ROT>
6

>  <SCORE.INTER.SOLV>
11.6425

>  <SCORE.INTER.VDW>
-15.1244

>  <SCORE.INTER.norm>
-0.454869

>  <SCORE.INTRA>
-3.52982

>  <SCORE.INTRA.DIHEDRAL>
-8.7282

>  <SCORE.INTRA.DIHEDRAL.0>
16.4056

>  <SCORE.INTRA.POLAR>
0

>  <SCORE.INTRA.POLAR.0>
0

>  <SCORE.INTRA.REPUL>
0

>  <SCORE.INTRA.REPUL.0>
0

>  <SCORE.INTRA.SOLV>
1.8916

>  <SCORE.INTRA.SOLV.lig_0>
-90.9627

>  <SCORE.INTRA.VDW>
-0.111519

>  <SCORE.INTRA.VDW.0>
-3.28744

>  <SCORE.INTRA.norm>
-0.0954005

>  <SCORE.RESTR>
0.650852

>  <SCORE.RESTR.CAVITY>
0.650852

>  <SCORE.RESTR.norm>
0.0175906

>  <SCORE.SYSTEM>
0

>  <SCORE.SYSTEM.CONST>
0

>  <SCORE.SYSTEM.DIHEDRAL>
0

>  <SCORE.SYSTEM.SOLV>
0

>  <SCORE.SYSTEM.norm>
0

>  <SCORE.heavy>
37

>  <SCORE.norm>
-0.532679

>  <RMSD>
2.079

$$$$
2oe8_lig
 OpenBabel11021811463D
libRbt.so/2013.1/901 2013/11/27
 37 40  0  0  0  0  0  0  0  0999 V2000
   20.6541    2.1079   52.9581 C   0  0  1  0  0  0  0  0  0  0  0  0
   19.2833    2.3132   52.2083 C   0  0  1  0  0  0  0  0  0  0  0  0
   18.8325    0.9723   51.5922 C   0  0  0  0  0  0  0  0  0  0  0  0
   19.9627    0.5489   50.6027 C   0  0  1  0  0  0  0  0  0  0  0  0
   21.3786    0.3548   51.3535 C   0  0  1  0  0  0  0  0  0  0  0  0
   22.5160   -0.0492   50.3701 C   0  0  1  0  0  0  0  0  0  0  0  0
   22.0684   -1.3901   49.6570 C   0  0  1  0  0  0  0  0  0  0  0  0
   20.6702   -1.1634   48.9835 C   0  0  2  0  0  0  0  0  0  0  0  0
   24.3704   -2.5216   49.0943 C   0  0  0  0  0  0  0  0  0  0  0  0
   18.2355    2.8091   53.1562 N   0  0  0  0  0  0  0  0  0  0  0  0
   23.1047   -1.8442   48.6328 N   0  0  0  0  0  0  0  0  0  0  0  0
   20.5338    1.1690   54.0341 O   0  0  0  0  0  0  0  0  0  0  0  0
   21.7167    1.6123   52.0346 O   0  0  0  0  0  0  0  0  0  0  0  0
   19.6237   -0.7082   49.9454 O   0  0  0  0  0  0  0  0  0  0  0  0
   22.6776    1.0302   49.4484 O   0  0  0  0  0  0  0  0  0  0  0  0
   20.2494   -2.3492   48.4142 O   0  0  0  0  0  0  0  0  0  0  0  0
   19.1267   -2.1894   47.5305 C   0  0  2  0  0  0  0  0  0  0  0  0
   18.0244   -3.2212   47.8712 C   0  0  1  0  0  0  0  0  0  0  0  0
   18.4892   -4.6818   47.5838 C   0  0  2  0  0  0  0  0  0  0  0  0
   18.8832   -4.8107   46.0827 C   0  0  1  0  0  0  0  0  0  0  0  0
   20.0659   -3.7865   45.8270 C   0  0  1  0  0  0  0  0  0  0  0  0
   20.5348   -3.8059   44.3748 C   0  0  0  0  0  0  0  0  0  0  0  0
   19.3277   -6.2065   45.8053 N   0  0  0  0  0  0  0  0  0  0  0  0
   19.5741   -2.3956   46.1284 O   0  0  0  0  0  0  0  0  0  0  0  0
   17.6732   -3.0295   49.2549 O   0  0  0  0  0  0  0  0  0  0  0  0
   17.4175   -5.5552   47.8720 O   0  0  0  0  0  0  0  0  0  0  0  0
   19.8820   -2.7903   43.6595 O   0  0  0  0  0  0  0  0  0  0  0  0
   19.7455    1.6372   55.1089 C   0  0  1  0  0  0  0  0  0  0  0  0
   19.6375    0.4931   56.1677 C   0  0  1  0  0  0  0  0  0  0  0  0
   18.7445    0.9847   57.3441 C   0  0  2  0  0  0  0  0  0  0  0  0
   19.3489    2.2636   58.0019 C   0  0  1  0  0  0  0  0  0  0  0  0
   19.4721    3.4202   56.9380 C   0  0  0  0  0  0  0  0  0  0  0  0
   20.3870    2.9178   55.7452 C   0  0  2  0  0  0  0  0  0  0  0  0
   18.4750    2.7168   59.1193 N   0  0  0  0  0  0  0  0  0  0  0  0
   20.5005    4.0107   54.7532 N   0  0  0  0  0  0  0  0  0  0  0  0
   19.0393   -0.6775   55.5803 O   0  0  0  0  0  0  0  0  0  0  0  0
   18.6690   -0.0675   58.2917 O   0  0  0  0  0  0  0  0  0  0  0  0
  1  2  1  0  0  0  0
  1 12  1  1  0  0  0
  1 13  1  0  0  0  0
  2  3  1  0  0  0  0
  2 10  1  1  0  0  0
  4  3  1  1  0  0  0
  4  5  1  0  0  0  0
  4 14  1  0  0  0  0
  5  6  1  0  0  0  0
  5 13  1  6  0  0  0
  6  7  1  0  0  0  0
  6 15  1  6  0  0  0
  7  8  1  0  0  0  0
  7 11  1  6  0  0  0
  8 14  1  0  0  0  0
  8 16  1  1  0  0  0
  9 11  1  0  0  0  0
 17 16  1  1  0  0  0
 17 18  1  0  0  0  0
 17 24  1  0  0  0  0
 18 19  1  0  0  0  0
 18 25  1  1  0  0  0
 19 20  1  0  0  0  0
 19 26  1  6  0  0  0
 20 21  1  0  0  0  0
 20 23  1  1  0  0  0
 21 22  1  6  0  0  0
 21 24  1  0  0  0  0
 22 27  1  0  0  0  0
 28 12  1  6  0  0  0
 28 29  1  0  0  0  0
 28 33  1  0  0  0  0
 29 30  1  0  0  0  0
 29 36  1  6  0  0  0
 30 31  1  0  0  0  0
 30 37  1  1  0  0  0
 31 32  1  0  0  0  0
 31 34  1  1  0  0  0
 32 33  1  0  0  0  0
 33 35  1  6  0  0  0
M  END
>  <CHROM.1>
-68.29870593,77.48004619,-167.40435570,-130.67152097,95.12456960,177.03256234
19.96975505,-0.62715104,51.08100304,-1.60316293,-0.69412197,-2.11228282

>  <Name>
2oe8_lig

>  <RI>
0

>  <Rbt.Current_Directory>
/home/itssahil/PROJECTS/Mol_Feturizer/New_Systems/rnas/2oe8

>  <Rbt.Executable>
rbdock ($Id: //depot/dev/client3/rdock/2013.1/src/exe/rbdock.cxx#4 $)

>  <Rbt.Library>
libRbt.so (2013.1, Build901 2013/11/27)

>  <Rbt.Parameter_File>
/export/apps/rDock/src/rDock_2013.1_src/data/scripts/dock_solv.prm

>  <Rbt.Receptor>
prm/pocket_docking_3.prm

>  <SCORE>
-17.7535

>  <SCORE.INTER>
-19.2097

>  <SCORE.INTER.CONST>
1

>  <SCORE.INTER.POLAR>
-2.27355

>  <SCORE.INTER.ROT>
6

>  <SCORE.INTER.SOLV>
15.4138

>  <SCORE.INTER.VDW>
-17.9659

>  <SCORE.INTER.norm>
-0.519181

>  <SCORE.INTRA>
1.26932

>  <SCORE.INTRA.DIHEDRAL>
-4.98812

>  <SCORE.INTRA.DIHEDRAL.0>
16.4056

>  <SCORE.INTRA.POLAR>
0

>  <SCORE.INTRA.POLAR.0>
0

>  <SCORE.INTRA.REPUL>
0

>  <SCORE.INTRA.REPUL.0>
0

>  <SCORE.INTRA.SOLV>
2.44256

>  <SCORE.INTRA.SOLV.lig_0>
-90.9627

>  <SCORE.INTRA.VDW>
2.5421

>  <SCORE.INTRA.VDW.0>
-3.28744

>  <SCORE.INTRA.norm>
0.0343059

>  <SCORE.RESTR>
0.186872

>  <SCORE.RESTR.CAVITY>
0.186872

>  <SCORE.RESTR.norm>
0.00505061

>  <SCORE.SYSTEM>
0

>  <SCORE.SYSTEM.CONST>
0

>  <SCORE.SYSTEM.DIHEDRAL>
0

>  <SCORE.SYSTEM.SOLV>
0

>  <SCORE.SYSTEM.norm>
0

>  <SCORE.heavy>
37

>  <SCORE.norm>
-0.479824

>  <RMSD>
2.109

$$$$
2oe8_lig
 OpenBabel11021811463D
libRbt.so/2013.1/901 2013/11/27
 37 40  0  0  0  0  0  0  0  0999 V2000
   20.8419    1.0612   53.3307 C   0  0  1  0  0  0  0  0  0  0  0  0
   20.4502    1.8231   52.0080 C   0  0  1  0  0  0  0  0  0  0  0  0
   19.2888    1.0800   51.3156 C   0  0  0  0  0  0  0  0  0  0  0  0
   19.8160   -0.3565   51.0082 C   0  0  1  0  0  0  0  0  0  0  0  0
   20.2409   -1.1423   52.3528 C   0  0  1  0  0  0  0  0  0  0  0  0
   20.7860   -2.5696   52.0533 C   0  0  1  0  0  0  0  0  0  0  0  0
   19.6508   -3.3544   51.2772 C   0  0  1  0  0  0  0  0  0  0  0  0
   19.2420   -2.5298   50.0073 C   0  0  2  0  0  0  0  0  0  0  0  0
   19.1036   -5.8749   50.7829 C   0  0  0  0  0  0  0  0  0  0  0  0
   20.0364    3.2291   52.3149 N   0  0  0  0  0  0  0  0  0  0  0  0
   20.1112   -4.7587   50.8959 N   0  0  0  0  0  0  0  0  0  0  0  0
   19.7527    1.0213   54.2613 O   0  0  0  0  0  0  0  0  0  0  0  0
   21.2579   -0.3449   53.0523 O   0  0  0  0  0  0  0  0  0  0  0  0
   18.7928   -1.1432   50.3290 O   0  0  0  0  0  0  0  0  0  0  0  0
   21.9709   -2.4113   51.2711 O   0  0  0  0  0  0  0  0  0  0  0  0
   18.2091   -3.1815   49.3628 O   0  0  0  0  0  0  0  0  0  0  0  0
   17.9640   -2.6868   48.0354 C   0  0  2  0  0  0  0  0  0  0  0  0
   17.3350   -3.7952   47.1572 C   0  0  1  0  0  0  0  0  0  0  0  0
   18.3271   -4.9733   46.9123 C   0  0  2  0  0  0  0  0  0  0  0  0
   19.6149   -4.4280   46.2273 C   0  0  1  0  0  0  0  0  0  0  0  0
   20.2460   -3.3609   47.2152 C   0  0  1  0  0  0  0  0  0  0  0  0
   21.5164   -2.7360   46.6457 C   0  0  0  0  0  0  0  0  0  0  0  0
   20.5649   -5.5526   45.9919 N   0  0  0  0  0  0  0  0  0  0  0  0
   19.2496   -2.2524   47.4297 O   0  0  0  0  0  0  0  0  0  0  0  0
   16.1317   -4.2319   47.8177 O   0  0  0  0  0  0  0  0  0  0  0  0
   17.7001   -5.9155   46.0675 O   0  0  0  0  0  0  0  0  0  0  0  0
   21.9985   -1.7639   47.5355 O   0  0  0  0  0  0  0  0  0  0  0  0
   20.1364    1.2898   55.5941 C   0  0  1  0  0  0  0  0  0  0  0  0
   19.8654    2.8013   55.8835 C   0  0  1  0  0  0  0  0  0  0  0  0
   20.3135    3.1186   57.3400 C   0  0  2  0  0  0  0  0  0  0  0  0
   19.5380    2.2332   58.3639 C   0  0  1  0  0  0  0  0  0  0  0  0
   19.7965    0.7057   58.0727 C   0  0  0  0  0  0  0  0  0  0  0  0
   19.3333    0.3855   56.5911 C   0  0  2  0  0  0  0  0  0  0  0  0
   19.9877    2.5511   59.7475 N   0  0  0  0  0  0  0  0  0  0  0  0
   19.5759   -1.0507   56.3275 N   0  0  0  0  0  0  0  0  0  0  0  0
   20.6125    3.6272   54.9709 O   0  0  0  0  0  0  0  0  0  0  0  0
   20.0507    4.4916   57.5782 O   0  0  0  0  0  0  0  0  0  0  0  0
  1  2  1  0  0  0  0
  1 12  1  1  0  0  0
  1 13  1  0  0  0  0
  2  3  1  0  0  0  0
  2 10  1  1  0  0  0
  4  3  1  1  0  0  0
  4  5  1  0  0  0  0
  4 14  1  0  0  0  0
  5  6  1  0  0  0  0
  5 13  1  6  0  0  0
  6  7  1  0  0  0  0
  6 15  1  6  0  0  0
  7  8  1  0  0  0  0
  7 11  1  6  0  0  0
  8 14  1  0  0  0  0
  8 16  1  1  0  0  0
  9 11  1  0  0  0  0
 17 16  1  1  0  0  0
 17 18  1  0  0  0  0
 17 24  1  0  0  0  0
 18 19  1  0  0  0  0
 18 25  1  1  0  0  0
 19 20  1  0  0  0  0
 19 26  1  6  0  0  0
 20 21  1  0  0  0  0
 20 23  1  1  0  0  0
 21 22  1  6  0  0  0
 21 24  1  0  0  0  0
 22 27  1  0  0  0  0
 28 12  1  6  0  0  0
 28 29  1  0  0  0  0
 28 33  1  0  0  0  0
 29 30  1  0  0  0  0
 29 36  1  6  0  0  0
 30 31  1  0  0  0  0
 30 37  1  1  0  0  0
 31 32  1  0  0  0  0
 31 34  1  1  0  0  0
 32 33  1  0  0  0  0
 33 35  1  6  0  0  0
M  END
>  <CHROM.1>
-136.68036067,150.33254969,-166.47396611,153.30185691,177.61613184,96.61572868
19.71104707,-1.12136489,51.66540747,-1.31375149,-1.22771459,-1.93657644

>  <Name>
2oe8_lig

>  <RI>
0

>  <Rbt.Current_Directory>
/home/itssahil/PROJECTS/Mol_Feturizer/New_Systems/rnas/2oe8

>  <Rbt.Executable>
rbdock ($Id: //depot/dev/client3/rdock/2013.1/src/exe/rbdock.cxx#4 $)

>  <Rbt.Library>
libRbt.so (2013.1, Build901 2013/11/27)

>  <Rbt.Parameter_File>
/export/apps/rDock/src/rDock_2013.1_src/data/scripts/dock_solv.prm

>  <Rbt.Receptor>
prm/pocket_docking_4.prm

>  <SCORE>
-16.6445

>  <SCORE.INTER>
-16.099

>  <SCORE.INTER.CONST>
1

>  <SCORE.INTER.POLAR>
-1.89912

>  <SCORE.INTER.ROT>
6

>  <SCORE.INTER.SOLV>
16.9334

>  <SCORE.INTER.VDW>
-17.6467

>  <SCORE.INTER.norm>
-0.435109

>  <SCORE.INTRA>
-0.545482

>  <SCORE.INTRA.DIHEDRAL>
-1.2052

>  <SCORE.INTRA.DIHEDRAL.0>
16.4056

>  <SCORE.INTRA.POLAR>
0

>  <SCORE.INTRA.POLAR.0>
0

>  <SCORE.INTRA.REPUL>
0.00093013

>  <SCORE.INTRA.REPUL.0>
0

>  <SCORE.INTRA.SOLV>
-0.323385

>  <SCORE.INTRA.SOLV.lig_0>
-90.9627

>  <SCORE.INTRA.VDW>
0.214158

>  <SCORE.INTRA.VDW.0>
-3.28744

>  <SCORE.INTRA.norm>
-0.0147428

>  <SCORE.RESTR>
0

>  <SCORE.RESTR.CAVITY>
0

>  <SCORE.RESTR.norm>
0

>  <SCORE.SYSTEM>
0

>  <SCORE.SYSTEM.CONST>
0

>  <SCORE.SYSTEM.DIHEDRAL>
0

>  <SCORE.SYSTEM.SOLV>
0

>  <SCORE.SYSTEM.norm>
0

>  <SCORE.heavy>
37

>  <SCORE.norm>
-0.449852

>  <RMSD>
2.121

$$$$
2oe8_lig
 OpenBabel11021811463D
libRbt.so/2013.1/901 2013/11/27
 37 40  0  0  0  0  0  0  0  0999 V2000
   20.2834    1.7943   53.3640 C   0  0  1  0  0  0  0  0  0  0  0  0
   19.3986    2.3635   52.1907 C   0  0  1  0  0  0  0  0  0  0  0  0
   18.6025    1.2099   51.5457 C   0  0  0  0  0  0  0  0  0  0  0  0
   19.6633    0.1951   51.0157 C   0  0  1  0  0  0  0  0  0  0  0  0
   20.5913   -0.3813   52.2042 C   0  0  1  0  0  0  0  0  0  0  0  0
   21.6650   -1.3801   51.6812 C   0  0  1  0  0  0  0  0  0  0  0  0
   20.8980   -2.5540   50.9459 C   0  0  1  0  0  0  0  0  0  0  0  0
   19.9781   -1.9399   49.8339 C   0  0  2  0  0  0  0  0  0  0  0  0
   22.8408   -3.1389   49.2785 C   0  0  0  0  0  0  0  0  0  0  0  0
   18.4514    3.4033   52.7043 N   0  0  0  0  0  0  0  0  0  0  0  0
   21.8744   -3.5669   50.3540 N   0  0  0  0  0  0  0  0  0  0  0  0
   19.4806    1.2075   54.3961 O   0  0  0  0  0  0  0  0  0  0  0  0
   21.2369    0.7538   52.8783 O   0  0  0  0  0  0  0  0  0  0  0  0
   19.0106   -0.9344   50.3637 O   0  0  0  0  0  0  0  0  0  0  0  0
   22.5215   -0.6526   50.7992 O   0  0  0  0  0  0  0  0  0  0  0  0
   19.2617   -2.9562   49.2331 O   0  0  0  0  0  0  0  0  0  0  0  0
   18.6792   -2.5754   47.9751 C   0  0  2  0  0  0  0  0  0  0  0  0
   17.7787   -3.7123   47.4345 C   0  0  1  0  0  0  0  0  0  0  0  0
   18.6067   -4.9813   47.0652 C   0  0  2  0  0  0  0  0  0  0  0  0
   19.6761   -4.6056   45.9974 C   0  0  1  0  0  0  0  0  0  0  0  0
   20.6072   -3.4991   46.6469 C   0  0  1  0  0  0  0  0  0  0  0  0
   21.6959   -3.0319   45.6850 C   0  0  0  0  0  0  0  0  0  0  0  0
   20.4688   -5.8173   45.6425 N   0  0  0  0  0  0  0  0  0  0  0  0
   19.7634   -2.3019   46.9963 O   0  0  0  0  0  0  0  0  0  0  0  0
   16.7887   -3.9892   48.4434 O   0  0  0  0  0  0  0  0  0  0  0  0
   17.7254   -5.9501   46.5370 O   0  0  0  0  0  0  0  0  0  0  0  0
   22.4617   -2.0284   46.2980 O   0  0  0  0  0  0  0  0  0  0  0  0
   20.1513    1.0826   55.6332 C   0  0  1  0  0  0  0  0  0  0  0  0
   21.3068    0.0455   55.4578 C   0  0  1  0  0  0  0  0  0  0  0  0
   22.0351   -0.1256   56.8228 C   0  0  2  0  0  0  0  0  0  0  0  0
   22.6128    1.2364   57.3174 C   0  0  1  0  0  0  0  0  0  0  0  0
   21.4552    2.2928   57.4866 C   0  0  0  0  0  0  0  0  0  0  0  0
   20.7204    2.4687   56.0933 C   0  0  2  0  0  0  0  0  0  0  0  0
   23.2988    1.0477   58.6257 N   0  0  0  0  0  0  0  0  0  0  0  0
   19.6379    3.4645   56.2601 N   0  0  0  0  0  0  0  0  0  0  0  0
   20.7775   -1.2280   55.0439 O   0  0  0  0  0  0  0  0  0  0  0  0
   23.0809   -1.0646   56.6342 O   0  0  0  0  0  0  0  0  0  0  0  0
  1  2  1  0  0  0  0
  1 12  1  1  0  0  0
  1 13  1  0  0  0  0
  2  3  1  0  0  0  0
  2 10  1  1  0  0  0
  4  3  1  1  0  0  0
  4  5  1  0  0  0  0
  4 14  1  0  0  0  0
  5  6  1  0  0  0  0
  5 13  1  6  0  0  0
  6  7  1  0  0  0  0
  6 15  1  6  0  0  0
  7  8  1  0  0  0  0
  7 11  1  6  0  0  0
  8 14  1  0  0  0  0
  8 16  1  1  0  0  0
  9 11  1  0  0  0  0
 17 16  1  1  0  0  0
 17 18  1  0  0  0  0
 17 24  1  0  0  0  0
 18 19  1  0  0  0  0
 18 25  1  1  0  0  0
 19 20  1  0  0  0  0
 19 26  1  6  0  0  0
 20 21  1  0  0  0  0
 20 23  1  1  0  0  0
 21 22  1  6  0  0  0
 21 24  1  0  0  0  0
 22 27  1  0  0  0  0
 28 12  1  6  0  0  0
 28 29  1  0  0  0  0
 28 33  1  0  0  0  0
 29 30  1  0  0  0  0
 29 36  1  1  0  0  0
 30 31  1  0  0  0  0
 30 37  1  6  0  0  0
 31 32  1  0  0  0  0
 31 34  1  1  0  0  0
 32 33  1  0  0  0  0
 33 35  1  1  0  0  0
M  END
>  <CHROM.1>
-160.46726157,-62.74622559,-163.60283323,-174.29868504,178.27808646,-66.42666392
20.40779726,-1.11191633,51.38797554,1.39189848,-0.59829153,0.93883174

>  <Name>
2oe8_lig

>  <RI>
0

>  <Rbt.Current_Directory>
/home/itssahil/PROJECTS/Mol_Feturizer/New_Systems/rnas/2oe8

>  <Rbt.Executable>
rbdock ($Id: //depot/dev/client3/rdock/2013.1/src/exe/rbdock.cxx#4 $)

>  <Rbt.Library>
libRbt.so (2013.1, Build901 2013/11/27)

>  <Rbt.Parameter_File>
/export/apps/rDock/src/rDock_2013.1_src/data/scripts/dock_solv.prm

>  <Rbt.Receptor>
prm/pocket_docking_4.prm

>  <SCORE>
-19.4651

>  <SCORE.INTER>
-14.8686

>  <SCORE.INTER.CONST>
1

>  <SCORE.INTER.POLAR>
-1.53036

>  <SCORE.INTER.ROT>
6

>  <SCORE.INTER.SOLV>
16.8306

>  <SCORE.INTER.VDW>
-18.0214

>  <SCORE.INTER.norm>
-0.401854

>  <SCORE.INTRA>
-4.59648

>  <SCORE.INTRA.DIHEDRAL>
-13.0094

>  <SCORE.INTRA.DIHEDRAL.0>
16.4056

>  <SCORE.INTRA.POLAR>
0

>  <SCORE.INTRA.POLAR.0>
0

>  <SCORE.INTRA.REPUL>
0

>  <SCORE.INTRA.REPUL.0>
0

>  <SCORE.INTRA.SOLV>
-0.645533

>  <SCORE.INTRA.SOLV.lig_0>
-90.9627

>  <SCORE.INTRA.VDW>
2.23096

>  <SCORE.INTRA.VDW.0>
-3.28744

>  <SCORE.INTRA.norm>
-0.124229

>  <SCORE.RESTR>
0

>  <SCORE.RESTR.CAVITY>
0

>  <SCORE.RESTR.norm>
0

>  <SCORE.SYSTEM>
0

>  <SCORE.SYSTEM.CONST>
0

>  <SCORE.SYSTEM.DIHEDRAL>
0

>  <SCORE.SYSTEM.SOLV>
0

>  <SCORE.SYSTEM.norm>
0

>  <SCORE.heavy>
37

>  <SCORE.norm>
-0.526083

>  <RMSD>
2.124

$$$$
2oe8_lig
 OpenBabel11021811463D
libRbt.so/2013.1/901 2013/11/27
 37 40  0  0  0  0  0  0  0  0999 V2000
   20.1908    1.3233   53.2630 C   0  0  1  0  0  0  0  0  0  0  0  0
   19.3440    1.9495   52.0907 C   0  0  1  0  0  0  0  0  0  0  0  0
   18.5616    0.8307   51.3719 C   0  0  0  0  0  0  0  0  0  0  0  0
   19.6324   -0.1664   50.8288 C   0  0  1  0  0  0  0  0  0  0  0  0
   20.5220   -0.8007   52.0173 C   0  0  1  0  0  0  0  0  0  0  0  0
   21.6056   -1.7822   51.4822 C   0  0  1  0  0  0  0  0  0  0  0  0
   20.8549   -2.9175   50.6732 C   0  0  1  0  0  0  0  0  0  0  0  0
   19.9714   -2.2490   49.5630 C   0  0  2  0  0  0  0  0  0  0  0  0
   23.1025   -4.2685   50.8136 C   0  0  0  0  0  0  0  0  0  0  0  0
   18.3872    2.9715   52.6219 N   0  0  0  0  0  0  0  0  0  0  0  0
   21.8432   -3.9093   50.0658 N   0  0  0  0  0  0  0  0  0  0  0  0
   19.3548    0.6965   54.2440 O   0  0  0  0  0  0  0  0  0  0  0  0
   21.1530    0.2993   52.7598 O   0  0  0  0  0  0  0  0  0  0  0  0
   18.9937   -1.2618   50.1083 O   0  0  0  0  0  0  0  0  0  0  0  0
   22.4915   -1.0218   50.6589 O   0  0  0  0  0  0  0  0  0  0  0  0
   19.2680   -3.2331   48.8968 O   0  0  0  0  0  0  0  0  0  0  0  0
   20.0713   -3.9735   47.9623 C   0  0  2  0  0  0  0  0  0  0  0  0
   20.2213   -3.1837   46.6398 C   0  0  1  0  0  0  0  0  0  0  0  0
   18.8600   -3.0409   45.8925 C   0  0  2  0  0  0  0  0  0  0  0  0
   18.2845   -4.4573   45.5959 C   0  0  1  0  0  0  0  0  0  0  0  0
   18.0825   -5.1750   46.9950 C   0  0  1  0  0  0  0  0  0  0  0  0
   17.5333   -6.5900   46.8373 C   0  0  0  0  0  0  0  0  0  0  0  0
   16.9829   -4.3234   44.8813 N   0  0  0  0  0  0  0  0  0  0  0  0
   19.4184   -5.2787   47.6820 O   0  0  0  0  0  0  0  0  0  0  0  0
   20.7922   -1.9030   46.9697 O   0  0  0  0  0  0  0  0  0  0  0  0
   19.0875   -2.3551   44.6791 O   0  0  0  0  0  0  0  0  0  0  0  0
   17.2412   -7.1216   48.1027 O   0  0  0  0  0  0  0  0  0  0  0  0
   19.8955    0.7226   55.5489 C   0  0  1  0  0  0  0  0  0  0  0  0
   18.7623    1.1486   56.5368 C   0  0  1  0  0  0  0  0  0  0  0  0
   19.3527    1.2121   57.9757 C   0  0  2  0  0  0  0  0  0  0  0  0
   19.9342   -0.1725   58.3979 C   0  0  1  0  0  0  0  0  0  0  0  0
   21.0710   -0.6159   57.4000 C   0  0  0  0  0  0  0  0  0  0  0  0
   20.4644   -0.6853   55.9373 C   0  0  2  0  0  0  0  0  0  0  0  0
   20.4971   -0.0845   59.7738 N   0  0  0  0  0  0  0  0  0  0  0  0
   21.5369   -1.1059   55.0078 N   0  0  0  0  0  0  0  0  0  0  0  0
   18.2498    2.4462   56.1808 O   0  0  0  0  0  0  0  0  0  0  0  0
   18.3042    1.5933   58.8511 O   0  0  0  0  0  0  0  0  0  0  0  0
  1  2  1  0  0  0  0
  1 12  1  1  0  0  0
  1 13  1  0  0  0  0
  2  3  1  0  0  0  0
  2 10  1  1  0  0  0
  4  3  1  1  0  0  0
  4  5  1  0  0  0  0
  4 14  1  0  0  0  0
  5  6  1  0  0  0  0
  5 13  1  6  0  0  0
  6  7  1  0  0  0  0
  6 15  1  6  0  0  0
  7  8  1  0  0  0  0
  7 11  1  6  0  0  0
  8 14  1  0  0  0  0
  8 16  1  1  0  0  0
  9 11  1  0  0  0  0
 17 16  1  1  0  0  0
 17 18  1  0  0  0  0
 17 24  1  0  0  0  0
 18 19  1  0  0  0  0
 18 25  1  1  0  0  0
 19 20  1  0  0  0  0
 19 26  1  6  0  0  0
 20 21  1  0  0  0  0
 20 23  1  1  0  0  0
 21 22  1  6  0  0  0
 21 24  1  0  0  0  0
 22 27  1  0  0  0  0
 28 12  1  6  0  0  0
 28 29  1  0  0  0  0
 28 33  1  0  0  0  0
 29 30  1  0  0  0  0
 29 36  1  6  0  0  0
 30 31  1  0  0  0  0
 30 37  1  1  0  0  0
 31 32  1  0  0  0  0
 31 34  1  1  0  0  0
 32 33  1  0  0  0  0
 33 35  1  6  0  0  0
M  END
>  <CHROM.1>
-150.01109310,35.36786230,-76.49956156,-80.77292584,-173.75079961,134.63771171
19.72275362,-1.54030746,51.46196376,1.38628176,-1.20751872,0.92327654

>  <Name>
2oe8_lig

>  <RI>
0

>  <Rbt.Current_Directory>
/home/itssahil/PROJECTS/Mol_Feturizer/New_Systems/rnas/2oe8

>  <Rbt.Executable>
rbdock ($Id: //depot/dev/client3/rdock/2013.1/src/exe/rbdock.cxx#4 $)

>  <Rbt.Library>
libRbt.so (2013.1, Build901 2013/11/27)

>  <Rbt.Parameter_File>
/export/apps/rDock/src/rDock_2013.1_src/data/scripts/dock_solv.prm

>  <Rbt.Receptor>
prm/pocket_docking_2.prm

>  <SCORE>
-12.6839

>  <SCORE.INTER>
-15.8124

>  <SCORE.INTER.CONST>
1

>  <SCORE.INTER.POLAR>
-1.72641

>  <SCORE.INTER.ROT>
6

>  <SCORE.INTER.SOLV>
14.7476

>  <SCORE.INTER.VDW>
-17.3027

>  <SCORE.INTER.norm>
-0.427361

>  <SCORE.INTRA>
0.906638

>  <SCORE.INTRA.DIHEDRAL>
-2.82998

>  <SCORE.INTRA.DIHEDRAL.0>
16.4056

>  <SCORE.INTRA.POLAR>
0

>  <SCORE.INTRA.POLAR.0>
0

>  <SCORE.INTRA.REPUL>
0

>  <SCORE.INTRA.REPUL.0>
0

>  <SCORE.INTRA.SOLV>
1.20104

>  <SCORE.INTRA.SOLV.lig_0>
-90.9627

>  <SCORE.INTRA.VDW>
1.72111

>  <SCORE.INTRA.VDW.0>
-3.28744

>  <SCORE.INTRA.norm>
0.0245037

>  <SCORE.RESTR>
2.22185

>  <SCORE.RESTR.CAVITY>
2.22185

>  <SCORE.RESTR.norm>
0.0600499

>  <SCORE.SYSTEM>
0

>  <SCORE.SYSTEM.CONST>
0

>  <SCORE.SYSTEM.DIHEDRAL>
0

>  <SCORE.SYSTEM.SOLV>
0

>  <SCORE.SYSTEM.norm>
0

>  <SCORE.heavy>
37

>  <SCORE.norm>
-0.342807

>  <RMSD>
2.128

$$$$
2oe8_lig
 OpenBabel11021811463D
libRbt.so/2013.1/901 2013/11/27
 37 40  0  0  0  0  0  0  0  0999 V2000
   20.0616    0.4495   53.5567 C   0  0  1  0  0  0  0  0  0  0  0  0
   19.2177    1.3318   52.5604 C   0  0  1  0  0  0  0  0  0  0  0  0
   18.4382    0.4115   51.5980 C   0  0  0  0  0  0  0  0  0  0  0  0
   19.5115   -0.4311   50.8404 C   0  0  1  0  0  0  0  0  0  0  0  0
   20.3981   -1.3251   51.8506 C   0  0  1  0  0  0  0  0  0  0  0  0
   21.4841   -2.1544   51.1044 C   0  0  1  0  0  0  0  0  0  0  0  0
   20.7367   -3.0697   50.0506 C   0  0  1  0  0  0  0  0  0  0  0  0
   19.8558   -2.1608   49.1245 C   0  0  2  0  0  0  0  0  0  0  0  0
   22.5045   -5.0050   49.8888 C   0  0  0  0  0  0  0  0  0  0  0  0
   18.2585    2.2015   53.3126 N   0  0  0  0  0  0  0  0  0  0  0  0
   21.7276   -3.8923   49.2315 N   0  0  0  0  0  0  0  0  0  0  0  0
   19.2234   -0.3891   54.3618 O   0  0  0  0  0  0  0  0  0  0  0  0
   21.0261   -0.4287   52.8312 O   0  0  0  0  0  0  0  0  0  0  0  0
   18.8757   -1.3282   49.8822 O   0  0  0  0  0  0  0  0  0  0  0  0
   22.3717   -1.2228   50.4840 O   0  0  0  0  0  0  0  0  0  0  0  0
   19.1551   -2.9623   48.2450 O   0  0  0  0  0  0  0  0  0  0  0  0
   19.6440   -2.8891   46.8950 C   0  0  2  0  0  0  0  0  0  0  0  0
   18.4849   -3.1041   45.8920 C   0  0  1  0  0  0  0  0  0  0  0  0
   17.9071   -4.5502   45.9755 C   0  0  2  0  0  0  0  0  0  0  0  0
   19.0440   -5.5760   45.6919 C   0  0  1  0  0  0  0  0  0  0  0  0
   20.1542   -5.3519   46.8011 C   0  0  1  0  0  0  0  0  0  0  0  0
   21.3404   -6.2951   46.6211 C   0  0  0  0  0  0  0  0  0  0  0  0
   18.4940   -6.9594   45.7710 N   0  0  0  0  0  0  0  0  0  0  0  0
   20.6719   -3.9424   46.6887 O   0  0  0  0  0  0  0  0  0  0  0  0
   17.4849   -2.1067   46.1751 O   0  0  0  0  0  0  0  0  0  0  0  0
   16.8927   -4.6816   45.0018 O   0  0  0  0  0  0  0  0  0  0  0  0
   20.9058   -7.6228   46.7533 O   0  0  0  0  0  0  0  0  0  0  0  0
   19.5542   -0.3691   55.7351 C   0  0  1  0  0  0  0  0  0  0  0  0
   21.0739   -0.7048   55.8746 C   0  0  1  0  0  0  0  0  0  0  0  0
   21.4453   -0.7172   57.3862 C   0  0  2  0  0  0  0  0  0  0  0  0
   21.1432    0.6653   58.0426 C   0  0  1  0  0  0  0  0  0  0  0  0
   19.6137    1.0177   57.8968 C   0  0  0  0  0  0  0  0  0  0  0  0
   19.2411    1.0355   56.3564 C   0  0  2  0  0  0  0  0  0  0  0  0
   21.5013    0.6263   59.4876 N   0  0  0  0  0  0  0  0  0  0  0  0
   17.8050    1.3708   56.2285 N   0  0  0  0  0  0  0  0  0  0  0  0
   21.3540   -1.9996   55.3106 O   0  0  0  0  0  0  0  0  0  0  0  0
   22.8280   -1.0169   57.4837 O   0  0  0  0  0  0  0  0  0  0  0  0
  1  2  1  0  0  0  0
  1 12  1  6  0  0  0
  1 13  1  0  0  0  0
  2  3  1  0  0  0  0
  2 10  1  1  0  0  0
  4  3  1  1  0  0  0
  4  5  1  0  0  0  0
  4 14  1  0  0  0  0
  5  6  1  0  0  0  0
  5 13  1  1  0  0  0
  6  7  1  0  0  0  0
  6 15  1  6  0  0  0
  7  8  1  0  0  0  0
  7 11  1  6  0  0  0
  8 14  1  0  0  0  0
  8 16  1  6  0  0  0
  9 11  1  0  0  0  0
 17 16  1  1  0  0  0
 17 18  1  0  0  0  0
 17 24  1  0  0  0  0
 18 19  1  0  0  0  0
 18 25  1  1  0  0  0
 19 20  1  0  0  0  0
 19 26  1  6  0  0  0
 20 21  1  0  0  0  0
 20 23  1  1  0  0  0
 21 22  1  6  0  0  0
 21 24  1  0  0  0  0
 22 27  1  0  0  0  0
 28 12  1  6  0  0  0
 28 29  1  0  0  0  0
 28 33  1  0  0  0  0
 29 30  1  0  0  0  0
 29 36  1  1  0  0  0
 30 31  1  0  0  0  0
 30 37  1  6  0  0  0
 31 32  1  0  0  0  0
 31 34  1  1  0  0  0
 32 33  1  0  0  0  0
 33 35  1  1  0  0  0
M  END
>  <CHROM.1>
-133.30633573,69.17676989,-107.72523523,-148.70652759,-62.08149263,-53.50387339
19.99462145,-2.01429239,51.22251305,1.44443571,-0.75726761,1.01138372

>  <Name>
2oe8_lig

>  <RI>
0

>  <Rbt.Current_Directory>
/home/itssahil/PROJECTS/Mol_Feturizer/New_Systems/rnas/2oe8

>  <Rbt.Executable>
rbdock ($Id: //depot/dev/client3/rdock/2013.1/src/exe/rbdock.cxx#4 $)

>  <Rbt.Library>
libRbt.so (2013.1, Build901 2013/11/27)

>  <Rbt.Parameter_File>
/export/apps/rDock/src/rDock_2013.1_src/data/scripts/dock_solv.prm

>  <Rbt.Receptor>
prm/pocket_docking_2.prm

>  <SCORE>
-8.14203

>  <SCORE.INTER>
-12.6131

>  <SCORE.INTER.CONST>
1

>  <SCORE.INTER.POLAR>
-1.18323

>  <SCORE.INTER.ROT>
6

>  <SCORE.INTER.SOLV>
18.52

>  <SCORE.INTER.VDW>
-18.238

>  <SCORE.INTER.norm>
-0.340895

>  <SCORE.INTRA>
2.32087

>  <SCORE.INTRA.DIHEDRAL>
0.524567

>  <SCORE.INTRA.DIHEDRAL.0>
16.4056

>  <SCORE.INTRA.POLAR>
0

>  <SCORE.INTRA.POLAR.0>
0

>  <SCORE.INTRA.REPUL>
0

>  <SCORE.INTRA.REPUL.0>
0

>  <SCORE.INTRA.SOLV>
2.6116

>  <SCORE.INTRA.SOLV.lig_0>
-90.9627

>  <SCORE.INTRA.VDW>
0.752783

>  <SCORE.INTRA.VDW.0>
-3.28744

>  <SCORE.INTRA.norm>
0.0627261

>  <SCORE.RESTR>
2.15021

>  <SCORE.RESTR.CAVITY>
2.15021

>  <SCORE.RESTR.norm>
0.0581139

>  <SCORE.SYSTEM>
0

>  <SCORE.SYSTEM.CONST>
0

>  <SCORE.SYSTEM.DIHEDRAL>
0

>  <SCORE.SYSTEM.SOLV>
0

>  <SCORE.SYSTEM.norm>
0

>  <SCORE.heavy>
37

>  <SCORE.norm>
-0.220055

>  <RMSD>
2.132

$$$$
2oe8_lig
 OpenBabel11021811463D
libRbt.so/2013.1/901 2013/11/27
 37 40  0  0  0  0  0  0  0  0999 V2000
   20.9320    0.7749   52.8357 C   0  0  1  0  0  0  0  0  0  0  0  0
   19.4008    0.9710   52.5190 C   0  0  1  0  0  0  0  0  0  0  0  0
   18.7960   -0.3752   52.0688 C   0  0  0  0  0  0  0  0  0  0  0  0
   19.5892   -0.8013   50.7939 C   0  0  1  0  0  0  0  0  0  0  0  0
   21.1638   -0.9860   51.0983 C   0  0  1  0  0  0  0  0  0  0  0  0
   21.9655   -1.3925   49.8271 C   0  0  1  0  0  0  0  0  0  0  0  0
   21.3353   -2.7393   49.2832 C   0  0  1  0  0  0  0  0  0  0  0  0
   19.8001   -2.5216   49.0473 C   0  0  2  0  0  0  0  0  0  0  0  0
   21.7054   -2.5245   46.6921 C   0  0  0  0  0  0  0  0  0  0  0  0
   18.6739    1.4695   53.7296 N   0  0  0  0  0  0  0  0  0  0  0  0
   22.0287   -3.1966   48.0027 N   0  0  0  0  0  0  0  0  0  0  0  0
   21.1367   -0.1576   53.9045 O   0  0  0  0  0  0  0  0  0  0  0  0
   21.6802    0.2769   51.6441 O   0  0  0  0  0  0  0  0  0  0  0  0
   19.0788   -2.0636   50.2711 O   0  0  0  0  0  0  0  0  0  0  0  0
   21.8448   -0.3185   48.8929 O   0  0  0  0  0  0  0  0  0  0  0  0
   19.2370   -3.7122   48.6323 O   0  0  0  0  0  0  0  0  0  0  0  0
   17.8785   -3.5732   48.1827 C   0  0  2  0  0  0  0  0  0  0  0  0
   17.1453   -4.9341   48.2612 C   0  0  1  0  0  0  0  0  0  0  0  0
   17.7396   -5.9710   47.2593 C   0  0  2  0  0  0  0  0  0  0  0  0
   17.6408   -5.4039   45.8123 C   0  0  1  0  0  0  0  0  0  0  0  0
   18.4776   -4.0577   45.7867 C   0  0  1  0  0  0  0  0  0  0  0  0
   18.4450   -3.3907   44.4145 C   0  0  0  0  0  0  0  0  0  0  0  0
   18.2081   -6.3937   44.8526 N   0  0  0  0  0  0  0  0  0  0  0  0
   17.8749   -3.0953   46.7756 O   0  0  0  0  0  0  0  0  0  0  0  0
   17.2349   -5.3893   49.6248 O   0  0  0  0  0  0  0  0  0  0  0  0
   16.9900   -7.1640   47.3560 O   0  0  0  0  0  0  0  0  0  0  0  0
   19.2961   -2.2750   44.4171 O   0  0  0  0  0  0  0  0  0  0  0  0
   21.2321    0.4505   55.1761 C   0  0  1  0  0  0  0  0  0  0  0  0
   21.0488   -0.6589   56.2611 C   0  0  1  0  0  0  0  0  0  0  0  0
   21.1203    0.0027   57.6683 C   0  0  2  0  0  0  0  0  0  0  0  0
   22.4875    0.7258   57.8720 C   0  0  1  0  0  0  0  0  0  0  0  0
   22.6863    1.8398   56.7746 C   0  0  0  0  0  0  0  0  0  0  0  0
   22.6191    1.1612   55.3438 C   0  0  2  0  0  0  0  0  0  0  0  0
   22.5291    1.3545   59.2214 N   0  0  0  0  0  0  0  0  0  0  0  0
   22.8104    2.2130   54.3200 N   0  0  0  0  0  0  0  0  0  0  0  0
   19.7697   -1.3020   56.1080 O   0  0  0  0  0  0  0  0  0  0  0  0
   20.9584   -1.0248   58.6321 O   0  0  0  0  0  0  0  0  0  0  0  0
  1  2  1  0  0  0  0
  1 12  1  1  0  0  0
  1 13  1  0  0  0  0
  2  3  1  0  0  0  0
  2 10  1  1  0  0  0
  4  3  1  1  0  0  0
  4  5  1  0  0  0  0
  4 14  1  0  0  0  0
  5  6  1  0  0  0  0
  5 13  1  6  0  0  0
  6  7  1  0  0  0  0
  6 15  1  6  0  0  0
  7  8  1  0  0  0  0
  7 11  1  6  0  0  0
  8 14  1  0  0  0  0
  8 16  1  1  0  0  0
  9 11  1  0  0  0  0
 17 16  1  6  0  0  0
 17 18  1  0  0  0  0
 17 24  1  0  0  0  0
 18 19  1  0  0  0  0
 18 25  1  1  0  0  0
 19 20  1  0  0  0  0
 19 26  1  6  0  0  0
 20 21  1  0  0  0  0
 20 23  1  6  0  0  0
 21 22  1  6  0  0  0
 21 24  1  0  0  0  0
 22 27  1  0  0  0  0
 28 12  1  6  0  0  0
 28 29  1  0  0  0  0
 28 33  1  0  0  0  0
 29 30  1  0  0  0  0
 29 36  1  6  0  0  0
 30 31  1  0  0  0  0
 30 37  1  1  0  0  0
 31 32  1  0  0  0  0
 31 34  1  1  0  0  0
 32 33  1  0  0  0  0
 33 35  1  6  0  0  0
M  END
>  <CHROM.1>
-93.01650343,-77.43973755,-170.57987119,-158.02172972,-174.70359291,164.33529742
20.05013982,-1.76424414,51.02528959,-1.14098010,-0.87410286,-1.70682321

>  <Name>
2oe8_lig

>  <RI>
0

>  <Rbt.Current_Directory>
/home/itssahil/PROJECTS/Mol_Feturizer/New_Systems/rnas/2oe8

>  <Rbt.Executable>
rbdock ($Id: //depot/dev/client3/rdock/2013.1/src/exe/rbdock.cxx#4 $)

>  <Rbt.Library>
libRbt.so (2013.1, Build901 2013/11/27)

>  <Rbt.Parameter_File>
/export/apps/rDock/src/rDock_2013.1_src/data/scripts/dock_solv.prm

>  <Rbt.Receptor>
prm/pocket_docking_4.prm

>  <SCORE>
-18.2506

>  <SCORE.INTER>
-15.1494

>  <SCORE.INTER.CONST>
1

>  <SCORE.INTER.POLAR>
-1.58438

>  <SCORE.INTER.ROT>
6

>  <SCORE.INTER.SOLV>
14.6907

>  <SCORE.INTER.VDW>
-17.3152

>  <SCORE.INTER.norm>
-0.409442

>  <SCORE.INTRA>
-3.10125

>  <SCORE.INTRA.DIHEDRAL>
-8.16726

>  <SCORE.INTRA.DIHEDRAL.0>
16.4056

>  <SCORE.INTRA.POLAR>
0

>  <SCORE.INTRA.POLAR.0>
0

>  <SCORE.INTRA.REPUL>
0

>  <SCORE.INTRA.REPUL.0>
0

>  <SCORE.INTRA.SOLV>
-0.0312185

>  <SCORE.INTRA.SOLV.lig_0>
-90.9627

>  <SCORE.INTRA.VDW>
0.997986

>  <SCORE.INTRA.VDW.0>
-3.28744

>  <SCORE.INTRA.norm>
-0.0838177

>  <SCORE.RESTR>
0

>  <SCORE.RESTR.CAVITY>
0

>  <SCORE.RESTR.norm>
0

>  <SCORE.SYSTEM>
0

>  <SCORE.SYSTEM.CONST>
0

>  <SCORE.SYSTEM.DIHEDRAL>
0

>  <SCORE.SYSTEM.SOLV>
0

>  <SCORE.SYSTEM.norm>
0

>  <SCORE.heavy>
37

>  <SCORE.norm>
-0.49326

>  <RMSD>
2.165

$$$$
2oe8_lig
 OpenBabel11021811463D
libRbt.so/2013.1/901 2013/11/27
 37 40  0  0  0  0  0  0  0  0999 V2000
   20.2031    0.5861   53.4190 C   0  0  1  0  0  0  0  0  0  0  0  0
   19.2363    1.3790   52.4598 C   0  0  1  0  0  0  0  0  0  0  0  0
   18.5876    0.3965   51.4625 C   0  0  0  0  0  0  0  0  0  0  0  0
   19.7636   -0.2558   50.6704 C   0  0  1  0  0  0  0  0  0  0  0  0
   20.7744   -1.0548   51.6430 C   0  0  1  0  0  0  0  0  0  0  0  0
   21.9612   -1.6926   50.8628 C   0  0  1  0  0  0  0  0  0  0  0  0
   21.3429   -2.6621   49.7743 C   0  0  1  0  0  0  0  0  0  0  0  0
   20.3362   -1.8508   48.8864 C   0  0  2  0  0  0  0  0  0  0  0  0
   23.4652   -4.1949   49.5671 C   0  0  0  0  0  0  0  0  0  0  0  0
   18.1693    2.0744   53.2474 N   0  0  0  0  0  0  0  0  0  0  0  0
   22.4341   -3.3037   48.9217 N   0  0  0  0  0  0  0  0  0  0  0  0
   19.4970   -0.3934   54.1911 O   0  0  0  0  0  0  0  0  0  0  0  0
   21.2766   -0.1180   52.6577 O   0  0  0  0  0  0  0  0  0  0  0  0
   19.2539   -1.1953   49.6781 O   0  0  0  0  0  0  0  0  0  0  0  0
   22.7043   -0.6214   50.2789 O   0  0  0  0  0  0  0  0  0  0  0  0
   19.7494   -2.7080   47.9766 O   0  0  0  0  0  0  0  0  0  0  0  0
   20.3524   -2.6538   46.6726 C   0  0  2  0  0  0  0  0  0  0  0  0
   19.3179   -3.0361   45.5866 C   0  0  1  0  0  0  0  0  0  0  0  0
   18.8775   -4.5274   45.7052 C   0  0  2  0  0  0  0  0  0  0  0  0
   20.1298   -5.4452   45.5839 C   0  0  1  0  0  0  0  0  0  0  0  0
   21.1051   -5.0535   46.7707 C   0  0  1  0  0  0  0  0  0  0  0  0
   22.3885   -5.8789   46.7518 C   0  0  0  0  0  0  0  0  0  0  0  0
   19.7113   -6.8717   45.6968 N   0  0  0  0  0  0  0  0  0  0  0  0
   21.4921   -3.6060   46.6203 O   0  0  0  0  0  0  0  0  0  0  0  0
   18.2041   -2.1326   45.7211 O   0  0  0  0  0  0  0  0  0  0  0  0
   17.9756   -4.8105   44.6560 O   0  0  0  0  0  0  0  0  0  0  0  0
   22.0901   -7.2139   47.0648 O   0  0  0  0  0  0  0  0  0  0  0  0
   19.9526   -0.4996   55.5241 C   0  0  1  0  0  0  0  0  0  0  0  0
   21.4931   -0.7598   55.4926 C   0  0  1  0  0  0  0  0  0  0  0  0
   22.0036   -0.9106   56.9553 C   0  0  2  0  0  0  0  0  0  0  0  0
   21.6978    0.3750   57.7844 C   0  0  1  0  0  0  0  0  0  0  0  0
   20.1462    0.6519   57.8124 C   0  0  0  0  0  0  0  0  0  0  0  0
   19.6316    0.8109   56.3217 C   0  0  2  0  0  0  0  0  0  0  0  0
   22.1902    0.2041   59.1794 N   0  0  0  0  0  0  0  0  0  0  0  0
   18.1754    1.0743   56.3574 N   0  0  0  0  0  0  0  0  0  0  0  0
   21.7814   -1.9694   54.7666 O   0  0  0  0  0  0  0  0  0  0  0  0
   23.4021   -1.1384   56.8982 O   0  0  0  0  0  0  0  0  0  0  0  0
  1  2  1  0  0  0  0
  1 12  1  6  0  0  0
  1 13  1  0  0  0  0
  2  3  1  0  0  0  0
  2 10  1  1  0  0  0
  4  3  1  1  0  0  0
  4  5  1  0  0  0  0
  4 14  1  0  0  0  0
  5  6  1  0  0  0  0
  5 13  1  1  0  0  0
  6  7  1  0  0  0  0
  6 15  1  6  0  0  0
  7  8  1  0  0  0  0
  7 11  1  6  0  0  0
  8 14  1  0  0  0  0
  8 16  1  6  0  0  0
  9 11  1  0  0  0  0
 17 16  1  1  0  0  0
 17 18  1  0  0  0  0
 17 24  1  0  0  0  0
 18 19  1  0  0  0  0
 18 25  1  1  0  0  0
 19 20  1  0  0  0  0
 19 26  1  6  0  0  0
 20 21  1  0  0  0  0
 20 23  1  1  0  0  0
 21 22  1  6  0  0  0
 21 24  1  0  0  0  0
 22 27  1  0  0  0  0
 28 12  1  6  0  0  0
 28 29  1  0  0  0  0
 28 33  1  0  0  0  0
 29 30  1  0  0  0  0
 29 36  1  6  0  0  0
 30 31  1  0  0  0  0
 30 37  1  6  0  0  0
 31 32  1  0  0  0  0
 31 34  1  1  0  0  0
 32 33  1  0  0  0  0
 33 35  1  1  0  0  0
M  END
>  <CHROM.1>
-141.03200367,61.96135049,-98.95558177,-152.26216242,-68.27466587,-54.33671284
20.57711079,-1.89844223,51.02151563,1.50929463,-0.70793288,1.08713831

>  <Name>
2oe8_lig

>  <RI>
0

>  <Rbt.Current_Directory>
/home/itssahil/PROJECTS/Mol_Feturizer/New_Systems/rnas/2oe8

>  <Rbt.Executable>
rbdock ($Id: //depot/dev/client3/rdock/2013.1/src/exe/rbdock.cxx#4 $)

>  <Rbt.Library>
libRbt.so (2013.1, Build901 2013/11/27)

>  <Rbt.Parameter_File>
/export/apps/rDock/src/rDock_2013.1_src/data/scripts/dock_solv.prm

>  <Rbt.Receptor>
prm/pocket_docking_5.prm

>  <SCORE>
-16.1002

>  <SCORE.INTER>
-17.5169

>  <SCORE.INTER.CONST>
1

>  <SCORE.INTER.POLAR>
-1.72468

>  <SCORE.INTER.ROT>
6

>  <SCORE.INTER.SOLV>
20.8312

>  <SCORE.INTER.VDW>
-20.4727

>  <SCORE.INTER.norm>
-0.473429

>  <SCORE.INTRA>
1.41668

>  <SCORE.INTRA.DIHEDRAL>
-2.39334

>  <SCORE.INTRA.DIHEDRAL.0>
16.4056

>  <SCORE.INTRA.POLAR>
0

>  <SCORE.INTRA.POLAR.0>
0

>  <SCORE.INTRA.REPUL>
0

>  <SCORE.INTRA.REPUL.0>
0

>  <SCORE.INTRA.SOLV>
2.41296

>  <SCORE.INTRA.SOLV.lig_0>
-90.9627

>  <SCORE.INTRA.VDW>
1.40687

>  <SCORE.INTRA.VDW.0>
-3.28744

>  <SCORE.INTRA.norm>
0.0382886

>  <SCORE.RESTR>
0

>  <SCORE.RESTR.CAVITY>
0

>  <SCORE.RESTR.norm>
0

>  <SCORE.SYSTEM>
0

>  <SCORE.SYSTEM.CONST>
0

>  <SCORE.SYSTEM.DIHEDRAL>
0

>  <SCORE.SYSTEM.SOLV>
0

>  <SCORE.SYSTEM.norm>
0

>  <SCORE.heavy>
37

>  <SCORE.norm>
-0.43514

>  <RMSD>
2.189

$$$$
2oe8_lig
 OpenBabel11021811463D
libRbt.so/2013.1/901 2013/11/27
 37 40  0  0  0  0  0  0  0  0999 V2000
   20.0489    1.7472   53.5566 C   0  0  1  0  0  0  0  0  0  0  0  0
   19.1722    2.3821   52.4113 C   0  0  1  0  0  0  0  0  0  0  0  0
   18.4039    1.2636   51.6768 C   0  0  0  0  0  0  0  0  0  0  0  0
   19.4882    0.3034   51.0954 C   0  0  1  0  0  0  0  0  0  0  0  0
   20.4081   -0.3391   52.2560 C   0  0  1  0  0  0  0  0  0  0  0  0
   21.5050   -1.2837   51.6828 C   0  0  1  0  0  0  0  0  0  0  0  0
   20.7676   -2.4158   50.8573 C   0  0  1  0  0  0  0  0  0  0  0  0
   19.8541   -1.7409   49.7757 C   0  0  2  0  0  0  0  0  0  0  0  0
   22.8223   -4.0386   51.0600 C   0  0  0  0  0  0  0  0  0  0  0  0
   18.2012    3.3701   52.9798 N   0  0  0  0  0  0  0  0  0  0  0  0
   21.7684   -3.3711   50.2130 N   0  0  0  0  0  0  0  0  0  0  0  0
   19.2407    1.0793   54.5337 O   0  0  0  0  0  0  0  0  0  0  0  0
   21.0257    0.7567   53.0159 O   0  0  0  0  0  0  0  0  0  0  0  0
   18.8631   -0.7885   50.3578 O   0  0  0  0  0  0  0  0  0  0  0  0
   22.3624   -0.4848   50.8659 O   0  0  0  0  0  0  0  0  0  0  0  0
   19.1627   -2.7242   49.0959 O   0  0  0  0  0  0  0  0  0  0  0  0
   20.0144   -3.5931   48.3301 C   0  0  2  0  0  0  0  0  0  0  0  0
   20.3287   -2.9595   46.9534 C   0  0  1  0  0  0  0  0  0  0  0  0
   19.0536   -2.8474   46.0624 C   0  0  2  0  0  0  0  0  0  0  0  0
   18.4404   -4.2645   45.8606 C   0  0  1  0  0  0  0  0  0  0  0  0
   18.0706   -4.8161   47.3002 C   0  0  1  0  0  0  0  0  0  0  0  0
   17.4702   -6.2177   47.2382 C   0  0  0  0  0  0  0  0  0  0  0  0
   17.2213   -4.1600   45.0089 N   0  0  0  0  0  0  0  0  0  0  0  0
   19.3280   -4.8951   48.1249 O   0  0  0  0  0  0  0  0  0  0  0  0
   20.9275   -1.6732   47.2020 O   0  0  0  0  0  0  0  0  0  0  0  0
   19.4295   -2.3082   44.8125 O   0  0  0  0  0  0  0  0  0  0  0  0
   16.9806   -6.5726   48.5045 O   0  0  0  0  0  0  0  0  0  0  0  0
   19.8355    1.0168   55.8136 C   0  0  1  0  0  0  0  0  0  0  0  0
   18.8059    1.5606   56.8557 C   0  0  1  0  0  0  0  0  0  0  0  0
   19.4602    1.5270   58.2677 C   0  0  2  0  0  0  0  0  0  0  0  0
   19.8852    0.0749   58.6473 C   0  0  1  0  0  0  0  0  0  0  0  0
   20.9158   -0.4865   57.5949 C   0  0  0  0  0  0  0  0  0  0  0  0
   20.2437   -0.4564   56.1598 C   0  0  2  0  0  0  0  0  0  0  0  0
   20.5125    0.0700   59.9979 N   0  0  0  0  0  0  0  0  0  0  0  0
   21.2162   -0.9883   55.1788 N   0  0  0  0  0  0  0  0  0  0  0  0
   18.4415    2.9169   56.5381 O   0  0  0  0  0  0  0  0  0  0  0  0
   18.5044    2.0180   59.1931 O   0  0  0  0  0  0  0  0  0  0  0  0
  1  2  1  0  0  0  0
  1 12  1  1  0  0  0
  1 13  1  0  0  0  0
  2  3  1  0  0  0  0
  2 10  1  1  0  0  0
  4  3  1  1  0  0  0
  4  5  1  0  0  0  0
  4 14  1  0  0  0  0
  5  6  1  0  0  0  0
  5 13  1  6  0  0  0
  6  7  1  0  0  0  0
  6 15  1  6  0  0  0
  7  8  1  0  0  0  0
  7 11  1  6  0  0  0
  8 14  1  0  0  0  0
  8 16  1  1  0  0  0
  9 11  1  0  0  0  0
 17 16  1  1  0  0  0
 17 18  1  0  0  0  0
 17 24  1  0  0  0  0
 18 19  1  0  0  0  0
 18 25  1  1  0  0  0
 19 20  1  0  0  0  0
 19 26  1  6  0  0  0
 20 21  1  0  0  0  0
 20 23  1  6  0  0  0
 21 22  1  6  0  0  0
 21 24  1  0  0  0  0
 22 27  1  0  0  0  0
 28 12  1  6  0  0  0
 28 29  1  0  0  0  0
 28 33  1  0  0  0  0
 29 30  1  0  0  0  0
 29 36  1  6  0  0  0
 30 31  1  0  0  0  0
 30 37  1  1  0  0  0
 31 32  1  0  0  0  0
 31 34  1  1  0  0  0
 32 33  1  0  0  0  0
 33 35  1  6  0  0  0
M  END
>  <CHROM.1>
-153.57098319,53.35624585,-65.05473908,-83.82779853,-171.22435576,128.26628737
19.67665142,-1.18338376,51.72682284,1.31672460,-1.34509887,0.84708038

>  <Name>
2oe8_lig

>  <RI>
0

>  <Rbt.Current_Directory>
/home/itssahil/PROJECTS/Mol_Feturizer/New_Systems/rnas/2oe8

>  <Rbt.Executable>
rbdock ($Id: //depot/dev/client3/rdock/2013.1/src/exe/rbdock.cxx#4 $)

>  <Rbt.Library>
libRbt.so (2013.1, Build901 2013/11/27)

>  <Rbt.Parameter_File>
/export/apps/rDock/src/rDock_2013.1_src/data/scripts/dock_solv.prm

>  <Rbt.Receptor>
prm/pocket_docking_2.prm

>  <SCORE>
-11.7837

>  <SCORE.INTER>
-15.0533

>  <SCORE.INTER.CONST>
1

>  <SCORE.INTER.POLAR>
-1.36916

>  <SCORE.INTER.ROT>
6

>  <SCORE.INTER.SOLV>
14.7364

>  <SCORE.INTER.VDW>
-17.9838

>  <SCORE.INTER.norm>
-0.406845

>  <SCORE.INTRA>
0.917813

>  <SCORE.INTRA.DIHEDRAL>
-3.67708

>  <SCORE.INTRA.DIHEDRAL.0>
16.4056

>  <SCORE.INTRA.POLAR>
0

>  <SCORE.INTRA.POLAR.0>
0

>  <SCORE.INTRA.REPUL>
0

>  <SCORE.INTRA.REPUL.0>
0

>  <SCORE.INTRA.SOLV>
1.40608

>  <SCORE.INTRA.SOLV.lig_0>
-90.9627

>  <SCORE.INTRA.VDW>
2.05331

>  <SCORE.INTRA.VDW.0>
-3.28744

>  <SCORE.INTRA.norm>
0.0248058

>  <SCORE.RESTR>
2.35175

>  <SCORE.RESTR.CAVITY>
2.35175

>  <SCORE.RESTR.norm>
0.0635607

>  <SCORE.SYSTEM>
0

>  <SCORE.SYSTEM.CONST>
0

>  <SCORE.SYSTEM.DIHEDRAL>
0

>  <SCORE.SYSTEM.SOLV>
0

>  <SCORE.SYSTEM.norm>
0

>  <SCORE.heavy>
37

>  <SCORE.norm>
-0.318479

>  <RMSD>
2.205

$$$$
2oe8_lig
 OpenBabel11021811463D
libRbt.so/2013.1/901 2013/11/27
 37 40  0  0  0  0  0  0  0  0999 V2000
   20.5920    0.9476   53.6433 C   0  0  1  0  0  0  0  0  0  0  0  0
   20.4804    1.7903   52.3163 C   0  0  1  0  0  0  0  0  0  0  0  0
   19.4741    1.1119   51.3637 C   0  0  0  0  0  0  0  0  0  0  0  0
   20.0383   -0.3161   51.0834 C   0  0  1  0  0  0  0  0  0  0  0  0
   20.1778   -1.1846   52.4370 C   0  0  1  0  0  0  0  0  0  0  0  0
   20.7581   -2.6042   52.1686 C   0  0  1  0  0  0  0  0  0  0  0  0
   19.7937   -3.3202   51.1370 C   0  0  1  0  0  0  0  0  0  0  0  0
   19.6554   -2.4175   49.8619 C   0  0  2  0  0  0  0  0  0  0  0  0
   19.3516   -5.8756   50.7236 C   0  0  0  0  0  0  0  0  0  0  0  0
   20.0271    3.1855   52.6168 N   0  0  0  0  0  0  0  0  0  0  0  0
   20.3076   -4.7105   50.7731 N   0  0  0  0  0  0  0  0  0  0  0  0
   19.3382    0.8790   54.3341 O   0  0  0  0  0  0  0  0  0  0  0  0
   21.0418   -0.4492   53.3710 O   0  0  0  0  0  0  0  0  0  0  0  0
   19.1643   -1.0418   50.1688 O   0  0  0  0  0  0  0  0  0  0  0  0
   22.0770   -2.4276   51.6490 O   0  0  0  0  0  0  0  0  0  0  0  0
   18.7662   -3.0102   48.9873 O   0  0  0  0  0  0  0  0  0  0  0  0
   19.2633   -3.0957   47.6410 C   0  0  2  0  0  0  0  0  0  0  0  0
   18.0954   -2.9953   46.6303 C   0  0  1  0  0  0  0  0  0  0  0  0
   17.1383   -4.2227   46.7270 C   0  0  2  0  0  0  0  0  0  0  0  0
   17.9470   -5.5280   46.4671 C   0  0  1  0  0  0  0  0  0  0  0  0
   19.0699   -5.6045   47.5834 C   0  0  1  0  0  0  0  0  0  0  0  0
   19.9484   -6.8425   47.4265 C   0  0  0  0  0  0  0  0  0  0  0  0
   17.0340   -6.7030   46.5587 N   0  0  0  0  0  0  0  0  0  0  0  0
   19.9593   -4.3959   47.4577 O   0  0  0  0  0  0  0  0  0  0  0  0
   17.4103   -1.7554   46.8913 O   0  0  0  0  0  0  0  0  0  0  0  0
   16.1324   -4.0818   45.7457 O   0  0  0  0  0  0  0  0  0  0  0  0
   19.1780   -7.9935   47.6514 O   0  0  0  0  0  0  0  0  0  0  0  0
   19.4513    1.0527   55.7315 C   0  0  1  0  0  0  0  0  0  0  0  0
   18.0772    1.5648   56.2711 C   0  0  1  0  0  0  0  0  0  0  0  0
   18.1970    1.7908   57.8065 C   0  0  2  0  0  0  0  0  0  0  0  0
   18.5943    0.4683   58.5321 C   0  0  1  0  0  0  0  0  0  0  0  0
   19.9746   -0.0622   57.9861 C   0  0  0  0  0  0  0  0  0  0  0  0
   19.8465   -0.2968   56.4238 C   0  0  2  0  0  0  0  0  0  0  0  0
   18.7077    0.7114   59.9969 N   0  0  0  0  0  0  0  0  0  0  0  0
   21.1451   -0.7982   55.9202 N   0  0  0  0  0  0  0  0  0  0  0  0
   17.7236    2.8090   55.6385 O   0  0  0  0  0  0  0  0  0  0  0  0
   16.9372    2.2476   58.2705 O   0  0  0  0  0  0  0  0  0  0  0  0
  1  2  1  0  0  0  0
  1 12  1  6  0  0  0
  1 13  1  0  0  0  0
  2  3  1  0  0  0  0
  2 10  1  1  0  0  0
  4  3  1  1  0  0  0
  4  5  1  0  0  0  0
  4 14  1  0  0  0  0
  5  6  1  0  0  0  0
  5 13  1  1  0  0  0
  6  7  1  0  0  0  0
  6 15  1  6  0  0  0
  7  8  1  0  0  0  0
  7 11  1  6  0  0  0
  8 14  1  0  0  0  0
  8 16  1  6  0  0  0
  9 11  1  0  0  0  0
 17 16  1  1  0  0  0
 17 18  1  0  0  0  0
 17 24  1  0  0  0  0
 18 19  1  0  0  0  0
 18 25  1  1  0  0  0
 19 20  1  0  0  0  0
 19 26  1  6  0  0  0
 20 21  1  0  0  0  0
 20 23  1  1  0  0  0
 21 22  1  6  0  0  0
 21 24  1  0  0  0  0
 22 27  1  0  0  0  0
 28 12  1  6  0  0  0
 28 29  1  0  0  0  0
 28 33  1  0  0  0  0
 29 30  1  0  0  0  0
 29 36  1  6  0  0  0
 30 31  1  0  0  0  0
 30 37  1  1  0  0  0
 31 32  1  0  0  0  0
 31 34  1  1  0  0  0
 32 33  1  0  0  0  0
 33 35  1  6  0  0  0
M  END
>  <CHROM.1>
-137.21190702,135.50337732,-130.84588384,-148.49415734,-65.60720565,155.99049908
19.19837514,-1.72678493,51.74159495,1.40934677,-1.26230966,0.82940268

>  <Name>
2oe8_lig

>  <RI>
0

>  <Rbt.Current_Directory>
/home/itssahil/PROJECTS/Mol_Feturizer/New_Systems/rnas/2oe8

>  <Rbt.Executable>
rbdock ($Id: //depot/dev/client3/rdock/2013.1/src/exe/rbdock.cxx#4 $)

>  <Rbt.Library>
libRbt.so (2013.1, Build901 2013/11/27)

>  <Rbt.Parameter_File>
/export/apps/rDock/src/rDock_2013.1_src/data/scripts/dock_solv.prm

>  <Rbt.Receptor>
prm/pocket_docking_3.prm

>  <SCORE>
-10.215

>  <SCORE.INTER>
-13.1483

>  <SCORE.INTER.CONST>
1

>  <SCORE.INTER.POLAR>
-0.976211

>  <SCORE.INTER.ROT>
6

>  <SCORE.INTER.SOLV>
13.8689

>  <SCORE.INTER.VDW>
-17.7345

>  <SCORE.INTER.norm>
-0.35536

>  <SCORE.INTRA>
2.45799

>  <SCORE.INTRA.DIHEDRAL>
3.5149

>  <SCORE.INTRA.DIHEDRAL.0>
16.4056

>  <SCORE.INTRA.POLAR>
0

>  <SCORE.INTRA.POLAR.0>
0

>  <SCORE.INTRA.REPUL>
0

>  <SCORE.INTRA.REPUL.0>
0

>  <SCORE.INTRA.SOLV>
1.62625

>  <SCORE.INTRA.SOLV.lig_0>
-90.9627

>  <SCORE.INTRA.VDW>
-0.11258

>  <SCORE.INTRA.VDW.0>
-3.28744

>  <SCORE.INTRA.norm>
0.0664323

>  <SCORE.RESTR>
0.475331

>  <SCORE.RESTR.CAVITY>
0.475331

>  <SCORE.RESTR.norm>
0.0128468

>  <SCORE.SYSTEM>
0

>  <SCORE.SYSTEM.CONST>
0

>  <SCORE.SYSTEM.DIHEDRAL>
0

>  <SCORE.SYSTEM.SOLV>
0

>  <SCORE.SYSTEM.norm>
0

>  <SCORE.heavy>
37

>  <SCORE.norm>
-0.276081

>  <RMSD>
2.243

$$$$
2oe8_lig
 OpenBabel11021811463D
libRbt.so/2013.1/901 2013/11/27
 37 40  0  0  0  0  0  0  0  0999 V2000
   20.4360    2.4252   53.1069 C   0  0  1  0  0  0  0  0  0  0  0  0
   19.1929    2.7748   52.2036 C   0  0  1  0  0  0  0  0  0  0  0  0
   18.4906    1.4698   51.7742 C   0  0  0  0  0  0  0  0  0  0  0  0
   19.5539    0.6463   50.9823 C   0  0  1  0  0  0  0  0  0  0  0  0
   20.8433    0.2981   51.8892 C   0  0  1  0  0  0  0  0  0  0  0  0
   21.9175   -0.5071   51.1009 C   0  0  1  0  0  0  0  0  0  0  0  0
   21.2239   -1.8303   50.5765 C   0  0  1  0  0  0  0  0  0  0  0  0
   19.9546   -1.4406   49.7419 C   0  0  2  0  0  0  0  0  0  0  0  0
   23.2917   -3.4425   50.4288 C   0  0  0  0  0  0  0  0  0  0  0  0
   18.2285    3.6431   52.9508 N   0  0  0  0  0  0  0  0  0  0  0  0
   22.1911   -2.6699   49.7464 N   0  0  0  0  0  0  0  0  0  0  0  0
   20.0448    1.7431   54.3052 O   0  0  0  0  0  0  0  0  0  0  0  0
   21.4134    1.5585   52.3851 O   0  0  0  0  0  0  0  0  0  0  0  0
   18.9815   -0.6091   50.5096 O   0  0  0  0  0  0  0  0  0  0  0  0
   22.3712    0.3291   50.0352 O   0  0  0  0  0  0  0  0  0  0  0  0
   19.3133   -2.5943   49.3359 O   0  0  0  0  0  0  0  0  0  0  0  0
   18.6998   -2.4790   48.0408 C   0  0  2  0  0  0  0  0  0  0  0  0
   17.9127   -3.7683   47.7031 C   0  0  1  0  0  0  0  0  0  0  0  0
   18.8584   -4.9966   47.5327 C   0  0  2  0  0  0  0  0  0  0  0  0
   19.8894   -4.6999   46.4039 C   0  0  1  0  0  0  0  0  0  0  0  0
   20.7097   -3.4201   46.8537 C   0  0  1  0  0  0  0  0  0  0  0  0
   21.7510   -3.0145   45.8144 C   0  0  0  0  0  0  0  0  0  0  0  0
   20.7945   -5.8730   46.2389 N   0  0  0  0  0  0  0  0  0  0  0  0
   19.7551   -2.2669   47.0163 O   0  0  0  0  0  0  0  0  0  0  0  0
   16.9515   -3.9699   48.7568 O   0  0  0  0  0  0  0  0  0  0  0  0
   18.0744   -6.1169   47.1798 O   0  0  0  0  0  0  0  0  0  0  0  0
   22.4958   -1.9281   46.2985 O   0  0  0  0  0  0  0  0  0  0  0  0
   19.6827    2.6117   55.3588 C   0  0  1  0  0  0  0  0  0  0  0  0
   19.0268    1.7570   56.4905 C   0  0  1  0  0  0  0  0  0  0  0  0
   18.5940    2.7064   57.6456 C   0  0  2  0  0  0  0  0  0  0  0  0
   19.8208    3.4867   58.2110 C   0  0  1  0  0  0  0  0  0  0  0  0
   20.4960    4.3436   57.0731 C   0  0  0  0  0  0  0  0  0  0  0  0
   20.9408    3.3725   55.9021 C   0  0  2  0  0  0  0  0  0  0  0  0
   19.3805    4.3909   59.3093 N   0  0  0  0  0  0  0  0  0  0  0  0
   21.5769    4.1844   54.8402 N   0  0  0  0  0  0  0  0  0  0  0  0
   17.8668    1.0676   55.9884 O   0  0  0  0  0  0  0  0  0  0  0  0
   18.0095    1.9062   58.6599 O   0  0  0  0  0  0  0  0  0  0  0  0
  1  2  1  0  0  0  0
  1 12  1  1  0  0  0
  1 13  1  0  0  0  0
  2  3  1  0  0  0  0
  2 10  1  1  0  0  0
  4  3  1  1  0  0  0
  4  5  1  0  0  0  0
  4 14  1  0  0  0  0
  5  6  1  0  0  0  0
  5 13  1  6  0  0  0
  6  7  1  0  0  0  0
  6 15  1  6  0  0  0
  7  8  1  0  0  0  0
  7 11  1  6  0  0  0
  8 14  1  0  0  0  0
  8 16  1  1  0  0  0
  9 11  1  0  0  0  0
 17 16  1  1  0  0  0
 17 18  1  0  0  0  0
 17 24  1  0  0  0  0
 18 19  1  0  0  0  0
 18 25  1  1  0  0  0
 19 20  1  0  0  0  0
 19 26  1  6  0  0  0
 20 21  1  0  0  0  0
 20 23  1  1  0  0  0
 21 22  1  6  0  0  0
 21 24  1  0  0  0  0
 22 27  1  0  0  0  0
 28 12  1  6  0  0  0
 28 29  1  0  0  0  0
 28 33  1  0  0  0  0
 29 30  1  0  0  0  0
 29 36  1  6  0  0  0
 30 31  1  0  0  0  0
 30 37  1  1  0  0  0
 31 32  1  0  0  0  0
 31 34  1  1  0  0  0
 32 33  1  0  0  0  0
 33 35  1  6  0  0  0
M  END
>  <CHROM.1>
-86.01120291,74.06300814,-145.54492406,-175.68082259,-176.60735829,169.35966373
19.95993786,-0.33365106,51.54419016,-1.62170531,-0.49457218,-2.23872360

>  <Name>
2oe8_lig

>  <RI>
0

>  <Rbt.Current_Directory>
/home/itssahil/PROJECTS/Mol_Feturizer/New_Systems/rnas/2oe8

>  <Rbt.Executable>
rbdock ($Id: //depot/dev/client3/rdock/2013.1/src/exe/rbdock.cxx#4 $)

>  <Rbt.Library>
libRbt.so (2013.1, Build901 2013/11/27)

>  <Rbt.Parameter_File>
/export/apps/rDock/src/rDock_2013.1_src/data/scripts/dock_solv.prm

>  <Rbt.Receptor>
prm/pocket_docking_6.prm

>  <SCORE>
-20.5649

>  <SCORE.INTER>
-17.3669

>  <SCORE.INTER.CONST>
1

>  <SCORE.INTER.POLAR>
-2.18623

>  <SCORE.INTER.ROT>
6

>  <SCORE.INTER.SOLV>
13.3018

>  <SCORE.INTER.VDW>
-16.3244

>  <SCORE.INTER.norm>
-0.469376

>  <SCORE.INTRA>
-3.19802

>  <SCORE.INTRA.DIHEDRAL>
-8.28444

>  <SCORE.INTRA.DIHEDRAL.0>
16.4056

>  <SCORE.INTRA.POLAR>
0

>  <SCORE.INTRA.POLAR.0>
0

>  <SCORE.INTRA.REPUL>
0

>  <SCORE.INTRA.REPUL.0>
0

>  <SCORE.INTRA.SOLV>
1.29696

>  <SCORE.INTRA.SOLV.lig_0>
-90.9627

>  <SCORE.INTRA.VDW>
0.295721

>  <SCORE.INTRA.VDW.0>
-3.28744

>  <SCORE.INTRA.norm>
-0.0864329

>  <SCORE.RESTR>
0

>  <SCORE.RESTR.CAVITY>
0

>  <SCORE.RESTR.norm>
0

>  <SCORE.SYSTEM>
0

>  <SCORE.SYSTEM.CONST>
0

>  <SCORE.SYSTEM.DIHEDRAL>
0

>  <SCORE.SYSTEM.SOLV>
0

>  <SCORE.SYSTEM.norm>
0

>  <SCORE.heavy>
37

>  <SCORE.norm>
-0.555809

>  <RMSD>
2.271

$$$$
2oe8_lig
 OpenBabel11021811463D
libRbt.so/2013.1/901 2013/11/27
 37 40  0  0  0  0  0  0  0  0999 V2000
   19.8651    1.2332   53.7776 C   0  0  1  0  0  0  0  0  0  0  0  0
   19.3719    2.0155   52.5015 C   0  0  1  0  0  0  0  0  0  0  0  0
   18.3973    1.1257   51.7021 C   0  0  0  0  0  0  0  0  0  0  0  0
   19.2017   -0.1525   51.3085 C   0  0  1  0  0  0  0  0  0  0  0  0
   19.7314   -0.9537   52.6060 C   0  0  1  0  0  0  0  0  0  0  0  0
   20.5514   -2.2202   52.2217 C   0  0  1  0  0  0  0  0  0  0  0  0
   19.6130   -3.1387   51.3370 C   0  0  1  0  0  0  0  0  0  0  0  0
   19.0894   -2.3027   50.1176 C   0  0  2  0  0  0  0  0  0  0  0  0
   19.5664   -5.6288   50.5040 C   0  0  0  0  0  0  0  0  0  0  0  0
   18.6846    3.2856   52.8974 N   0  0  0  0  0  0  0  0  0  0  0  0
   20.3479   -4.3920   50.8692 N   0  0  0  0  0  0  0  0  0  0  0  0
   18.7775    0.9076   54.6524 O   0  0  0  0  0  0  0  0  0  0  0  0
   20.5537   -0.0390   53.4101 O   0  0  0  0  0  0  0  0  0  0  0  0
   18.3707   -1.0597   50.5252 O   0  0  0  0  0  0  0  0  0  0  0  0
   21.7054   -1.7731   51.5082 O   0  0  0  0  0  0  0  0  0  0  0  0
   18.2217   -3.0827   49.3789 O   0  0  0  0  0  0  0  0  0  0  0  0
   18.1167   -2.6726   48.0050 C   0  0  2  0  0  0  0  0  0  0  0  0
   17.3382   -3.7310   47.1869 C   0  0  1  0  0  0  0  0  0  0  0  0
   18.1189   -5.0776   47.0899 C   0  0  2  0  0  0  0  0  0  0  0  0
   19.5068   -4.8218   46.4317 C   0  0  1  0  0  0  0  0  0  0  0  0
   20.2761   -3.7945   47.3624 C   0  0  1  0  0  0  0  0  0  0  0  0
   21.6564   -3.4474   46.8118 C   0  0  0  0  0  0  0  0  0  0  0  0
   20.2551   -6.1078   46.3376 N   0  0  0  0  0  0  0  0  0  0  0  0
   19.4802   -2.5183   47.4345 O   0  0  0  0  0  0  0  0  0  0  0  0
   16.0532   -3.8968   47.8164 O   0  0  0  0  0  0  0  0  0  0  0  0
   17.3701   -5.9702   46.2918 O   0  0  0  0  0  0  0  0  0  0  0  0
   21.5182   -2.8325   45.5581 O   0  0  0  0  0  0  0  0  0  0  0  0
   19.0947    1.0378   56.0229 C   0  0  1  0  0  0  0  0  0  0  0  0
   20.2188    0.0068   56.3623 C   0  0  1  0  0  0  0  0  0  0  0  0
   20.5562    0.1176   57.8778 C   0  0  2  0  0  0  0  0  0  0  0  0
   21.0308    1.5598   58.2361 C   0  0  1  0  0  0  0  0  0  0  0  0
   19.9069    2.6084   57.8865 C   0  0  0  0  0  0  0  0  0  0  0  0
   19.5707    2.4967   56.3416 C   0  0  2  0  0  0  0  0  0  0  0  0
   21.3418    1.6415   59.6902 N   0  0  0  0  0  0  0  0  0  0  0  0
   18.5179    3.4867   56.0214 N   0  0  0  0  0  0  0  0  0  0  0  0
   19.7729   -1.3320   56.0761 O   0  0  0  0  0  0  0  0  0  0  0  0
   21.5815   -0.8216   58.1568 O   0  0  0  0  0  0  0  0  0  0  0  0
  1  2  1  0  0  0  0
  1 12  1  1  0  0  0
  1 13  1  0  0  0  0
  2  3  1  0  0  0  0
  2 10  1  1  0  0  0
  4  3  1  1  0  0  0
  4  5  1  0  0  0  0
  4 14  1  0  0  0  0
  5  6  1  0  0  0  0
  5 13  1  6  0  0  0
  6  7  1  0  0  0  0
  6 15  1  6  0  0  0
  7  8  1  0  0  0  0
  7 11  1  6  0  0  0
  8 14  1  0  0  0  0
  8 16  1  1  0  0  0
  9 11  1  0  0  0  0
 17 16  1  1  0  0  0
 17 18  1  0  0  0  0
 17 24  1  0  0  0  0
 18 19  1  0  0  0  0
 18 25  1  1  0  0  0
 19 20  1  0  0  0  0
 19 26  1  6  0  0  0
 20 21  1  0  0  0  0
 20 23  1  1  0  0  0
 21 22  1  6  0  0  0
 21 24  1  0  0  0  0
 22 27  1  0  0  0  0
 28 12  1  6  0  0  0
 28 29  1  0  0  0  0
 28 33  1  0  0  0  0
 29 30  1  0  0  0  0
 29 36  1  1  0  0  0
 30 31  1  0  0  0  0
 30 37  1  6  0  0  0
 31 32  1  0  0  0  0
 31 34  1  1  0  0  0
 32 33  1  0  0  0  0
 33 35  1  1  0  0  0
M  END
>  <CHROM.1>
-141.03356583,155.91512137,-155.59047265,169.82020739,61.80852146,-63.51170462
19.54540001,-1.39964992,51.80125309,1.38369651,-1.06129407,0.87449031

>  <Name>
2oe8_lig

>  <RI>
0

>  <Rbt.Current_Directory>
/home/itssahil/PROJECTS/Mol_Feturizer/New_Systems/rnas/2oe8

>  <Rbt.Executable>
rbdock ($Id: //depot/dev/client3/rdock/2013.1/src/exe/rbdock.cxx#4 $)

>  <Rbt.Library>
libRbt.so (2013.1, Build901 2013/11/27)

>  <Rbt.Parameter_File>
/export/apps/rDock/src/rDock_2013.1_src/data/scripts/dock_solv.prm

>  <Rbt.Receptor>
prm/pocket_docking_3.prm

>  <SCORE>
-23.8873

>  <SCORE.INTER>
-21.4711

>  <SCORE.INTER.CONST>
1

>  <SCORE.INTER.POLAR>
-2.03735

>  <SCORE.INTER.ROT>
6

>  <SCORE.INTER.SOLV>
16.4964

>  <SCORE.INTER.VDW>
-20.6217

>  <SCORE.INTER.norm>
-0.580301

>  <SCORE.INTRA>
-2.44837

>  <SCORE.INTRA.DIHEDRAL>
-7.62355

>  <SCORE.INTRA.DIHEDRAL.0>
16.4056

>  <SCORE.INTRA.POLAR>
0

>  <SCORE.INTRA.POLAR.0>
0

>  <SCORE.INTRA.REPUL>
0

>  <SCORE.INTRA.REPUL.0>
0

>  <SCORE.INTRA.SOLV>
1.46833

>  <SCORE.INTRA.SOLV.lig_0>
-90.9627

>  <SCORE.INTRA.VDW>
0.629241

>  <SCORE.INTRA.VDW.0>
-3.28744

>  <SCORE.INTRA.norm>
-0.0661722

>  <SCORE.RESTR>
0.0322172

>  <SCORE.RESTR.CAVITY>
0.0322172

>  <SCORE.RESTR.norm>
0.000870736

>  <SCORE.SYSTEM>
0

>  <SCORE.SYSTEM.CONST>
0

>  <SCORE.SYSTEM.DIHEDRAL>
0

>  <SCORE.SYSTEM.SOLV>
0

>  <SCORE.SYSTEM.norm>
0

>  <SCORE.heavy>
37

>  <SCORE.norm>
-0.645603

>  <RMSD>
2.272

$$$$
2oe8_lig
 OpenBabel11021811463D
libRbt.so/2013.1/901 2013/11/27
 37 40  0  0  0  0  0  0  0  0999 V2000
   20.1578    0.0591   53.5700 C   0  0  1  0  0  0  0  0  0  0  0  0
   19.4052    1.0340   52.5868 C   0  0  1  0  0  0  0  0  0  0  0  0
   18.3357    0.2442   51.8039 C   0  0  0  0  0  0  0  0  0  0  0  0
   19.1038   -0.8677   51.0231 C   0  0  1  0  0  0  0  0  0  0  0  0
   19.8971   -1.8625   52.0167 C   0  0  1  0  0  0  0  0  0  0  0  0
   20.6817   -2.9634   51.2446 C   0  0  1  0  0  0  0  0  0  0  0  0
   19.6331   -3.7620   50.3673 C   0  0  1  0  0  0  0  0  0  0  0  0
   18.8590   -2.7480   49.4550 C   0  0  2  0  0  0  0  0  0  0  0  0
   20.5172   -6.2209   50.1053 C   0  0  0  0  0  0  0  0  0  0  0  0
   18.7528    2.1464   53.3478 N   0  0  0  0  0  0  0  0  0  0  0  0
   20.3181   -4.8404   49.5323 N   0  0  0  0  0  0  0  0  0  0  0  0
   19.2656   -0.5127   54.5349 O   0  0  0  0  0  0  0  0  0  0  0  0
   20.8169   -1.0609   52.8358 O   0  0  0  0  0  0  0  0  0  0  0  0
   18.1791   -1.6666   50.2271 O   0  0  0  0  0  0  0  0  0  0  0  0
   21.6643   -2.2990   50.4484 O   0  0  0  0  0  0  0  0  0  0  0  0
   17.9013   -3.4340   48.7344 O   0  0  0  0  0  0  0  0  0  0  0  0
   17.7517   -2.9557   47.3869 C   0  0  2  0  0  0  0  0  0  0  0  0
   16.8904   -3.9408   46.5602 C   0  0  1  0  0  0  0  0  0  0  0  0
   17.6053   -5.3130   46.3656 C   0  0  2  0  0  0  0  0  0  0  0  0
   18.9716   -5.0853   45.6539 C   0  0  1  0  0  0  0  0  0  0  0  0
   19.8275   -4.1362   46.5920 C   0  0  1  0  0  0  0  0  0  0  0  0
   21.1951   -3.8221   45.9922 C   0  0  0  0  0  0  0  0  0  0  0  0
   19.6571   -6.3958   45.4664 N   0  0  0  0  0  0  0  0  0  0  0  0
   19.0931   -2.8324   46.7594 O   0  0  0  0  0  0  0  0  0  0  0  0
   15.6295   -4.0817   47.2424 O   0  0  0  0  0  0  0  0  0  0  0  0
   16.7819   -6.1348   45.5650 O   0  0  0  0  0  0  0  0  0  0  0  0
   21.9159   -5.0141   45.8227 O   0  0  0  0  0  0  0  0  0  0  0  0
   19.7817   -0.5181   55.8500 C   0  0  1  0  0  0  0  0  0  0  0  0
   21.3086   -0.8409   55.7723 C   0  0  1  0  0  0  0  0  0  0  0  0
   21.8842   -0.8812   57.2180 C   0  0  2  0  0  0  0  0  0  0  0  0
   21.6649    0.4840   57.9402 C   0  0  1  0  0  0  0  0  0  0  0  0
   20.1273    0.8236   58.0134 C   0  0  0  0  0  0  0  0  0  0  0  0
   19.5465    0.8698   56.5394 C   0  0  2  0  0  0  0  0  0  0  0  0
   22.2183    0.4183   59.3212 N   0  0  0  0  0  0  0  0  0  0  0  0
   18.1040    1.1928   56.6171 N   0  0  0  0  0  0  0  0  0  0  0  0
   21.5181   -2.1206   55.1465 O   0  0  0  0  0  0  0  0  0  0  0  0
   23.2693   -1.1685   57.1183 O   0  0  0  0  0  0  0  0  0  0  0  0
  1  2  1  0  0  0  0
  1 12  1  1  0  0  0
  1 13  1  0  0  0  0
  2  3  1  0  0  0  0
  2 10  1  1  0  0  0
  4  3  1  1  0  0  0
  4  5  1  0  0  0  0
  4 14  1  0  0  0  0
  5  6  1  0  0  0  0
  5 13  1  6  0  0  0
  6  7  1  0  0  0  0
  6 15  1  6  0  0  0
  7  8  1  0  0  0  0
  7 11  1  6  0  0  0
  8 14  1  0  0  0  0
  8 16  1  1  0  0  0
  9 11  1  0  0  0  0
 17 16  1  1  0  0  0
 17 18  1  0  0  0  0
 17 24  1  0  0  0  0
 18 19  1  0  0  0  0
 18 25  1  1  0  0  0
 19 20  1  0  0  0  0
 19 26  1  6  0  0  0
 20 21  1  0  0  0  0
 20 23  1  1  0  0  0
 21 22  1  6  0  0  0
 21 24  1  0  0  0  0
 22 27  1  0  0  0  0
 28 12  1  6  0  0  0
 28 29  1  0  0  0  0
 28 33  1  0  0  0  0
 29 30  1  0  0  0  0
 29 36  1  1  0  0  0
 30 31  1  0  0  0  0
 30 37  1  6  0  0  0
 31 32  1  0  0  0  0
 31 34  1  1  0  0  0
 32 33  1  0  0  0  0
 33 35  1  1  0  0  0
M  END
>  <CHROM.1>
-135.71625298,88.81388473,-141.86324703,168.32635404,-60.73678786,-38.19245732
19.68485838,-2.20664191,51.32410278,1.35833387,-0.54178771,1.01030951

>  <Name>
2oe8_lig

>  <RI>
0

>  <Rbt.Current_Directory>
/home/itssahil/PROJECTS/Mol_Feturizer/New_Systems/rnas/2oe8

>  <Rbt.Executable>
rbdock ($Id: //depot/dev/client3/rdock/2013.1/src/exe/rbdock.cxx#4 $)

>  <Rbt.Library>
libRbt.so (2013.1, Build901 2013/11/27)

>  <Rbt.Parameter_File>
/export/apps/rDock/src/rDock_2013.1_src/data/scripts/dock_solv.prm

>  <Rbt.Receptor>
prm/pocket_docking_7.prm

>  <SCORE>
-18.7852

>  <SCORE.INTER>
-21.26

>  <SCORE.INTER.CONST>
1

>  <SCORE.INTER.POLAR>
-1.73034

>  <SCORE.INTER.ROT>
6

>  <SCORE.INTER.SOLV>
20.7597

>  <SCORE.INTER.VDW>
-22.9255

>  <SCORE.INTER.norm>
-0.574595

>  <SCORE.INTRA>
2.47479

>  <SCORE.INTRA.DIHEDRAL>
-1.9828

>  <SCORE.INTRA.DIHEDRAL.0>
16.4056

>  <SCORE.INTRA.POLAR>
0

>  <SCORE.INTRA.POLAR.0>
0

>  <SCORE.INTRA.REPUL>
0

>  <SCORE.INTRA.REPUL.0>
0

>  <SCORE.INTRA.SOLV>
1.69757

>  <SCORE.INTRA.SOLV.lig_0>
-90.9627

>  <SCORE.INTRA.VDW>
2.6174

>  <SCORE.INTRA.VDW.0>
-3.28744

>  <SCORE.INTRA.norm>
0.0668862

>  <SCORE.RESTR>
0

>  <SCORE.RESTR.CAVITY>
0

>  <SCORE.RESTR.norm>
0

>  <SCORE.SYSTEM>
0

>  <SCORE.SYSTEM.CONST>
0

>  <SCORE.SYSTEM.DIHEDRAL>
0

>  <SCORE.SYSTEM.SOLV>
0

>  <SCORE.SYSTEM.norm>
0

>  <SCORE.heavy>
37

>  <SCORE.norm>
-0.507709

>  <RMSD>
2.279

$$$$
2oe8_lig
 OpenBabel11021811463D
libRbt.so/2013.1/901 2013/11/27
 37 40  0  0  0  0  0  0  0  0999 V2000
   19.8400    1.2123   53.6984 C   0  0  1  0  0  0  0  0  0  0  0  0
   19.4112    1.9812   52.3913 C   0  0  1  0  0  0  0  0  0  0  0  0
   18.4352    1.1040   51.5798 C   0  0  0  0  0  0  0  0  0  0  0  0
   19.2119   -0.2061   51.2387 C   0  0  1  0  0  0  0  0  0  0  0  0
   19.6759   -0.9945   52.5687 C   0  0  1  0  0  0  0  0  0  0  0  0
   20.4682   -2.2931   52.2372 C   0  0  1  0  0  0  0  0  0  0  0  0
   19.5302   -3.2019   51.3422 C   0  0  1  0  0  0  0  0  0  0  0  0
   19.0709   -2.3773   50.0897 C   0  0  2  0  0  0  0  0  0  0  0  0
   19.4513   -5.7604   50.7550 C   0  0  0  0  0  0  0  0  0  0  0  0
   18.7512    3.2797   52.7386 N   0  0  0  0  0  0  0  0  0  0  0  0
   20.2404   -4.4866   50.9242 N   0  0  0  0  0  0  0  0  0  0  0  0
   18.7161    0.9387   54.5446 O   0  0  0  0  0  0  0  0  0  0  0  0
   20.5003   -0.0877   53.3796 O   0  0  0  0  0  0  0  0  0  0  0  0
   18.3783   -1.1047   50.4482 O   0  0  0  0  0  0  0  0  0  0  0  0
   21.6572   -1.8964   51.5518 O   0  0  0  0  0  0  0  0  0  0  0  0
   18.2031   -3.1467   49.3399 O   0  0  0  0  0  0  0  0  0  0  0  0
   18.0962   -2.7155   47.9726 C   0  0  2  0  0  0  0  0  0  0  0  0
   17.3059   -3.7555   47.1422 C   0  0  1  0  0  0  0  0  0  0  0  0
   18.0751   -5.1068   47.0224 C   0  0  2  0  0  0  0  0  0  0  0  0
   19.4626   -4.8526   46.3625 C   0  0  1  0  0  0  0  0  0  0  0  0
   20.2438   -3.8455   47.3051 C   0  0  1  0  0  0  0  0  0  0  0  0
   21.6248   -3.5016   46.7542 C   0  0  0  0  0  0  0  0  0  0  0  0
   20.1999   -6.1431   46.2466 N   0  0  0  0  0  0  0  0  0  0  0  0
   19.4587   -2.5640   47.3991 O   0  0  0  0  0  0  0  0  0  0  0  0
   16.0221   -3.9200   47.7743 O   0  0  0  0  0  0  0  0  0  0  0  0
   17.3160   -5.9814   46.2143 O   0  0  0  0  0  0  0  0  0  0  0  0
   21.4919   -2.9518   45.4700 O   0  0  0  0  0  0  0  0  0  0  0  0
   18.9963    1.0810   55.9219 C   0  0  1  0  0  0  0  0  0  0  0  0
   20.1330    0.0753   56.2937 C   0  0  1  0  0  0  0  0  0  0  0  0
   20.4303    0.1992   57.8166 C   0  0  2  0  0  0  0  0  0  0  0  0
   20.8655    1.6525   58.1800 C   0  0  1  0  0  0  0  0  0  0  0  0
   19.7290    2.6758   57.7979 C   0  0  0  0  0  0  0  0  0  0  0  0
   19.4337    2.5508   56.2457 C   0  0  2  0  0  0  0  0  0  0  0  0
   21.1385    1.7466   59.6409 N   0  0  0  0  0  0  0  0  0  0  0  0
   18.3687    3.5173   55.8950 N   0  0  0  0  0  0  0  0  0  0  0  0
   19.7224   -1.2738   56.0027 O   0  0  0  0  0  0  0  0  0  0  0  0
   21.4677   -0.7171   58.1252 O   0  0  0  0  0  0  0  0  0  0  0  0
  1  2  1  0  0  0  0
  1 12  1  1  0  0  0
  1 13  1  0  0  0  0
  2  3  1  0  0  0  0
  2 10  1  1  0  0  0
  4  3  1  1  0  0  0
  4  5  1  0  0  0  0
  4 14  1  0  0  0  0
  5  6  1  0  0  0  0
  5 13  1  1  0  0  0
  6  7  1  0  0  0  0
  6 15  1  6  0  0  0
  7  8  1  0  0  0  0
  7 11  1  6  0  0  0
  8 14  1  0  0  0  0
  8 16  1  1  0  0  0
  9 11  1  0  0  0  0
 17 16  1  1  0  0  0
 17 18  1  0  0  0  0
 17 24  1  0  0  0  0
 18 19  1  0  0  0  0
 18 25  1  1  0  0  0
 19 20  1  0  0  0  0
 19 26  1  6  0  0  0
 20 21  1  0  0  0  0
 20 23  1  1  0  0  0
 21 22  1  6  0  0  0
 21 24  1  0  0  0  0
 22 27  1  0  0  0  0
 28 12  1  6  0  0  0
 28 29  1  0  0  0  0
 28 33  1  0  0  0  0
 29 30  1  0  0  0  0
 29 36  1  1  0  0  0
 30 31  1  0  0  0  0
 30 37  1  6  0  0  0
 31 32  1  0  0  0  0
 31 34  1  1  0  0  0
 32 33  1  0  0  0  0
 33 35  1  1  0  0  0
M  END
>  <CHROM.1>
-141.40022361,147.01242346,-158.93076732,170.37168852,57.74617227,-60.25903231
19.48629784,-1.41732074,51.75055115,1.38329440,-1.10356276,0.86183566

>  <Name>
2oe8_lig

>  <RI>
0

>  <Rbt.Current_Directory>
/home/itssahil/PROJECTS/Mol_Feturizer/New_Systems/rnas/2oe8

>  <Rbt.Executable>
rbdock ($Id: //depot/dev/client3/rdock/2013.1/src/exe/rbdock.cxx#4 $)

>  <Rbt.Library>
libRbt.so (2013.1, Build901 2013/11/27)

>  <Rbt.Parameter_File>
/export/apps/rDock/src/rDock_2013.1_src/data/scripts/dock_solv.prm

>  <Rbt.Receptor>
prm/pocket_docking_8.prm

>  <SCORE>
-24.2412

>  <SCORE.INTER>
-21.42

>  <SCORE.INTER.CONST>
1

>  <SCORE.INTER.POLAR>
-1.97199

>  <SCORE.INTER.ROT>
6

>  <SCORE.INTER.SOLV>
16.705

>  <SCORE.INTER.VDW>
-20.875

>  <SCORE.INTER.norm>
-0.578919

>  <SCORE.INTRA>
-2.82121

>  <SCORE.INTRA.DIHEDRAL>
-8.09146

>  <SCORE.INTRA.DIHEDRAL.0>
16.4056

>  <SCORE.INTRA.POLAR>
0

>  <SCORE.INTRA.POLAR.0>
0

>  <SCORE.INTRA.REPUL>
0

>  <SCORE.INTRA.REPUL.0>
0

>  <SCORE.INTRA.SOLV>
0.999615

>  <SCORE.INTRA.SOLV.lig_0>
-90.9627

>  <SCORE.INTRA.VDW>
0.724712

>  <SCORE.INTRA.VDW.0>
-3.28744

>  <SCORE.INTRA.norm>
-0.0762489

>  <SCORE.RESTR>
0

>  <SCORE.RESTR.CAVITY>
0

>  <SCORE.RESTR.norm>
0

>  <SCORE.SYSTEM>
0

>  <SCORE.SYSTEM.CONST>
0

>  <SCORE.SYSTEM.DIHEDRAL>
0

>  <SCORE.SYSTEM.SOLV>
0

>  <SCORE.SYSTEM.norm>
0

>  <SCORE.heavy>
37

>  <SCORE.norm>
-0.655168

>  <RMSD>
2.302

$$$$
2oe8_lig
 OpenBabel11021811463D
libRbt.so/2013.1/901 2013/11/27
 37 40  0  0  0  0  0  0  0  0999 V2000
   20.4917    1.2212   53.9002 C   0  0  1  0  0  0  0  0  0  0  0  0
   20.6326    2.0904   52.5933 C   0  0  1  0  0  0  0  0  0  0  0  0
   19.7200    1.5097   51.4930 C   0  0  0  0  0  0  0  0  0  0  0  0
   20.2056    0.0455   51.2560 C   0  0  1  0  0  0  0  0  0  0  0  0
   20.0865   -0.8521   52.5924 C   0  0  1  0  0  0  0  0  0  0  0  0
   20.5870   -2.3094   52.3695 C   0  0  1  0  0  0  0  0  0  0  0  0
   19.7240   -2.9297   51.1958 C   0  0  1  0  0  0  0  0  0  0  0  0
   19.8359   -1.9993   49.9382 C   0  0  2  0  0  0  0  0  0  0  0  0
   19.1601   -5.4649   50.8071 C   0  0  0  0  0  0  0  0  0  0  0  0
   20.2510    3.5127   52.8650 N   0  0  0  0  0  0  0  0  0  0  0  0
   20.1745   -4.3510   50.8699 N   0  0  0  0  0  0  0  0  0  0  0  0
   19.1520    1.2430   54.4089 O   0  0  0  0  0  0  0  0  0  0  0  0
   20.8656   -0.2029   53.6560 O   0  0  0  0  0  0  0  0  0  0  0  0
   19.4147   -0.5935   50.2104 O   0  0  0  0  0  0  0  0  0  0  0  0
   21.9753   -2.2314   52.0422 O   0  0  0  0  0  0  0  0  0  0  0  0
   19.0347   -2.5051   48.9336 O   0  0  0  0  0  0  0  0  0  0  0  0
   19.6152   -2.3786   47.6244 C   0  0  2  0  0  0  0  0  0  0  0  0
   18.6099   -2.8457   46.5442 C   0  0  1  0  0  0  0  0  0  0  0  0
   18.3154   -4.3736   46.6487 C   0  0  2  0  0  0  0  0  0  0  0  0
   19.6481   -5.1660   46.5035 C   0  0  1  0  0  0  0  0  0  0  0  0
   20.5948   -4.6963   47.6852 C   0  0  1  0  0  0  0  0  0  0  0  0
   21.9509   -5.3949   47.6432 C   0  0  0  0  0  0  0  0  0  0  0  0
   19.3691   -6.6271   46.6028 N   0  0  0  0  0  0  0  0  0  0  0  0
   20.8400   -3.2168   47.5488 O   0  0  0  0  0  0  0  0  0  0  0  0
   17.4165   -2.0545   46.7010 O   0  0  0  0  0  0  0  0  0  0  0  0
   17.4330   -4.7297   45.6051 O   0  0  0  0  0  0  0  0  0  0  0  0
   22.7126   -5.0037   48.7548 O   0  0  0  0  0  0  0  0  0  0  0  0
   19.0793    1.4528   55.8041 C   0  0  1  0  0  0  0  0  0  0  0  0
   17.6345    1.9381   56.1486 C   0  0  1  0  0  0  0  0  0  0  0  0
   17.5492    2.2035   57.6800 C   0  0  2  0  0  0  0  0  0  0  0  0
   17.8828    0.9103   58.4862 C   0  0  1  0  0  0  0  0  0  0  0  0
   19.3350    0.4068   58.1365 C   0  0  0  0  0  0  0  0  0  0  0  0
   19.4157    0.1317   56.5777 C   0  0  2  0  0  0  0  0  0  0  0  0
   17.7999    1.1911   59.9463 N   0  0  0  0  0  0  0  0  0  0  0  0
   20.7806   -0.3441   56.2588 N   0  0  0  0  0  0  0  0  0  0  0  0
   17.3342    3.1564   55.4424 O   0  0  0  0  0  0  0  0  0  0  0  0
   16.2290    2.6351   57.9658 O   0  0  0  0  0  0  0  0  0  0  0  0
  1  2  1  0  0  0  0
  1 12  1  6  0  0  0
  1 13  1  0  0  0  0
  2  3  1  0  0  0  0
  2 10  1  1  0  0  0
  4  3  1  1  0  0  0
  4  5  1  0  0  0  0
  4 14  1  0  0  0  0
  5  6  1  0  0  0  0
  5 13  1  1  0  0  0
  6  7  1  0  0  0  0
  6 15  1  6  0  0  0
  7  8  1  0  0  0  0
  7 11  1  6  0  0  0
  8 14  1  0  0  0  0
  8 16  1  6  0  0  0
  9 11  1  0  0  0  0
 17 16  1  1  0  0  0
 17 18  1  0  0  0  0
 17 24  1  0  0  0  0
 18 19  1  0  0  0  0
 18 25  1  1  0  0  0
 19 20  1  0  0  0  0
 19 26  1  6  0  0  0
 20 21  1  0  0  0  0
 20 23  1  1  0  0  0
 21 22  1  6  0  0  0
 21 24  1  0  0  0  0
 22 27  1  0  0  0  0
 28 12  1  6  0  0  0
 28 29  1  0  0  0  0
 28 33  1  0  0  0  0
 29 30  1  0  0  0  0
 29 36  1  6  0  0  0
 30 31  1  0  0  0  0
 30 37  1  6  0  0  0
 31 32  1  0  0  0  0
 31 34  1  1  0  0  0
 32 33  1  0  0  0  0
 33 35  1  1  0  0  0
M  END
>  <CHROM.1>
-134.21071640,128.80240190,-141.81373344,-174.82236752,-176.39017068,160.85779440
19.47729696,-1.27419311,51.83598547,1.77393075,-1.02124709,1.17794505

>  <Name>
2oe8_lig

>  <RI>
0

>  <Rbt.Current_Directory>
/home/itssahil/PROJECTS/Mol_Feturizer/New_Systems/rnas/2oe8

>  <Rbt.Executable>
rbdock ($Id: //depot/dev/client3/rdock/2013.1/src/exe/rbdock.cxx#4 $)

>  <Rbt.Library>
libRbt.so (2013.1, Build901 2013/11/27)

>  <Rbt.Parameter_File>
/export/apps/rDock/src/rDock_2013.1_src/data/scripts/dock_solv.prm

>  <Rbt.Receptor>
prm/pocket_docking_4.prm

>  <SCORE>
-15.1762

>  <SCORE.INTER>
-13.921

>  <SCORE.INTER.CONST>
1

>  <SCORE.INTER.POLAR>
-1.07758

>  <SCORE.INTER.ROT>
6

>  <SCORE.INTER.SOLV>
12.609

>  <SCORE.INTER.VDW>
-17.4917

>  <SCORE.INTER.norm>
-0.376243

>  <SCORE.INTRA>
-1.25524

>  <SCORE.INTRA.DIHEDRAL>
-2.11863

>  <SCORE.INTRA.DIHEDRAL.0>
16.4056

>  <SCORE.INTRA.POLAR>
0

>  <SCORE.INTRA.POLAR.0>
0

>  <SCORE.INTRA.REPUL>
0

>  <SCORE.INTRA.REPUL.0>
0

>  <SCORE.INTRA.SOLV>
0.983498

>  <SCORE.INTRA.SOLV.lig_0>
-90.9627

>  <SCORE.INTRA.VDW>
-0.687674

>  <SCORE.INTRA.VDW.0>
-3.28744

>  <SCORE.INTRA.norm>
-0.0339254

>  <SCORE.RESTR>
0

>  <SCORE.RESTR.CAVITY>
0

>  <SCORE.RESTR.norm>
0

>  <SCORE.SYSTEM>
0

>  <SCORE.SYSTEM.CONST>
0

>  <SCORE.SYSTEM.DIHEDRAL>
0

>  <SCORE.SYSTEM.SOLV>
0

>  <SCORE.SYSTEM.norm>
0

>  <SCORE.heavy>
37

>  <SCORE.norm>
-0.410168

>  <RMSD>
2.310

$$$$
2oe8_lig
 OpenBabel11021811463D
libRbt.so/2013.1/901 2013/11/27
 37 40  0  0  0  0  0  0  0  0999 V2000
   19.8689    1.1877   53.8031 C   0  0  1  0  0  0  0  0  0  0  0  0
   19.4315    1.9816   52.5139 C   0  0  1  0  0  0  0  0  0  0  0  0
   18.4538    1.1181   51.6898 C   0  0  0  0  0  0  0  0  0  0  0  0
   19.2323   -0.1826   51.3185 C   0  0  1  0  0  0  0  0  0  0  0  0
   19.7052   -0.9964   52.6300 C   0  0  1  0  0  0  0  0  0  0  0  0
   20.4993   -2.2857   52.2684 C   0  0  1  0  0  0  0  0  0  0  0  0
   19.5593   -3.1790   51.3600 C   0  0  1  0  0  0  0  0  0  0  0  0
   19.0914   -2.3306   50.1266 C   0  0  2  0  0  0  0  0  0  0  0  0
   21.5844   -4.3613   50.1777 C   0  0  0  0  0  0  0  0  0  0  0  0
   18.7697    3.2709   52.8906 N   0  0  0  0  0  0  0  0  0  0  0  0
   20.2709   -4.4530   50.9127 N   0  0  0  0  0  0  0  0  0  0  0  0
   18.7501    0.8939   54.6492 O   0  0  0  0  0  0  0  0  0  0  0  0
   20.5312   -0.1037   53.4548 O   0  0  0  0  0  0  0  0  0  0  0  0
   18.3972   -1.0675   50.5142 O   0  0  0  0  0  0  0  0  0  0  0  0
   21.6837   -1.8720   51.5852 O   0  0  0  0  0  0  0  0  0  0  0  0
   18.2220   -3.0873   49.3659 O   0  0  0  0  0  0  0  0  0  0  0  0
   18.0190   -2.5627   48.0428 C   0  0  2  0  0  0  0  0  0  0  0  0
   17.3410   -3.6239   47.1430 C   0  0  1  0  0  0  0  0  0  0  0  0
   18.2706   -4.8507   46.8926 C   0  0  2  0  0  0  0  0  0  0  0  0
   19.5937   -4.3671   46.2287 C   0  0  1  0  0  0  0  0  0  0  0  0
   20.2703   -3.3487   47.2377 C   0  0  1  0  0  0  0  0  0  0  0  0
   21.5790   -2.7862   46.6901 C   0  0  0  0  0  0  0  0  0  0  0  0
   20.4842   -5.5383   45.9881 N   0  0  0  0  0  0  0  0  0  0  0  0
   19.3329   -2.1908   47.4567 O   0  0  0  0  0  0  0  0  0  0  0  0
   16.1085   -4.0034   47.7848 O   0  0  0  0  0  0  0  0  0  0  0  0
   17.6033   -5.7465   46.0285 O   0  0  0  0  0  0  0  0  0  0  0  0
   22.0961   -1.8437   47.5921 O   0  0  0  0  0  0  0  0  0  0  0  0
   19.0331    1.0225   56.0273 C   0  0  1  0  0  0  0  0  0  0  0  0
   20.1787    0.0217   56.3844 C   0  0  1  0  0  0  0  0  0  0  0  0
   20.4793    0.1304   57.9078 C   0  0  2  0  0  0  0  0  0  0  0  0
   20.9041    1.5828   58.2867 C   0  0  1  0  0  0  0  0  0  0  0  0
   19.7585    2.6014   57.9196 C   0  0  0  0  0  0  0  0  0  0  0  0
   19.4598    2.4920   56.3669 C   0  0  2  0  0  0  0  0  0  0  0  0
   21.1805    1.6622   59.7479 N   0  0  0  0  0  0  0  0  0  0  0  0
   18.3862    3.4539   56.0303 N   0  0  0  0  0  0  0  0  0  0  0  0
   19.7779   -1.3271   56.0789 O   0  0  0  0  0  0  0  0  0  0  0  0
   21.5248   -0.7811   58.2029 O   0  0  0  0  0  0  0  0  0  0  0  0
  1  2  1  0  0  0  0
  1 12  1  1  0  0  0
  1 13  1  0  0  0  0
  2  3  1  0  0  0  0
  2 10  1  1  0  0  0
  4  3  1  1  0  0  0
  4  5  1  0  0  0  0
  4 14  1  0  0  0  0
  5  6  1  0  0  0  0
  5 13  1  1  0  0  0
  6  7  1  0  0  0  0
  6 15  1  6  0  0  0
  7  8  1  0  0  0  0
  7 11  1  6  0  0  0
  8 14  1  0  0  0  0
  8 16  1  1  0  0  0
  9 11  1  0  0  0  0
 17 16  1  1  0  0  0
 17 18  1  0  0  0  0
 17 24  1  0  0  0  0
 18 19  1  0  0  0  0
 18 25  1  1  0  0  0
 19 20  1  0  0  0  0
 19 26  1  6  0  0  0
 20 21  1  0  0  0  0
 20 23  1  1  0  0  0
 21 22  1  6  0  0  0
 21 24  1  0  0  0  0
 22 27  1  0  0  0  0
 28 12  1  6  0  0  0
 28 29  1  0  0  0  0
 28 33  1  0  0  0  0
 29 30  1  0  0  0  0
 29 36  1  1  0  0  0
 30 31  1  0  0  0  0
 30 37  1  6  0  0  0
 31 32  1  0  0  0  0
 31 34  1  1  0  0  0
 32 33  1  0  0  0  0
 33 35  1  1  0  0  0
M  END
>  <CHROM.1>
-140.78722975,-55.96504417,-163.94433411,165.64598354,177.04423357,-60.32947495
19.60842802,-1.26679116,51.83457022,1.44228094,-0.89977978,0.96446963

>  <Name>
2oe8_lig

>  <RI>
0

>  <Rbt.Current_Directory>
/home/itssahil/PROJECTS/Mol_Feturizer/New_Systems/rnas/2oe8

>  <Rbt.Executable>
rbdock ($Id: //depot/dev/client3/rdock/2013.1/src/exe/rbdock.cxx#4 $)

>  <Rbt.Library>
libRbt.so (2013.1, Build901 2013/11/27)

>  <Rbt.Parameter_File>
/export/apps/rDock/src/rDock_2013.1_src/data/scripts/dock_solv.prm

>  <Rbt.Receptor>
prm/pocket_docking_6.prm

>  <SCORE>
-21.9197

>  <SCORE.INTER>
-19.958

>  <SCORE.INTER.CONST>
1

>  <SCORE.INTER.POLAR>
-1.89647

>  <SCORE.INTER.ROT>
6

>  <SCORE.INTER.SOLV>
16.774

>  <SCORE.INTER.VDW>
-20.1751

>  <SCORE.INTER.norm>
-0.539407

>  <SCORE.INTRA>
-1.96169

>  <SCORE.INTRA.DIHEDRAL>
-8.90267

>  <SCORE.INTRA.DIHEDRAL.0>
16.4056

>  <SCORE.INTRA.POLAR>
0

>  <SCORE.INTRA.POLAR.0>
0

>  <SCORE.INTRA.REPUL>
0.0142407

>  <SCORE.INTRA.REPUL.0>
0

>  <SCORE.INTRA.SOLV>
0.760879

>  <SCORE.INTRA.SOLV.lig_0>
-90.9627

>  <SCORE.INTRA.VDW>
2.03801

>  <SCORE.INTRA.VDW.0>
-3.28744

>  <SCORE.INTRA.norm>
-0.0530185

>  <SCORE.RESTR>
0

>  <SCORE.RESTR.CAVITY>
0

>  <SCORE.RESTR.norm>
0

>  <SCORE.SYSTEM>
0

>  <SCORE.SYSTEM.CONST>
0

>  <SCORE.SYSTEM.DIHEDRAL>
0

>  <SCORE.SYSTEM.SOLV>
0

>  <SCORE.SYSTEM.norm>
0

>  <SCORE.heavy>
37

>  <SCORE.norm>
-0.592425

>  <RMSD>
2.314

$$$$
2oe8_lig
 OpenBabel11021811463D
libRbt.so/2013.1/901 2013/11/27
 37 40  0  0  0  0  0  0  0  0999 V2000
   22.8028   -1.2507   53.6359 C   0  0  1  0  0  0  0  0  0  0  0  0
   22.3828   -0.0873   52.6594 C   0  0  1  0  0  0  0  0  0  0  0  0
   21.2133   -0.5625   51.7723 C   0  0  0  0  0  0  0  0  0  0  0  0
   21.7431   -1.8013   50.9844 C   0  0  1  0  0  0  0  0  0  0  0  0
   22.1968   -2.9943   51.9728 C   0  0  1  0  0  0  0  0  0  0  0  0
   22.7447   -4.2268   51.1952 C   0  0  1  0  0  0  0  0  0  0  0  0
   21.6001   -4.7124   50.2149 C   0  0  1  0  0  0  0  0  0  0  0  0
   21.1635   -3.5083   49.3097 C   0  0  2  0  0  0  0  0  0  0  0  0
   21.0933   -7.0026   49.0339 C   0  0  0  0  0  0  0  0  0  0  0  0
   21.9665    1.1243   53.4346 N   0  0  0  0  0  0  0  0  0  0  0  0
   22.0615   -5.8965   49.3696 N   0  0  0  0  0  0  0  0  0  0  0  0
   21.7310   -1.6188   54.5131 O   0  0  0  0  0  0  0  0  0  0  0  0
   23.2218   -2.4721   52.8873 O   0  0  0  0  0  0  0  0  0  0  0  0
   20.7123   -2.3205   50.0928 O   0  0  0  0  0  0  0  0  0  0  0  0
   23.9142   -3.7970   50.4965 O   0  0  0  0  0  0  0  0  0  0  0  0
   20.1228   -3.9126   48.4970 O   0  0  0  0  0  0  0  0  0  0  0  0
   19.5612   -2.8434   47.7170 C   0  0  2  0  0  0  0  0  0  0  0  0
   18.0683   -3.1231   47.4194 C   0  0  1  0  0  0  0  0  0  0  0  0
   17.8847   -4.3641   46.4929 C   0  0  2  0  0  0  0  0  0  0  0  0
   18.6510   -4.1277   45.1579 C   0  0  1  0  0  0  0  0  0  0  0  0
   20.1787   -3.9297   45.5322 C   0  0  1  0  0  0  0  0  0  0  0  0
   21.0402   -3.6714   44.2993 C   0  0  0  0  0  0  0  0  0  0  0  0
   18.4768   -5.3128   44.2703 N   0  0  0  0  0  0  0  0  0  0  0  0
   20.3035   -2.7307   46.4346 O   0  0  0  0  0  0  0  0  0  0  0  0
   17.4049   -3.2935   48.6866 O   0  0  0  0  0  0  0  0  0  0  0  0
   16.5065   -4.5236   46.2296 O   0  0  0  0  0  0  0  0  0  0  0  0
   22.3889   -3.5954   44.6794 O   0  0  0  0  0  0  0  0  0  0  0  0
   21.5078   -0.6911   55.5550 C   0  0  1  0  0  0  0  0  0  0  0  0
   19.9656   -0.5646   55.7718 C   0  0  1  0  0  0  0  0  0  0  0  0
   19.7039    0.4790   56.8967 C   0  0  2  0  0  0  0  0  0  0  0  0
   20.3947    0.0456   58.2266 C   0  0  1  0  0  0  0  0  0  0  0  0
   21.9503   -0.0956   58.0145 C   0  0  0  0  0  0  0  0  0  0  0  0
   22.2125   -1.1635   56.8730 C   0  0  2  0  0  0  0  0  0  0  0  0
   20.1346    1.0614   59.2841 N   0  0  0  0  0  0  0  0  0  0  0  0
   23.6748   -1.2926   56.6830 N   0  0  0  0  0  0  0  0  0  0  0  0
   19.3247   -0.1218   54.5609 O   0  0  0  0  0  0  0  0  0  0  0  0
   18.3003    0.5691   57.0777 O   0  0  0  0  0  0  0  0  0  0  0  0
  1  2  1  0  0  0  0
  1 12  1  1  0  0  0
  1 13  1  0  0  0  0
  2  3  1  0  0  0  0
  2 10  1  1  0  0  0
  4  3  1  1  0  0  0
  4  5  1  0  0  0  0
  4 14  1  0  0  0  0
  5  6  1  0  0  0  0
  5 13  1  1  0  0  0
  6  7  1  0  0  0  0
  6 15  1  6  0  0  0
  7  8  1  0  0  0  0
  7 11  1  6  0  0  0
  8 14  1  0  0  0  0
  8 16  1  6  0  0  0
  9 11  1  0  0  0  0
 17 16  1  1  0  0  0
 17 18  1  0  0  0  0
 17 24  1  0  0  0  0
 18 19  1  0  0  0  0
 18 25  1  1  0  0  0
 19 20  1  0  0  0  0
 19 26  1  6  0  0  0
 20 21  1  0  0  0  0
 20 23  1  6  0  0  0
 21 22  1  6  0  0  0
 21 24  1  0  0  0  0
 22 27  1  0  0  0  0
 28 12  1  6  0  0  0
 28 29  1  0  0  0  0
 28 33  1  0  0  0  0
 29 30  1  0  0  0  0
 29 36  1  6  0  0  0
 30 31  1  0  0  0  0
 30 37  1  1  0  0  0
 31 32  1  0  0  0  0
 31 34  1  1  0  0  0
 32 33  1  0  0  0  0
 33 35  1  6  0  0  0
M  END
>  <CHROM.1>
-75.15851331,143.12700576,174.31272276,-151.32605033,-176.00071571,141.09807778
20.74911845,-2.40536240,51.19249246,-1.43934844,0.27946650,-1.98237330

>  <Name>
2oe8_lig

>  <RI>
0

>  <Rbt.Current_Directory>
/home/itssahil/PROJECTS/Mol_Feturizer/New_Systems/rnas/2oe8

>  <Rbt.Executable>
rbdock ($Id: //depot/dev/client3/rdock/2013.1/src/exe/rbdock.cxx#4 $)

>  <Rbt.Library>
libRbt.so (2013.1, Build901 2013/11/27)

>  <Rbt.Parameter_File>
/export/apps/rDock/src/rDock_2013.1_src/data/scripts/dock_solv.prm

>  <Rbt.Receptor>
prm/pocket_docking_4.prm

>  <SCORE>
-21.7238

>  <SCORE.INTER>
-19.0924

>  <SCORE.INTER.CONST>
1

>  <SCORE.INTER.POLAR>
-1.5245

>  <SCORE.INTER.ROT>
6

>  <SCORE.INTER.SOLV>
14.5789

>  <SCORE.INTER.VDW>
-20.1063

>  <SCORE.INTER.norm>
-0.516012

>  <SCORE.INTRA>
-2.63135

>  <SCORE.INTRA.DIHEDRAL>
-5.68024

>  <SCORE.INTRA.DIHEDRAL.0>
16.4056

>  <SCORE.INTRA.POLAR>
0

>  <SCORE.INTRA.POLAR.0>
0

>  <SCORE.INTRA.REPUL>
0

>  <SCORE.INTRA.REPUL.0>
0

>  <SCORE.INTRA.SOLV>
-0.0350664

>  <SCORE.INTRA.SOLV.lig_0>
-90.9627

>  <SCORE.INTRA.VDW>
0.226303

>  <SCORE.INTRA.VDW.0>
-3.28744

>  <SCORE.INTRA.norm>
-0.0711176

>  <SCORE.RESTR>
0

>  <SCORE.RESTR.CAVITY>
0

>  <SCORE.RESTR.norm>
0

>  <SCORE.SYSTEM>
0

>  <SCORE.SYSTEM.CONST>
0

>  <SCORE.SYSTEM.DIHEDRAL>
0

>  <SCORE.SYSTEM.SOLV>
0

>  <SCORE.SYSTEM.norm>
0

>  <SCORE.heavy>
37

>  <SCORE.norm>
-0.587129

>  <RMSD>
2.326

$$$$
2oe8_lig
 OpenBabel11021811463D
libRbt.so/2013.1/901 2013/11/27
 37 40  0  0  0  0  0  0  0  0999 V2000
   22.9710   -0.3951   53.0324 C   0  0  1  0  0  0  0  0  0  0  0  0
   23.1856    0.4199   51.7008 C   0  0  1  0  0  0  0  0  0  0  0  0
   21.9961    0.1686   50.7509 C   0  0  0  0  0  0  0  0  0  0  0  0
   21.9764   -1.3681   50.4789 C   0  0  1  0  0  0  0  0  0  0  0  0
   21.7778   -2.2174   51.8372 C   0  0  1  0  0  0  0  0  0  0  0  0
   21.7762   -3.7524   51.5770 C   0  0  1  0  0  0  0  0  0  0  0  0
   20.6112   -4.0548   50.5483 C   0  0  1  0  0  0  0  0  0  0  0  0
   20.8240   -3.1739   49.2683 C   0  0  2  0  0  0  0  0  0  0  0  0
   19.7851   -6.4935   51.0652 C   0  0  0  0  0  0  0  0  0  0  0  0
   23.2955    1.8844   51.9934 N   0  0  0  0  0  0  0  0  0  0  0  0
   20.5591   -5.5381   50.1923 N   0  0  0  0  0  0  0  0  0  0  0  0
   21.7855    0.0205   53.7224 O   0  0  0  0  0  0  0  0  0  0  0  0
   22.8572   -1.8596   52.7680 O   0  0  0  0  0  0  0  0  0  0  0  0
   20.8914   -1.7131   49.5673 O   0  0  0  0  0  0  0  0  0  0  0  0
   23.0630   -4.0919   51.0577 O   0  0  0  0  0  0  0  0  0  0  0  0
   19.7754   -3.3899   48.3960 O   0  0  0  0  0  0  0  0  0  0  0  0
   19.7932   -2.5136   47.2564 C   0  0  2  0  0  0  0  0  0  0  0  0
   18.4440   -2.5873   46.5015 C   0  0  1  0  0  0  0  0  0  0  0  0
   18.2152   -3.9899   45.8592 C   0  0  2  0  0  0  0  0  0  0  0  0
   19.3835   -4.3037   44.8785 C   0  0  1  0  0  0  0  0  0  0  0  0
   20.7188   -4.2904   45.7328 C   0  0  1  0  0  0  0  0  0  0  0  0
   21.9491   -4.5712   44.8747 C   0  0  0  0  0  0  0  0  0  0  0  0
   19.1669   -5.6441   44.2629 N   0  0  0  0  0  0  0  0  0  0  0  0
   20.8897   -2.9234   46.3408 O   0  0  0  0  0  0  0  0  0  0  0  0
   17.4084   -2.2506   47.4444 O   0  0  0  0  0  0  0  0  0  0  0  0
   16.9933   -3.9620   45.1517 O   0  0  0  0  0  0  0  0  0  0  0  0
   22.1094   -3.5402   43.9363 O   0  0  0  0  0  0  0  0  0  0  0  0
   21.9556    0.1382   55.1199 C   0  0  1  0  0  0  0  0  0  0  0  0
   20.7463    0.9465   55.6909 C   0  0  1  0  0  0  0  0  0  0  0  0
   20.9369    1.1110   57.2270 C   0  0  2  0  0  0  0  0  0  0  0  0
   21.0252   -0.2804   57.9268 C   0  0  1  0  0  0  0  0  0  0  0  0
   22.2361   -1.1078   57.3489 C   0  0  0  0  0  0  0  0  0  0  0  0
   22.0350   -1.2784   55.7860 C   0  0  2  0  0  0  0  0  0  0  0  0
   21.2127   -0.0964   59.3926 N   0  0  0  0  0  0  0  0  0  0  0  0
   23.1737   -2.0592   55.2525 N   0  0  0  0  0  0  0  0  0  0  0  0
   20.6836    2.2498   55.0822 O   0  0  0  0  0  0  0  0  0  0  0  0
   19.8250    1.8402   57.7197 O   0  0  0  0  0  0  0  0  0  0  0  0
  1  2  1  0  0  0  0
  1 12  1  6  0  0  0
  1 13  1  0  0  0  0
  2  3  1  0  0  0  0
  2 10  1  1  0  0  0
  4  3  1  1  0  0  0
  4  5  1  0  0  0  0
  4 14  1  0  0  0  0
  5  6  1  0  0  0  0
  5 13  1  1  0  0  0
  6  7  1  0  0  0  0
  6 15  1  6  0  0  0
  7  8  1  0  0  0  0
  7 11  1  6  0  0  0
  8 14  1  0  0  0  0
  8 16  1  6  0  0  0
  9 11  1  0  0  0  0
 17 16  1  1  0  0  0
 17 18  1  0  0  0  0
 17 24  1  0  0  0  0
 18 19  1  0  0  0  0
 18 25  1  1  0  0  0
 19 20  1  0  0  0  0
 19 26  1  6  0  0  0
 20 21  1  0  0  0  0
 20 23  1  1  0  0  0
 21 22  1  6  0  0  0
 21 24  1  0  0  0  0
 22 27  1  0  0  0  0
 28 12  1  6  0  0  0
 28 29  1  0  0  0  0
 28 33  1  0  0  0  0
 29 30  1  0  0  0  0
 29 36  1  6  0  0  0
 30 31  1  0  0  0  0
 30 37  1  1  0  0  0
 31 32  1  0  0  0  0
 31 34  1  1  0  0  0
 32 33  1  0  0  0  0
 33 35  1  6  0  0  0
M  END
>  <CHROM.1>
-137.56258037,85.89588203,173.20873104,-167.26355306,64.04550566,165.06617946
20.95512994,-2.02211256,50.94950437,0.38360604,-1.39476040,-0.00210364

>  <Name>
2oe8_lig

>  <RI>
0

>  <Rbt.Current_Directory>
/home/itssahil/PROJECTS/Mol_Feturizer/New_Systems/rnas/2oe8

>  <Rbt.Executable>
rbdock ($Id: //depot/dev/client3/rdock/2013.1/src/exe/rbdock.cxx#4 $)

>  <Rbt.Library>
libRbt.so (2013.1, Build901 2013/11/27)

>  <Rbt.Parameter_File>
/export/apps/rDock/src/rDock_2013.1_src/data/scripts/dock_solv.prm

>  <Rbt.Receptor>
prm/pocket_docking_6.prm

>  <SCORE>
-12.412

>  <SCORE.INTER>
-9.94325

>  <SCORE.INTER.CONST>
1

>  <SCORE.INTER.POLAR>
-0.148831

>  <SCORE.INTER.ROT>
6

>  <SCORE.INTER.SOLV>
16.5966

>  <SCORE.INTER.VDW>
-19.2649

>  <SCORE.INTER.norm>
-0.268736

>  <SCORE.INTRA>
-2.47041

>  <SCORE.INTRA.DIHEDRAL>
-8.02901

>  <SCORE.INTRA.DIHEDRAL.0>
16.4056

>  <SCORE.INTRA.POLAR>
0

>  <SCORE.INTRA.POLAR.0>
0

>  <SCORE.INTRA.REPUL>
0

>  <SCORE.INTRA.REPUL.0>
0

>  <SCORE.INTRA.SOLV>
-0.247172

>  <SCORE.INTRA.SOLV.lig_0>
-90.9627

>  <SCORE.INTRA.VDW>
1.66768

>  <SCORE.INTRA.VDW.0>
-3.28744

>  <SCORE.INTRA.norm>
-0.0667679

>  <SCORE.RESTR>
0.00169992

>  <SCORE.RESTR.CAVITY>
0.00169992

>  <SCORE.RESTR.norm>
4.59437e-05

>  <SCORE.SYSTEM>
0

>  <SCORE.SYSTEM.CONST>
0

>  <SCORE.SYSTEM.DIHEDRAL>
0

>  <SCORE.SYSTEM.SOLV>
0

>  <SCORE.SYSTEM.norm>
0

>  <SCORE.heavy>
37

>  <SCORE.norm>
-0.335458

>  <RMSD>
2.331

$$$$
2oe8_lig
 OpenBabel11021811463D
libRbt.so/2013.1/901 2013/11/27
 37 40  0  0  0  0  0  0  0  0999 V2000
   20.1452    0.9610   53.7360 C   0  0  1  0  0  0  0  0  0  0  0  0
   19.8446    1.7897   52.4296 C   0  0  1  0  0  0  0  0  0  0  0  0
   18.8043    1.0361   51.5750 C   0  0  0  0  0  0  0  0  0  0  0  0
   19.4429   -0.3469   51.2355 C   0  0  1  0  0  0  0  0  0  0  0  0
   19.7757   -1.1992   52.5655 C   0  0  1  0  0  0  0  0  0  0  0  0
   20.4308   -2.5726   52.2362 C   0  0  1  0  0  0  0  0  0  0  0  0
   19.4273   -3.3607   51.2988 C   0  0  1  0  0  0  0  0  0  0  0  0
   19.1008   -2.4741   50.0469 C   0  0  2  0  0  0  0  0  0  0  0  0
   19.0832   -5.8758   50.6260 C   0  0  0  0  0  0  0  0  0  0  0  0
   19.3204    3.1482   52.7786 N   0  0  0  0  0  0  0  0  0  0  0  0
   20.0052   -4.7101   50.8809 N   0  0  0  0  0  0  0  0  0  0  0  0
   18.9721    0.8016   54.5437 O   0  0  0  0  0  0  0  0  0  0  0  0
   20.6687   -0.3994   53.4154 O   0  0  0  0  0  0  0  0  0  0  0  0
   18.5411   -1.1378   50.4058 O   0  0  0  0  0  0  0  0  0  0  0  0
   21.6770   -2.3003   51.5932 O   0  0  0  0  0  0  0  0  0  0  0  0
   18.1779   -3.1333   49.2591 O   0  0  0  0  0  0  0  0  0  0  0  0
   18.0265   -2.5525   47.9527 C   0  0  2  0  0  0  0  0  0  0  0  0
   17.4837   -3.6057   46.9567 C   0  0  1  0  0  0  0  0  0  0  0  0
   18.5101   -4.7538   46.7110 C   0  0  2  0  0  0  0  0  0  0  0  0
   19.8374   -4.1496   46.1648 C   0  0  1  0  0  0  0  0  0  0  0  0
   20.3746   -3.1451   47.2672 C   0  0  1  0  0  0  0  0  0  0  0  0
   21.6746   -2.4695   46.8399 C   0  0  0  0  0  0  0  0  0  0  0  0
   20.8203   -5.2455   45.9287 N   0  0  0  0  0  0  0  0  0  0  0  0
   19.3474   -2.0644   47.4778 O   0  0  0  0  0  0  0  0  0  0  0  0
   16.2408   -4.0990   47.4923 O   0  0  0  0  0  0  0  0  0  0  0  0
   17.9642   -5.6433   45.7596 O   0  0  0  0  0  0  0  0  0  0  0  0
   22.0794   -1.5648   47.8332 O   0  0  0  0  0  0  0  0  0  0  0  0
   19.0354    1.4892   55.7762 C   0  0  1  0  0  0  0  0  0  0  0  0
   17.6891    2.2570   55.9749 C   0  0  1  0  0  0  0  0  0  0  0  0
   17.7573    3.0451   57.3154 C   0  0  2  0  0  0  0  0  0  0  0  0
   18.0007    2.0782   58.5152 C   0  0  1  0  0  0  0  0  0  0  0  0
   19.3519    1.2907   58.3179 C   0  0  0  0  0  0  0  0  0  0  0  0
   19.2759    0.4848   56.9552 C   0  0  2  0  0  0  0  0  0  0  0  0
   18.0675    2.8556   59.7836 N   0  0  0  0  0  0  0  0  0  0  0  0
   20.5463   -0.2544   56.7798 N   0  0  0  0  0  0  0  0  0  0  0  0
   17.4778    3.1845   54.8940 O   0  0  0  0  0  0  0  0  0  0  0  0
   16.5233    3.7256   57.4741 O   0  0  0  0  0  0  0  0  0  0  0  0
  1  2  1  0  0  0  0
  1 12  1  6  0  0  0
  1 13  1  0  0  0  0
  2  3  1  0  0  0  0
  2 10  1  1  0  0  0
  4  3  1  1  0  0  0
  4  5  1  0  0  0  0
  4 14  1  0  0  0  0
  5  6  1  0  0  0  0
  5 13  1  1  0  0  0
  6  7  1  0  0  0  0
  6 15  1  6  0  0  0
  7  8  1  0  0  0  0
  7 11  1  6  0  0  0
  8 14  1  0  0  0  0
  8 16  1  6  0  0  0
  9 11  1  0  0  0  0
 17 16  1  1  0  0  0
 17 18  1  0  0  0  0
 17 24  1  0  0  0  0
 18 19  1  0  0  0  0
 18 25  1  1  0  0  0
 19 20  1  0  0  0  0
 19 26  1  6  0  0  0
 20 21  1  0  0  0  0
 20 23  1  1  0  0  0
 21 22  1  6  0  0  0
 21 24  1  0  0  0  0
 22 27  1  0  0  0  0
 28 12  1  6  0  0  0
 28 29  1  0  0  0  0
 28 33  1  0  0  0  0
 29 30  1  0  0  0  0
 29 36  1  6  0  0  0
 30 31  1  0  0  0  0
 30 37  1  1  0  0  0
 31 32  1  0  0  0  0
 31 34  1  1  0  0  0
 32 33  1  0  0  0  0
 33 35  1  6  0  0  0
M  END
>  <CHROM.1>
-112.63980705,148.88556214,-167.22483893,156.35278726,178.21798175,133.33477524
19.16666479,-1.06844861,51.76153314,-1.69181236,0.94039014,-2.04574267

>  <Name>
2oe8_lig

>  <RI>
0

>  <Rbt.Current_Directory>
/home/itssahil/PROJECTS/Mol_Feturizer/New_Systems/rnas/2oe8

>  <Rbt.Executable>
rbdock ($Id: //depot/dev/client3/rdock/2013.1/src/exe/rbdock.cxx#4 $)

>  <Rbt.Library>
libRbt.so (2013.1, Build901 2013/11/27)

>  <Rbt.Parameter_File>
/export/apps/rDock/src/rDock_2013.1_src/data/scripts/dock_solv.prm

>  <Rbt.Receptor>
prm/pocket_docking_7.prm

>  <SCORE>
-20.4814

>  <SCORE.INTER>
-20.8193

>  <SCORE.INTER.CONST>
1

>  <SCORE.INTER.POLAR>
-1.4722

>  <SCORE.INTER.ROT>
6

>  <SCORE.INTER.SOLV>
14.0549

>  <SCORE.INTER.VDW>
-21.2572

>  <SCORE.INTER.norm>
-0.562685

>  <SCORE.INTRA>
0.337964

>  <SCORE.INTRA.DIHEDRAL>
0.734698

>  <SCORE.INTRA.DIHEDRAL.0>
16.4056

>  <SCORE.INTRA.POLAR>
0

>  <SCORE.INTRA.POLAR.0>
0

>  <SCORE.INTRA.REPUL>
0.00819774

>  <SCORE.INTRA.REPUL.0>
0

>  <SCORE.INTRA.SOLV>
0.0278212

>  <SCORE.INTRA.SOLV.lig_0>
-90.9627

>  <SCORE.INTRA.VDW>
-0.0842843

>  <SCORE.INTRA.VDW.0>
-3.28744

>  <SCORE.INTRA.norm>
0.00913416

>  <SCORE.RESTR>
0

>  <SCORE.RESTR.CAVITY>
0

>  <SCORE.RESTR.norm>
0

>  <SCORE.SYSTEM>
0

>  <SCORE.SYSTEM.CONST>
0

>  <SCORE.SYSTEM.DIHEDRAL>
0

>  <SCORE.SYSTEM.SOLV>
0

>  <SCORE.SYSTEM.norm>
0

>  <SCORE.heavy>
37

>  <SCORE.norm>
-0.553551

>  <RMSD>
2.411

$$$$
2oe8_lig
 OpenBabel11021811463D
libRbt.so/2013.1/901 2013/11/27
 37 40  0  0  0  0  0  0  0  0999 V2000
   20.3836   -0.0117   52.0867 C   0  0  1  0  0  0  0  0  0  0  0  0
   19.0392    0.3869   51.3677 C   0  0  1  0  0  0  0  0  0  0  0  0
   18.1597   -0.8693   51.1966 C   0  0  0  0  0  0  0  0  0  0  0  0
   18.9923   -1.8661   50.3312 C   0  0  1  0  0  0  0  0  0  0  0  0
   20.3829   -2.2678   51.0460 C   0  0  1  0  0  0  0  0  0  0  0  0
   21.2285   -3.2473   50.1802 C   0  0  1  0  0  0  0  0  0  0  0  0
   20.3396   -4.5307   49.9165 C   0  0  1  0  0  0  0  0  0  0  0  0
   18.9848   -4.0837   49.2650 C   0  0  2  0  0  0  0  0  0  0  0  0
   20.6852   -6.9940   49.0743 C   0  0  0  0  0  0  0  0  0  0  0  0
   18.2999    1.4137   52.1685 N   0  0  0  0  0  0  0  0  0  0  0  0
   21.0698   -5.5366   49.0309 N   0  0  0  0  0  0  0  0  0  0  0  0
   20.1465   -0.5418   53.3970 O   0  0  0  0  0  0  0  0  0  0  0  0
   21.1403   -1.0361   51.3084 O   0  0  0  0  0  0  0  0  0  0  0  0
   18.2372   -3.0906   50.0913 O   0  0  0  0  0  0  0  0  0  0  0  0
   21.5636   -2.5596   48.9738 O   0  0  0  0  0  0  0  0  0  0  0  0
   18.1828   -5.1944   49.0913 O   0  0  0  0  0  0  0  0  0  0  0  0
   17.0129   -4.9334   48.2974 C   0  0  2  0  0  0  0  0  0  0  0  0
   16.2690   -6.2547   47.9873 C   0  0  1  0  0  0  0  0  0  0  0  0
   17.1115   -7.1922   47.0688 C   0  0  2  0  0  0  0  0  0  0  0  0
   17.4408   -6.4505   45.7397 C   0  0  1  0  0  0  0  0  0  0  0  0
   18.2686   -5.1553   46.1275 C   0  0  1  0  0  0  0  0  0  0  0  0
   18.6413   -4.3269   44.9012 C   0  0  0  0  0  0  0  0  0  0  0  0
   18.2460   -7.3448   44.8597 N   0  0  0  0  0  0  0  0  0  0  0  0
   17.4207   -4.2897   47.0216 O   0  0  0  0  0  0  0  0  0  0  0  0
   15.9564   -6.8750   49.2492 O   0  0  0  0  0  0  0  0  0  0  0  0
   16.3490   -8.3485   46.7932 O   0  0  0  0  0  0  0  0  0  0  0  0
   19.3555   -3.1887   45.3057 O   0  0  0  0  0  0  0  0  0  0  0  0
   21.1849   -0.2683   54.3150 C   0  0  1  0  0  0  0  0  0  0  0  0
   20.7933    1.0084   55.1264 C   0  0  1  0  0  0  0  0  0  0  0  0
   21.9440    1.3399   56.1209 C   0  0  2  0  0  0  0  0  0  0  0  0
   22.1963    0.1471   57.0942 C   0  0  1  0  0  0  0  0  0  0  0  0
   22.5812   -1.1488   56.2834 C   0  0  0  0  0  0  0  0  0  0  0  0
   21.4045   -1.4863   55.2767 C   0  0  2  0  0  0  0  0  0  0  0  0
   23.3036    0.4861   58.0305 N   0  0  0  0  0  0  0  0  0  0  0  0
   21.7723   -2.7059   54.5226 N   0  0  0  0  0  0  0  0  0  0  0  0
   20.6017    2.1260   54.2391 O   0  0  0  0  0  0  0  0  0  0  0  0
   21.5607    2.4957   56.8477 O   0  0  0  0  0  0  0  0  0  0  0  0
  1  2  1  0  0  0  0
  1 12  1  1  0  0  0
  1 13  1  0  0  0  0
  2  3  1  0  0  0  0
  2 10  1  1  0  0  0
  4  3  1  1  0  0  0
  4  5  1  0  0  0  0
  4 14  1  0  0  0  0
  5  6  1  0  0  0  0
  5 13  1  6  0  0  0
  6  7  1  0  0  0  0
  6 15  1  6  0  0  0
  7  8  1  0  0  0  0
  7 11  1  6  0  0  0
  8 14  1  0  0  0  0
  8 16  1  1  0  0  0
  9 11  1  0  0  0  0
 17 16  1  1  0  0  0
 17 18  1  0  0  0  0
 17 24  1  0  0  0  0
 18 19  1  0  0  0  0
 18 25  1  1  0  0  0
 19 20  1  0  0  0  0
 19 26  1  6  0  0  0
 20 21  1  0  0  0  0
 20 23  1  6  0  0  0
 21 22  1  6  0  0  0
 21 24  1  0  0  0  0
 22 27  1  0  0  0  0
 28 12  1  6  0  0  0
 28 29  1  0  0  0  0
 28 33  1  0  0  0  0
 29 30  1  0  0  0  0
 29 36  1  6  0  0  0
 30 31  1  0  0  0  0
 30 37  1  1  0  0  0
 31 32  1  0  0  0  0
 31 34  1  1  0  0  0
 32 33  1  0  0  0  0
 33 35  1  6  0  0  0
M  END
>  <CHROM.1>
-148.57910580,156.54181065,-170.05869647,172.37827299,179.26363230,95.88103754
19.61128854,-2.77998756,50.76848062,0.82087877,-1.08045159,0.22741371

>  <Name>
2oe8_lig

>  <RI>
0

>  <Rbt.Current_Directory>
/home/itssahil/PROJECTS/Mol_Feturizer/New_Systems/rnas/2oe8

>  <Rbt.Executable>
rbdock ($Id: //depot/dev/client3/rdock/2013.1/src/exe/rbdock.cxx#4 $)

>  <Rbt.Library>
libRbt.so (2013.1, Build901 2013/11/27)

>  <Rbt.Parameter_File>
/export/apps/rDock/src/rDock_2013.1_src/data/scripts/dock_solv.prm

>  <Rbt.Receptor>
prm/pocket_docking_4.prm

>  <SCORE>
-15.963

>  <SCORE.INTER>
-11.9308

>  <SCORE.INTER.CONST>
1

>  <SCORE.INTER.POLAR>
-0.855941

>  <SCORE.INTER.ROT>
6

>  <SCORE.INTER.SOLV>
18.4837

>  <SCORE.INTER.VDW>
-18.862

>  <SCORE.INTER.norm>
-0.322455

>  <SCORE.INTRA>
-4.03215

>  <SCORE.INTRA.DIHEDRAL>
-6.65625

>  <SCORE.INTRA.DIHEDRAL.0>
16.4056

>  <SCORE.INTRA.POLAR>
0

>  <SCORE.INTRA.POLAR.0>
0

>  <SCORE.INTRA.REPUL>
0.00140295

>  <SCORE.INTRA.REPUL.0>
0

>  <SCORE.INTRA.SOLV>
-1.03569

>  <SCORE.INTRA.SOLV.lig_0>
-90.9627

>  <SCORE.INTRA.VDW>
-0.193193

>  <SCORE.INTRA.VDW.0>
-3.28744

>  <SCORE.INTRA.norm>
-0.108977

>  <SCORE.RESTR>
0

>  <SCORE.RESTR.CAVITY>
0

>  <SCORE.RESTR.norm>
0

>  <SCORE.SYSTEM>
0

>  <SCORE.SYSTEM.CONST>
0

>  <SCORE.SYSTEM.DIHEDRAL>
0

>  <SCORE.SYSTEM.SOLV>
0

>  <SCORE.SYSTEM.norm>
0

>  <SCORE.heavy>
37

>  <SCORE.norm>
-0.431432

>  <RMSD>
2.424

$$$$
2oe8_lig
 OpenBabel11021811463D
libRbt.so/2013.1/901 2013/11/27
 37 40  0  0  0  0  0  0  0  0999 V2000
   20.9002    1.0188   54.1691 C   0  0  1  0  0  0  0  0  0  0  0  0
   19.3423    0.9948   53.9328 C   0  0  1  0  0  0  0  0  0  0  0  0
   18.8853   -0.4583   53.6876 C   0  0  0  0  0  0  0  0  0  0  0  0
   19.6587   -0.9478   52.4234 C   0  0  1  0  0  0  0  0  0  0  0  0
   21.2575   -0.9092   52.6432 C   0  0  1  0  0  0  0  0  0  0  0  0
   22.0371   -1.3779   51.3797 C   0  0  1  0  0  0  0  0  0  0  0  0
   21.5502   -2.8465   51.0435 C   0  0  1  0  0  0  0  0  0  0  0  0
   19.9899   -2.8393   50.8849 C   0  0  2  0  0  0  0  0  0  0  0  0
   22.2923   -4.8651   49.5363 C   0  0  0  0  0  0  0  0  0  0  0  0
   18.6224    1.5552   55.1203 N   0  0  0  0  0  0  0  0  0  0  0  0
   22.2282   -3.3790   49.7840 N   0  0  0  0  0  0  0  0  0  0  0  0
   21.2722    0.2591   55.3260 O   0  0  0  0  0  0  0  0  0  0  0  0
   21.6420    0.4638   52.9989 O   0  0  0  0  0  0  0  0  0  0  0  0
   19.2812   -2.3166   52.0900 O   0  0  0  0  0  0  0  0  0  0  0  0
   21.7378   -0.4521   50.3338 O   0  0  0  0  0  0  0  0  0  0  0  0
   19.5568   -4.1300   50.6532 O   0  0  0  0  0  0  0  0  0  0  0  0
   18.1454   -4.2191   50.3948 C   0  0  2  0  0  0  0  0  0  0  0  0
   17.7696   -5.6552   49.9565 C   0  0  1  0  0  0  0  0  0  0  0  0
   18.4003   -6.0242   48.5787 C   0  0  2  0  0  0  0  0  0  0  0  0
   17.9209   -5.0047   47.5035 C   0  0  1  0  0  0  0  0  0  0  0  0
   18.4086   -3.5724   47.9767 C   0  0  1  0  0  0  0  0  0  0  0  0
   17.9829   -2.4744   47.0061 C   0  0  0  0  0  0  0  0  0  0  0  0
   18.5223   -5.3556   46.1853 N   0  0  0  0  0  0  0  0  0  0  0  0
   17.7847   -3.2666   49.3126 O   0  0  0  0  0  0  0  0  0  0  0  0
   18.1998   -6.5471   51.0026 O   0  0  0  0  0  0  0  0  0  0  0  0
   17.9735   -7.3237   48.2272 O   0  0  0  0  0  0  0  0  0  0  0  0
   18.7006   -2.6062   45.8075 O   0  0  0  0  0  0  0  0  0  0  0  0
   20.9161    0.8751   56.5465 C   0  0  1  0  0  0  0  0  0  0  0  0
   20.5219   -0.2464   57.5607 C   0  0  1  0  0  0  0  0  0  0  0  0
   20.0966    0.4204   58.9014 C   0  0  2  0  0  0  0  0  0  0  0  0
   21.2589    1.2816   59.4853 C   0  0  1  0  0  0  0  0  0  0  0  0
   21.6711    2.4092   58.4638 C   0  0  0  0  0  0  0  0  0  0  0  0
   22.1093    1.7259   57.1025 C   0  0  2  0  0  0  0  0  0  0  0  0
   20.8261    1.9124   60.7630 N   0  0  0  0  0  0  0  0  0  0  0  0
   22.4982    2.7909   56.1509 N   0  0  0  0  0  0  0  0  0  0  0  0
   19.4198   -1.0189   57.0489 O   0  0  0  0  0  0  0  0  0  0  0  0
   19.7514   -0.6175   59.8039 O   0  0  0  0  0  0  0  0  0  0  0  0
  1  2  1  0  0  0  0
  1 12  1  1  0  0  0
  1 13  1  0  0  0  0
  2  3  1  0  0  0  0
  2 10  1  1  0  0  0
  4  3  1  1  0  0  0
  4  5  1  0  0  0  0
  4 14  1  0  0  0  0
  5  6  1  0  0  0  0
  5 13  1  6  0  0  0
  6  7  1  0  0  0  0
  6 15  1  6  0  0  0
  7  8  1  0  0  0  0
  7 11  1  6  0  0  0
  8 14  1  0  0  0  0
  8 16  1  1  0  0  0
  9 11  1  0  0  0  0
 17 16  1  6  0  0  0
 17 18  1  0  0  0  0
 17 24  1  0  0  0  0
 18 19  1  0  0  0  0
 18 25  1  1  0  0  0
 19 20  1  0  0  0  0
 19 26  1  6  0  0  0
 20 21  1  0  0  0  0
 20 23  1  6  0  0  0
 21 22  1  6  0  0  0
 21 24  1  0  0  0  0
 22 27  1  0  0  0  0
 28 12  1  6  0  0  0
 28 29  1  0  0  0  0
 28 33  1  0  0  0  0
 29 30  1  0  0  0  0
 29 36  1  6  0  0  0
 30 31  1  0  0  0  0
 30 37  1  1  0  0  0
 31 32  1  0  0  0  0
 31 34  1  1  0  0  0
 32 33  1  0  0  0  0
 33 35  1  6  0  0  0
M  END
>  <CHROM.1>
-72.13428390,159.19026031,-175.67504883,172.29203364,-69.43195385,145.10397153
19.96293981,-1.73855009,52.65517277,-1.22921311,-0.99613564,-1.82643505

>  <Name>
2oe8_lig

>  <RI>
0

>  <Rbt.Current_Directory>
/home/itssahil/PROJECTS/Mol_Feturizer/New_Systems/rnas/2oe8

>  <Rbt.Executable>
rbdock ($Id: //depot/dev/client3/rdock/2013.1/src/exe/rbdock.cxx#4 $)

>  <Rbt.Library>
libRbt.so (2013.1, Build901 2013/11/27)

>  <Rbt.Parameter_File>
/export/apps/rDock/src/rDock_2013.1_src/data/scripts/dock_solv.prm

>  <Rbt.Receptor>
prm/pocket_docking_6.prm

>  <SCORE>
-19.596

>  <SCORE.INTER>
-15.8672

>  <SCORE.INTER.CONST>
1

>  <SCORE.INTER.POLAR>
-2.23276

>  <SCORE.INTER.ROT>
6

>  <SCORE.INTER.SOLV>
15.6097

>  <SCORE.INTER.VDW>
-15.9388

>  <SCORE.INTER.norm>
-0.428844

>  <SCORE.INTRA>
-3.72882

>  <SCORE.INTRA.DIHEDRAL>
-10.1092

>  <SCORE.INTRA.DIHEDRAL.0>
16.4056

>  <SCORE.INTRA.POLAR>
0

>  <SCORE.INTRA.POLAR.0>
0

>  <SCORE.INTRA.REPUL>
0

>  <SCORE.INTRA.REPUL.0>
0

>  <SCORE.INTRA.SOLV>
1.49557

>  <SCORE.INTRA.SOLV.lig_0>
-90.9627

>  <SCORE.INTRA.VDW>
0.57801

>  <SCORE.INTRA.VDW.0>
-3.28744

>  <SCORE.INTRA.norm>
-0.100779

>  <SCORE.RESTR>
0

>  <SCORE.RESTR.CAVITY>
0

>  <SCORE.RESTR.norm>
0

>  <SCORE.SYSTEM>
0

>  <SCORE.SYSTEM.CONST>
0

>  <SCORE.SYSTEM.DIHEDRAL>
0

>  <SCORE.SYSTEM.SOLV>
0

>  <SCORE.SYSTEM.norm>
0

>  <SCORE.heavy>
37

>  <SCORE.norm>
-0.529622

>  <RMSD>
2.455

$$$$
2oe8_lig
 OpenBabel11021811463D
libRbt.so/2013.1/901 2013/11/27
 37 40  0  0  0  0  0  0  0  0999 V2000
   19.8777    1.1702   53.8408 C   0  0  1  0  0  0  0  0  0  0  0  0
   19.4324    1.9725   52.5596 C   0  0  1  0  0  0  0  0  0  0  0  0
   18.4503    1.1141   51.7354 C   0  0  0  0  0  0  0  0  0  0  0  0
   19.2273   -0.1837   51.3508 C   0  0  1  0  0  0  0  0  0  0  0  0
   19.7082   -1.0060   52.6540 C   0  0  1  0  0  0  0  0  0  0  0  0
   20.5009   -2.2925   52.2791 C   0  0  1  0  0  0  0  0  0  0  0  0
   19.5560   -3.1801   51.3702 C   0  0  1  0  0  0  0  0  0  0  0  0
   19.0806   -2.3237   50.1453 C   0  0  2  0  0  0  0  0  0  0  0  0
   19.4973   -5.7437   50.8033 C   0  0  0  0  0  0  0  0  0  0  0  0
   18.7721    3.2589   52.9488 N   0  0  0  0  0  0  0  0  0  0  0  0
   20.2657   -4.4507   50.9101 N   0  0  0  0  0  0  0  0  0  0  0  0
   18.7640    0.8701   54.6914 O   0  0  0  0  0  0  0  0  0  0  0  0
   20.5386   -0.1185   53.4800 O   0  0  0  0  0  0  0  0  0  0  0  0
   18.3880   -1.0635   50.5454 O   0  0  0  0  0  0  0  0  0  0  0  0
   21.6811   -1.8735   51.5918 O   0  0  0  0  0  0  0  0  0  0  0  0
   18.2071   -3.0756   49.3846 O   0  0  0  0  0  0  0  0  0  0  0  0
   18.0691   -2.5965   48.0361 C   0  0  2  0  0  0  0  0  0  0  0  0
   17.6816   -3.7590   47.0905 C   0  0  1  0  0  0  0  0  0  0  0  0
   18.8241   -4.8137   46.9704 C   0  0  2  0  0  0  0  0  0  0  0  0
   20.1143   -4.1174   46.4453 C   0  0  1  0  0  0  0  0  0  0  0  0
   20.4954   -2.9970   47.5002 C   0  0  1  0  0  0  0  0  0  0  0  0
   21.7454   -2.2250   47.0874 C   0  0  0  0  0  0  0  0  0  0  0  0
   21.2081   -5.1238   46.3294 N   0  0  0  0  0  0  0  0  0  0  0  0
   19.3602   -2.0117   47.5898 O   0  0  0  0  0  0  0  0  0  0  0  0
   16.4653   -4.3374   47.6013 O   0  0  0  0  0  0  0  0  0  0  0  0
   18.4156   -5.8111   46.0579 O   0  0  0  0  0  0  0  0  0  0  0  0
   22.7845   -2.5020   47.9889 O   0  0  0  0  0  0  0  0  0  0  0  0
   19.0505    1.0046   56.0682 C   0  0  1  0  0  0  0  0  0  0  0  0
   20.1953    0.0035   56.4272 C   0  0  1  0  0  0  0  0  0  0  0  0
   20.4999    0.1188   57.9493 C   0  0  2  0  0  0  0  0  0  0  0  0
   20.9279    1.5722   58.3205 C   0  0  1  0  0  0  0  0  0  0  0  0
   19.7830    2.5910   57.9515 C   0  0  0  0  0  0  0  0  0  0  0  0
   19.4804    2.4749   56.4000 C   0  0  2  0  0  0  0  0  0  0  0  0
   21.2080    1.6579   59.7806 N   0  0  0  0  0  0  0  0  0  0  0  0
   18.4076    3.4371   56.0615 N   0  0  0  0  0  0  0  0  0  0  0  0
   19.7917   -1.3460   56.1289 O   0  0  0  0  0  0  0  0  0  0  0  0
   21.5446   -0.7931   58.2461 O   0  0  0  0  0  0  0  0  0  0  0  0
  1  2  1  0  0  0  0
  1 12  1  1  0  0  0
  1 13  1  0  0  0  0
  2  3  1  0  0  0  0
  2 10  1  1  0  0  0
  4  3  1  1  0  0  0
  4  5  1  0  0  0  0
  4 14  1  0  0  0  0
  5  6  1  0  0  0  0
  5 13  1  1  0  0  0
  6  7  1  0  0  0  0
  6 15  1  6  0  0  0
  7  8  1  0  0  0  0
  7 11  1  6  0  0  0
  8 14  1  0  0  0  0
  8 16  1  1  0  0  0
  9 11  1  0  0  0  0
 17 16  1  1  0  0  0
 17 18  1  0  0  0  0
 17 24  1  0  0  0  0
 18 19  1  0  0  0  0
 18 25  1  1  0  0  0
 19 20  1  0  0  0  0
 19 26  1  6  0  0  0
 20 21  1  0  0  0  0
 20 23  1  1  0  0  0
 21 22  1  6  0  0  0
 21 24  1  0  0  0  0
 22 27  1  0  0  0  0
 28 12  1  6  0  0  0
 28 29  1  0  0  0  0
 28 33  1  0  0  0  0
 29 30  1  0  0  0  0
 29 36  1  1  0  0  0
 30 31  1  0  0  0  0
 30 37  1  6  0  0  0
 31 32  1  0  0  0  0
 31 34  1  1  0  0  0
 32 33  1  0  0  0  0
 33 35  1  1  0  0  0
M  END
>  <CHROM.1>
-140.09308856,142.95636901,-159.78750084,152.87242906,-112.97485339,-60.87697271
19.67680947,-1.30117849,51.91717900,1.44963606,-1.05918649,0.95079795

>  <Name>
2oe8_lig

>  <RI>
0

>  <Rbt.Current_Directory>
/home/itssahil/PROJECTS/Mol_Feturizer/New_Systems/rnas/2oe8

>  <Rbt.Executable>
rbdock ($Id: //depot/dev/client3/rdock/2013.1/src/exe/rbdock.cxx#4 $)

>  <Rbt.Library>
libRbt.so (2013.1, Build901 2013/11/27)

>  <Rbt.Parameter_File>
/export/apps/rDock/src/rDock_2013.1_src/data/scripts/dock_solv.prm

>  <Rbt.Receptor>
prm/pocket_docking_6.prm

>  <SCORE>
-21.3818

>  <SCORE.INTER>
-22.9449

>  <SCORE.INTER.CONST>
1

>  <SCORE.INTER.POLAR>
-1.97111

>  <SCORE.INTER.ROT>
6

>  <SCORE.INTER.SOLV>
16.5287

>  <SCORE.INTER.VDW>
-21.8358

>  <SCORE.INTER.norm>
-0.620132

>  <SCORE.INTRA>
1.56305

>  <SCORE.INTRA.DIHEDRAL>
-0.193127

>  <SCORE.INTRA.DIHEDRAL.0>
16.4056

>  <SCORE.INTRA.POLAR>
0

>  <SCORE.INTRA.POLAR.0>
0

>  <SCORE.INTRA.REPUL>
0

>  <SCORE.INTRA.REPUL.0>
0

>  <SCORE.INTRA.SOLV>
1.0055

>  <SCORE.INTRA.SOLV.lig_0>
-90.9627

>  <SCORE.INTRA.VDW>
1.15686

>  <SCORE.INTRA.VDW.0>
-3.28744

>  <SCORE.INTRA.norm>
0.0422445

>  <SCORE.RESTR>
0

>  <SCORE.RESTR.CAVITY>
0

>  <SCORE.RESTR.norm>
0

>  <SCORE.SYSTEM>
0

>  <SCORE.SYSTEM.CONST>
0

>  <SCORE.SYSTEM.DIHEDRAL>
0

>  <SCORE.SYSTEM.SOLV>
0

>  <SCORE.SYSTEM.norm>
0

>  <SCORE.heavy>
37

>  <SCORE.norm>
-0.577887

>  <RMSD>
2.490

$$$$
2oe8_lig
 OpenBabel11021811463D
libRbt.so/2013.1/901 2013/11/27
 37 40  0  0  0  0  0  0  0  0999 V2000
   20.1517    2.5539   53.1825 C   0  0  1  0  0  0  0  0  0  0  0  0
   18.6766    2.3661   52.6607 C   0  0  1  0  0  0  0  0  0  0  0  0
   18.4507    0.8855   52.2900 C   0  0  0  0  0  0  0  0  0  0  0  0
   19.4930    0.5540   51.1767 C   0  0  1  0  0  0  0  0  0  0  0  0
   21.0093    0.7618   51.6904 C   0  0  1  0  0  0  0  0  0  0  0  0
   22.0551    0.4516   50.5796 C   0  0  1  0  0  0  0  0  0  0  0  0
   21.8183   -1.0429   50.1135 C   0  0  1  0  0  0  0  0  0  0  0  0
   20.3230   -1.2041   49.6685 C   0  0  2  0  0  0  0  0  0  0  0  0
   23.7395   -2.5688   49.1768 C   0  0  0  0  0  0  0  0  0  0  0  0
   17.6917    2.7779   53.7108 N   0  0  0  0  0  0  0  0  0  0  0  0
   22.7719   -1.4281   48.9858 N   0  0  0  0  0  0  0  0  0  0  0  0
   20.3978    1.7813   54.3642 O   0  0  0  0  0  0  0  0  0  0  0  0
   21.1542    2.1489   52.1536 O   0  0  0  0  0  0  0  0  0  0  0  0
   19.3504   -0.8292   50.7369 O   0  0  0  0  0  0  0  0  0  0  0  0
   21.8398    1.3915   49.5255 O   0  0  0  0  0  0  0  0  0  0  0  0
   20.0983   -2.5215   49.3206 O   0  0  0  0  0  0  0  0  0  0  0  0
   18.7216   -2.8033   49.0173 C   0  0  2  0  0  0  0  0  0  0  0  0
   18.4173   -4.3032   49.2483 C   0  0  1  0  0  0  0  0  0  0  0  0
   19.1888   -5.2125   48.2433 C   0  0  2  0  0  0  0  0  0  0  0  0
   18.8010   -4.8161   46.7881 C   0  0  1  0  0  0  0  0  0  0  0  0
   19.2132   -3.2970   46.5988 C   0  0  1  0  0  0  0  0  0  0  0  0
   18.8669   -2.7803   45.2052 C   0  0  0  0  0  0  0  0  0  0  0  0
   19.5372   -5.6842   45.8253 N   0  0  0  0  0  0  0  0  0  0  0  0
   18.4537   -2.4625   47.5959 O   0  0  0  0  0  0  0  0  0  0  0  0
   18.7568   -4.6020   50.6159 O   0  0  0  0  0  0  0  0  0  0  0  0
   18.8227   -6.5548   48.4853 O   0  0  0  0  0  0  0  0  0  0  0  0
   17.4913   -2.9380   44.9770 O   0  0  0  0  0  0  0  0  0  0  0  0
   19.5735    2.1366   55.4551 C   0  0  1  0  0  0  0  0  0  0  0  0
   19.6629    0.9997   56.5232 C   0  0  1  0  0  0  0  0  0  0  0  0
   18.7340    1.3635   57.7181 C   0  0  2  0  0  0  0  0  0  0  0  0
   19.1551    2.7248   58.3531 C   0  0  1  0  0  0  0  0  0  0  0  0
   19.0786    3.8764   57.2794 C   0  0  0  0  0  0  0  0  0  0  0  0
   20.0304    3.5051   56.0676 C   0  0  2  0  0  0  0  0  0  0  0  0
   18.2493    3.0529   59.4887 N   0  0  0  0  0  0  0  0  0  0  0  0
   19.9556    4.5929   55.0664 N   0  0  0  0  0  0  0  0  0  0  0  0
   19.2335   -0.2530   55.9578 O   0  0  0  0  0  0  0  0  0  0  0  0
   18.8392    0.3211   58.6737 O   0  0  0  0  0  0  0  0  0  0  0  0
  1  2  1  0  0  0  0
  1 12  1  1  0  0  0
  1 13  1  0  0  0  0
  2  3  1  0  0  0  0
  2 10  1  1  0  0  0
  4  3  1  1  0  0  0
  4  5  1  0  0  0  0
  4 14  1  0  0  0  0
  5  6  1  0  0  0  0
  5 13  1  6  0  0  0
  6  7  1  0  0  0  0
  6 15  1  6  0  0  0
  7  8  1  0  0  0  0
  7 11  1  6  0  0  0
  8 14  1  0  0  0  0
  8 16  1  1  0  0  0
  9 11  1  0  0  0  0
 17 16  1  6  0  0  0
 17 18  1  0  0  0  0
 17 24  1  0  0  0  0
 18 19  1  0  0  0  0
 18 25  1  1  0  0  0
 19 20  1  0  0  0  0
 19 26  1  1  0  0  0
 20 21  1  0  0  0  0
 20 23  1  6  0  0  0
 21 22  1  6  0  0  0
 21 24  1  0  0  0  0
 22 27  1  0  0  0  0
 28 12  1  6  0  0  0
 28 29  1  0  0  0  0
 28 33  1  0  0  0  0
 29 30  1  0  0  0  0
 29 36  1  6  0  0  0
 30 31  1  0  0  0  0
 30 37  1  1  0  0  0
 31 32  1  0  0  0  0
 31 34  1  1  0  0  0
 32 33  1  0  0  0  0
 33 35  1  6  0  0  0
M  END
>  <CHROM.1>
-61.30796043,119.69437127,174.44409838,-155.14804572,57.65516732,164.99611261
19.66970826,-0.50572738,51.65308052,-1.58593229,-1.01916372,-2.18147248

>  <Name>
2oe8_lig

>  <RI>
0

>  <Rbt.Current_Directory>
/home/itssahil/PROJECTS/Mol_Feturizer/New_Systems/rnas/2oe8

>  <Rbt.Executable>
rbdock ($Id: //depot/dev/client3/rdock/2013.1/src/exe/rbdock.cxx#4 $)

>  <Rbt.Library>
libRbt.so (2013.1, Build901 2013/11/27)

>  <Rbt.Parameter_File>
/export/apps/rDock/src/rDock_2013.1_src/data/scripts/dock_solv.prm

>  <Rbt.Receptor>
prm/pocket_docking_3.prm

>  <SCORE>
-12.7311

>  <SCORE.INTER>
-10.4284

>  <SCORE.INTER.CONST>
1

>  <SCORE.INTER.POLAR>
-0.0132571

>  <SCORE.INTER.ROT>
6

>  <SCORE.INTER.SOLV>
13.4606

>  <SCORE.INTER.VDW>
-18.995

>  <SCORE.INTER.norm>
-0.281849

>  <SCORE.INTRA>
-2.30272

>  <SCORE.INTRA.DIHEDRAL>
-11.261

>  <SCORE.INTRA.DIHEDRAL.0>
16.4056

>  <SCORE.INTRA.POLAR>
0

>  <SCORE.INTRA.POLAR.0>
0

>  <SCORE.INTRA.REPUL>
0

>  <SCORE.INTRA.REPUL.0>
0

>  <SCORE.INTRA.SOLV>
2.63932

>  <SCORE.INTRA.SOLV.lig_0>
-90.9627

>  <SCORE.INTRA.VDW>
2.00812

>  <SCORE.INTRA.VDW.0>
-3.28744

>  <SCORE.INTRA.norm>
-0.0622356

>  <SCORE.RESTR>
0

>  <SCORE.RESTR.CAVITY>
0

>  <SCORE.RESTR.norm>
0

>  <SCORE.SYSTEM>
0

>  <SCORE.SYSTEM.CONST>
0

>  <SCORE.SYSTEM.DIHEDRAL>
0

>  <SCORE.SYSTEM.SOLV>
0

>  <SCORE.SYSTEM.norm>
0

>  <SCORE.heavy>
37

>  <SCORE.norm>
-0.344085

>  <RMSD>
2.518

$$$$
2oe8_lig
 OpenBabel11021811463D
libRbt.so/2013.1/901 2013/11/27
 37 40  0  0  0  0  0  0  0  0999 V2000
   22.1841    1.0320   51.5867 C   0  0  1  0  0  0  0  0  0  0  0  0
   20.8496    1.7112   51.0957 C   0  0  1  0  0  0  0  0  0  0  0  0
   19.8166    0.6179   50.7521 C   0  0  0  0  0  0  0  0  0  0  0  0
   20.4611   -0.2476   49.6246 C   0  0  1  0  0  0  0  0  0  0  0  0
   21.8407   -0.9336   50.1064 C   0  0  1  0  0  0  0  0  0  0  0  0
   22.5001   -1.7836   48.9809 C   0  0  1  0  0  0  0  0  0  0  0  0
   21.4479   -2.8825   48.5424 C   0  0  1  0  0  0  0  0  0  0  0  0
   20.1136   -2.1697   48.1282 C   0  0  2  0  0  0  0  0  0  0  0  0
   21.6241   -5.2032   47.3260 C   0  0  0  0  0  0  0  0  0  0  0  0
   20.2965    2.6104   52.1578 N   0  0  0  0  0  0  0  0  0  0  0  0
   21.9886   -3.7420   47.4030 N   0  0  0  0  0  0  0  0  0  0  0  0
   21.9784    0.2581   52.7753 O   0  0  0  0  0  0  0  0  0  0  0  0
   22.7563    0.1286   50.5455 O   0  0  0  0  0  0  0  0  0  0  0  0
   19.5501   -1.3080   49.2088 O   0  0  0  0  0  0  0  0  0  0  0  0
   22.8290   -0.8890   47.9168 O   0  0  0  0  0  0  0  0  0  0  0  0
   19.1745   -3.1292   47.8048 O   0  0  0  0  0  0  0  0  0  0  0  0
   18.1761   -2.6605   46.8827 C   0  0  2  0  0  0  0  0  0  0  0  0
   17.0251   -3.6891   46.7694 C   0  0  1  0  0  0  0  0  0  0  0  0
   17.5023   -5.0233   46.1179 C   0  0  2  0  0  0  0  0  0  0  0  0
   18.0828   -4.7268   44.7036 C   0  0  1  0  0  0  0  0  0  0  0  0
   19.3025   -3.7344   44.9047 C   0  0  1  0  0  0  0  0  0  0  0  0
   19.9524   -3.3516   43.5780 C   0  0  0  0  0  0  0  0  0  0  0  0
   18.5395   -6.0009   44.0786 N   0  0  0  0  0  0  0  0  0  0  0  0
   18.7957   -2.4695   45.5455 O   0  0  0  0  0  0  0  0  0  0  0  0
   16.5030   -3.8934   48.0962 O   0  0  0  0  0  0  0  0  0  0  0  0
   16.3905   -5.8868   46.0055 O   0  0  0  0  0  0  0  0  0  0  0  0
   19.0423   -2.6109   42.8085 O   0  0  0  0  0  0  0  0  0  0  0  0
   21.7740    1.0417   53.9329 C   0  0  1  0  0  0  0  0  0  0  0  0
   21.1694    0.1223   55.0423 C   0  0  1  0  0  0  0  0  0  0  0  0
   20.9094    0.9805   56.3146 C   0  0  2  0  0  0  0  0  0  0  0  0
   22.2326    1.6306   56.8247 C   0  0  1  0  0  0  0  0  0  0  0  0
   22.8560    2.5516   55.7075 C   0  0  0  0  0  0  0  0  0  0  0  0
   23.1249    1.6727   54.4162 C   0  0  2  0  0  0  0  0  0  0  0  0
   21.9571    2.4497   58.0374 N   0  0  0  0  0  0  0  0  0  0  0  0
   23.7134    2.5439   53.3742 N   0  0  0  0  0  0  0  0  0  0  0  0
   19.9244   -0.4474   54.5965 O   0  0  0  0  0  0  0  0  0  0  0  0
   20.3687    0.1223   57.3056 O   0  0  0  0  0  0  0  0  0  0  0  0
  1  2  1  0  0  0  0
  1 12  1  1  0  0  0
  1 13  1  0  0  0  0
  2  3  1  0  0  0  0
  2 10  1  1  0  0  0
  4  3  1  1  0  0  0
  4  5  1  0  0  0  0
  4 14  1  0  0  0  0
  5  6  1  0  0  0  0
  5 13  1  6  0  0  0
  6  7  1  0  0  0  0
  6 15  1  6  0  0  0
  7  8  1  0  0  0  0
  7 11  1  6  0  0  0
  8 14  1  0  0  0  0
  8 16  1  1  0  0  0
  9 11  1  0  0  0  0
 17 16  1  1  0  0  0
 17 18  1  0  0  0  0
 17 24  1  0  0  0  0
 18 19  1  0  0  0  0
 18 25  1  1  0  0  0
 19 20  1  0  0  0  0
 19 26  1  6  0  0  0
 20 21  1  0  0  0  0
 20 23  1  1  0  0  0
 21 22  1  6  0  0  0
 21 24  1  0  0  0  0
 22 27  1  0  0  0  0
 28 12  1  6  0  0  0
 28 29  1  0  0  0  0
 28 33  1  0  0  0  0
 29 30  1  0  0  0  0
 29 36  1  6  0  0  0
 30 31  1  0  0  0  0
 30 37  1  1  0  0  0
 31 32  1  0  0  0  0
 31 34  1  1  0  0  0
 32 33  1  0  0  0  0
 33 35  1  6  0  0  0
M  END
>  <CHROM.1>
-72.60910663,145.59588385,-153.88033179,-169.64425334,65.48086738,164.09637290
20.42411603,-1.31313963,49.93240983,-1.24329940,-0.57100474,-1.90682394

>  <Name>
2oe8_lig

>  <RI>
0

>  <Rbt.Current_Directory>
/home/itssahil/PROJECTS/Mol_Feturizer/New_Systems/rnas/2oe8

>  <Rbt.Executable>
rbdock ($Id: //depot/dev/client3/rdock/2013.1/src/exe/rbdock.cxx#4 $)

>  <Rbt.Library>
libRbt.so (2013.1, Build901 2013/11/27)

>  <Rbt.Parameter_File>
/export/apps/rDock/src/rDock_2013.1_src/data/scripts/dock_solv.prm

>  <Rbt.Receptor>
prm/pocket_docking_5.prm

>  <SCORE>
-20.8605

>  <SCORE.INTER>
-17.1564

>  <SCORE.INTER.CONST>
1

>  <SCORE.INTER.POLAR>
-1.53333

>  <SCORE.INTER.ROT>
6

>  <SCORE.INTER.SOLV>
12.0774

>  <SCORE.INTER.VDW>
-17.9523

>  <SCORE.INTER.norm>
-0.463687

>  <SCORE.INTRA>
-3.70867

>  <SCORE.INTRA.DIHEDRAL>
-10.2029

>  <SCORE.INTRA.DIHEDRAL.0>
16.4056

>  <SCORE.INTRA.POLAR>
0

>  <SCORE.INTRA.POLAR.0>
0

>  <SCORE.INTRA.REPUL>
0

>  <SCORE.INTRA.REPUL.0>
0

>  <SCORE.INTRA.SOLV>
2.30126

>  <SCORE.INTRA.SOLV.lig_0>
-90.9627

>  <SCORE.INTRA.VDW>
0.242163

>  <SCORE.INTRA.VDW.0>
-3.28744

>  <SCORE.INTRA.norm>
-0.100234

>  <SCORE.RESTR>
0.00464408

>  <SCORE.RESTR.CAVITY>
0.00464408

>  <SCORE.RESTR.norm>
0.000125516

>  <SCORE.SYSTEM>
0

>  <SCORE.SYSTEM.CONST>
0

>  <SCORE.SYSTEM.DIHEDRAL>
0

>  <SCORE.SYSTEM.SOLV>
0

>  <SCORE.SYSTEM.norm>
0

>  <SCORE.heavy>
37

>  <SCORE.norm>
-0.563796

>  <RMSD>
2.571

$$$$
2oe8_lig
 OpenBabel11021811463D
libRbt.so/2013.1/901 2013/11/27
 37 40  0  0  0  0  0  0  0  0999 V2000
   20.4516    0.9475   53.5114 C   0  0  1  0  0  0  0  0  0  0  0  0
   19.8843    1.7761   52.2969 C   0  0  1  0  0  0  0  0  0  0  0  0
   18.7862    0.9564   51.5880 C   0  0  0  0  0  0  0  0  0  0  0  0
   19.4719   -0.3602   51.1059 C   0  0  1  0  0  0  0  0  0  0  0  0
   20.0765   -1.2101   52.3380 C   0  0  1  0  0  0  0  0  0  0  0  0
   20.7793   -2.5159   51.8638 C   0  0  1  0  0  0  0  0  0  0  0  0
   19.7072   -3.3652   51.0661 C   0  0  1  0  0  0  0  0  0  0  0  0
   19.1183   -2.4821   49.9114 C   0  0  2  0  0  0  0  0  0  0  0  0
   19.8374   -5.9878   51.0247 C   0  0  0  0  0  0  0  0  0  0  0  0
   19.3146    3.0777   52.7698 N   0  0  0  0  0  0  0  0  0  0  0  0
   20.3181   -4.6517   50.5172 N   0  0  0  0  0  0  0  0  0  0  0  0
   19.4365    0.6722   54.4849 O   0  0  0  0  0  0  0  0  0  0  0  0
   21.0252   -0.3567   53.0667 O   0  0  0  0  0  0  0  0  0  0  0  0
   18.5170   -1.2059   50.3988 O   0  0  0  0  0  0  0  0  0  0  0  0
   21.8833   -2.1255   51.0454 O   0  0  0  0  0  0  0  0  0  0  0  0
   18.1387   -3.1994   49.2535 O   0  0  0  0  0  0  0  0  0  0  0  0
   18.6649   -4.1535   48.3155 C   0  0  2  0  0  0  0  0  0  0  0  0
   18.2294   -3.7872   46.8761 C   0  0  1  0  0  0  0  0  0  0  0  0
   16.6877   -3.9239   46.6846 C   0  0  2  0  0  0  0  0  0  0  0  0
   16.2563   -5.3849   47.0080 C   0  0  1  0  0  0  0  0  0  0  0  0
   16.6598   -5.6616   48.5160 C   0  0  1  0  0  0  0  0  0  0  0  0
   16.3008   -7.0791   48.9527 C   0  0  0  0  0  0  0  0  0  0  0  0
   14.7827   -5.5182   46.8254 N   0  0  0  0  0  0  0  0  0  0  0  0
   18.1513   -5.5065   48.6533 O   0  0  0  0  0  0  0  0  0  0  0  0
   18.6878   -2.4460   46.6197 O   0  0  0  0  0  0  0  0  0  0  0  0
   16.3772   -3.6216   45.3405 O   0  0  0  0  0  0  0  0  0  0  0  0
   16.8486   -8.0000   48.0466 O   0  0  0  0  0  0  0  0  0  0  0  0
   19.8957    0.7475   55.8188 C   0  0  1  0  0  0  0  0  0  0  0  0
   18.6983    1.1865   56.7217 C   0  0  1  0  0  0  0  0  0  0  0  0
   19.1983    1.3043   58.1910 C   0  0  2  0  0  0  0  0  0  0  0  0
   19.7717   -0.0572   58.6922 C   0  0  1  0  0  0  0  0  0  0  0  0
   20.9735   -0.5139   57.7802 C   0  0  0  0  0  0  0  0  0  0  0  0
   20.4588   -0.6385   56.2863 C   0  0  2  0  0  0  0  0  0  0  0  0
   20.2478    0.0825   60.0963 N   0  0  0  0  0  0  0  0  0  0  0  0
   21.5920   -1.0712   55.4378 N   0  0  0  0  0  0  0  0  0  0  0  0
   18.1910    2.4642   56.2935 O   0  0  0  0  0  0  0  0  0  0  0  0
   18.0930    1.6963   58.9882 O   0  0  0  0  0  0  0  0  0  0  0  0
  1  2  1  0  0  0  0
  1 12  1  1  0  0  0
  1 13  1  0  0  0  0
  2  3  1  0  0  0  0
  2 10  1  1  0  0  0
  4  3  1  1  0  0  0
  4  5  1  0  0  0  0
  4 14  1  0  0  0  0
  5  6  1  0  0  0  0
  5 13  1  6  0  0  0
  6  7  1  0  0  0  0
  6 15  1  6  0  0  0
  7  8  1  0  0  0  0
  7 11  1  6  0  0  0
  8 14  1  0  0  0  0
  8 16  1  1  0  0  0
  9 11  1  0  0  0  0
 17 16  1  1  0  0  0
 17 18  1  0  0  0  0
 17 24  1  0  0  0  0
 18 19  1  0  0  0  0
 18 25  1  1  0  0  0
 19 20  1  0  0  0  0
 19 26  1  6  0  0  0
 20 21  1  0  0  0  0
 20 23  1  1  0  0  0
 21 22  1  6  0  0  0
 21 24  1  0  0  0  0
 22 27  1  0  0  0  0
 28 12  1  6  0  0  0
 28 29  1  0  0  0  0
 28 33  1  0  0  0  0
 29 30  1  0  0  0  0
 29 36  1  6  0  0  0
 30 31  1  0  0  0  0
 30 37  1  1  0  0  0
 31 32  1  0  0  0  0
 31 34  1  1  0  0  0
 32 33  1  0  0  0  0
 33 35  1  6  0  0  0
M  END
>  <CHROM.1>
-141.74677729,114.96802449,-79.43281210,-116.36005765,53.09990227,150.32953565
18.94611302,-1.90937004,51.91555432,0.11184467,-1.35206068,-0.45265489

>  <Name>
2oe8_lig

>  <RI>
0

>  <Rbt.Current_Directory>
/home/itssahil/PROJECTS/Mol_Feturizer/New_Systems/rnas/2oe8

>  <Rbt.Executable>
rbdock ($Id: //depot/dev/client3/rdock/2013.1/src/exe/rbdock.cxx#4 $)

>  <Rbt.Library>
libRbt.so (2013.1, Build901 2013/11/27)

>  <Rbt.Parameter_File>
/export/apps/rDock/src/rDock_2013.1_src/data/scripts/dock_solv.prm

>  <Rbt.Receptor>
prm/pocket_docking_6.prm

>  <SCORE>
-19.8552

>  <SCORE.INTER>
-22.3836

>  <SCORE.INTER.CONST>
1

>  <SCORE.INTER.POLAR>
-1.45353

>  <SCORE.INTER.ROT>
6

>  <SCORE.INTER.SOLV>
19.1901

>  <SCORE.INTER.VDW>
-24.074

>  <SCORE.INTER.norm>
-0.604961

>  <SCORE.INTRA>
2.52835

>  <SCORE.INTRA.DIHEDRAL>
2.44137

>  <SCORE.INTRA.DIHEDRAL.0>
16.4056

>  <SCORE.INTRA.POLAR>
0

>  <SCORE.INTRA.POLAR.0>
0

>  <SCORE.INTRA.REPUL>
0

>  <SCORE.INTRA.REPUL.0>
0

>  <SCORE.INTRA.SOLV>
1.48877

>  <SCORE.INTRA.SOLV.lig_0>
-90.9627

>  <SCORE.INTRA.VDW>
0.563277

>  <SCORE.INTRA.VDW.0>
-3.28744

>  <SCORE.INTRA.norm>
0.0683338

>  <SCORE.RESTR>
0

>  <SCORE.RESTR.CAVITY>
0

>  <SCORE.RESTR.norm>
0

>  <SCORE.SYSTEM>
0

>  <SCORE.SYSTEM.CONST>
0

>  <SCORE.SYSTEM.DIHEDRAL>
0

>  <SCORE.SYSTEM.SOLV>
0

>  <SCORE.SYSTEM.norm>
0

>  <SCORE.heavy>
37

>  <SCORE.norm>
-0.536627

>  <RMSD>
2.688

$$$$
2oe8_lig
 OpenBabel11021811463D
libRbt.so/2013.1/901 2013/11/27
 37 40  0  0  0  0  0  0  0  0999 V2000
   20.6072    2.4776   53.2715 C   0  0  1  0  0  0  0  0  0  0  0  0
   19.3360    2.8265   52.4078 C   0  0  1  0  0  0  0  0  0  0  0  0
   18.7516    1.5288   51.8120 C   0  0  0  0  0  0  0  0  0  0  0  0
   19.8822    0.9085   50.9329 C   0  0  1  0  0  0  0  0  0  0  0  0
   21.1993    0.5646   51.8007 C   0  0  1  0  0  0  0  0  0  0  0  0
   22.3392   -0.0370   50.9275 C   0  0  1  0  0  0  0  0  0  0  0  0
   21.7649   -1.3401   50.2353 C   0  0  1  0  0  0  0  0  0  0  0  0
   20.4641   -0.9624   49.4445 C   0  0  2  0  0  0  0  0  0  0  0  0
   23.9116   -2.8153   49.9008 C   0  0  0  0  0  0  0  0  0  0  0  0
   18.2999    3.5054   53.2491 N   0  0  0  0  0  0  0  0  0  0  0  0
   22.8011   -1.9799   49.3153 N   0  0  0  0  0  0  0  0  0  0  0  0
   20.2807    1.6185   54.3712 O   0  0  0  0  0  0  0  0  0  0  0  0
   21.6563    1.7982   52.4556 O   0  0  0  0  0  0  0  0  0  0  0  0
   19.4226   -0.3233   50.3015 O   0  0  0  0  0  0  0  0  0  0  0  0
   22.7145    0.9632   49.9790 O   0  0  0  0  0  0  0  0  0  0  0  0
   19.9271   -2.1082   48.8915 O   0  0  0  0  0  0  0  0  0  0  0  0
   19.0019   -2.7810   49.7622 C   0  0  2  0  0  0  0  0  0  0  0  0
   19.6270   -4.0904   50.3009 C   0  0  1  0  0  0  0  0  0  0  0  0
   19.8570   -5.1331   49.1643 C   0  0  2  0  0  0  0  0  0  0  0  0
   18.4986   -5.4464   48.4704 C   0  0  1  0  0  0  0  0  0  0  0  0
   17.9589   -4.0797   47.8754 C   0  0  1  0  0  0  0  0  0  0  0  0
   16.6128   -4.2523   47.1774 C   0  0  0  0  0  0  0  0  0  0  0  0
   18.7158   -6.4434   47.3834 N   0  0  0  0  0  0  0  0  0  0  0  0
   17.7642   -3.1041   49.0057 O   0  0  0  0  0  0  0  0  0  0  0  0
   20.8556   -3.7357   50.9640 O   0  0  0  0  0  0  0  0  0  0  0  0
   20.3812   -6.3114   49.7400 O   0  0  0  0  0  0  0  0  0  0  0  0
   16.7793   -5.0433   46.0304 O   0  0  0  0  0  0  0  0  0  0  0  0
   20.0923    2.3065   55.5907 C   0  0  1  0  0  0  0  0  0  0  0  0
   19.2851    1.3777   56.5537 C   0  0  1  0  0  0  0  0  0  0  0  0
   19.0428    2.1359   57.8914 C   0  0  2  0  0  0  0  0  0  0  0  0
   20.3967    2.5403   58.5524 C   0  0  1  0  0  0  0  0  0  0  0  0
   21.2232    3.4687   57.5831 C   0  0  0  0  0  0  0  0  0  0  0  0
   21.4731    2.6908   56.2250 C   0  0  2  0  0  0  0  0  0  0  0  0
   20.1384    3.2679   59.8258 N   0  0  0  0  0  0  0  0  0  0  0  0
   22.2527    3.5678   55.3226 N   0  0  0  0  0  0  0  0  0  0  0  0
   18.0142    1.0352   55.9700 O   0  0  0  0  0  0  0  0  0  0  0  0
   18.3161    1.2700   58.7475 O   0  0  0  0  0  0  0  0  0  0  0  0
  1  2  1  0  0  0  0
  1 12  1  1  0  0  0
  1 13  1  0  0  0  0
  2  3  1  0  0  0  0
  2 10  1  1  0  0  0
  4  3  1  1  0  0  0
  4  5  1  0  0  0  0
  4 14  1  0  0  0  0
  5  6  1  0  0  0  0
  5 13  1  6  0  0  0
  6  7  1  0  0  0  0
  6 15  1  6  0  0  0
  7  8  1  0  0  0  0
  7 11  1  6  0  0  0
  8 14  1  0  0  0  0
  8 16  1  1  0  0  0
  9 11  1  0  0  0  0
 17 16  1  6  0  0  0
 17 18  1  0  0  0  0
 17 24  1  0  0  0  0
 18 19  1  0  0  0  0
 18 25  1  6  0  0  0
 19 20  1  0  0  0  0
 19 26  1  1  0  0  0
 20 21  1  0  0  0  0
 20 23  1  6  0  0  0
 21 22  1  1  0  0  0
 21 24  1  0  0  0  0
 22 27  1  0  0  0  0
 28 12  1  6  0  0  0
 28 29  1  0  0  0  0
 28 33  1  0  0  0  0
 29 30  1  0  0  0  0
 29 36  1  6  0  0  0
 30 31  1  0  0  0  0
 30 37  1  1  0  0  0
 31 32  1  0  0  0  0
 31 34  1  1  0  0  0
 32 33  1  0  0  0  0
 33 35  1  6  0  0  0
M  END
>  <CHROM.1>
-97.39110884,78.47876660,89.15533516,-108.14348390,-66.81571872,160.77745759
19.98173402,-0.58481530,52.05633146,-1.46801347,-0.56128999,-2.20571166

>  <Name>
2oe8_lig

>  <RI>
0

>  <Rbt.Current_Directory>
/home/itssahil/PROJECTS/Mol_Feturizer/New_Systems/rnas/2oe8

>  <Rbt.Executable>
rbdock ($Id: //depot/dev/client3/rdock/2013.1/src/exe/rbdock.cxx#4 $)

>  <Rbt.Library>
libRbt.so (2013.1, Build901 2013/11/27)

>  <Rbt.Parameter_File>
/export/apps/rDock/src/rDock_2013.1_src/data/scripts/dock_solv.prm

>  <Rbt.Receptor>
prm/pocket_docking_4.prm

>  <SCORE>
-19.064

>  <SCORE.INTER>
-22.3047

>  <SCORE.INTER.CONST>
1

>  <SCORE.INTER.POLAR>
-2.64423

>  <SCORE.INTER.ROT>
6

>  <SCORE.INTER.SOLV>
9.57282

>  <SCORE.INTER.VDW>
-16.8467

>  <SCORE.INTER.norm>
-0.602831

>  <SCORE.INTRA>
3.24078

>  <SCORE.INTRA.DIHEDRAL>
0.618534

>  <SCORE.INTRA.DIHEDRAL.0>
16.4056

>  <SCORE.INTRA.POLAR>
0

>  <SCORE.INTRA.POLAR.0>
0

>  <SCORE.INTRA.REPUL>
0

>  <SCORE.INTRA.REPUL.0>
0

>  <SCORE.INTRA.SOLV>
1.79217

>  <SCORE.INTRA.SOLV.lig_0>
-90.9627

>  <SCORE.INTRA.VDW>
2.03543

>  <SCORE.INTRA.VDW.0>
-3.28744

>  <SCORE.INTRA.norm>
0.0875887

>  <SCORE.RESTR>
0

>  <SCORE.RESTR.CAVITY>
0

>  <SCORE.RESTR.norm>
0

>  <SCORE.SYSTEM>
0

>  <SCORE.SYSTEM.CONST>
0

>  <SCORE.SYSTEM.DIHEDRAL>
0

>  <SCORE.SYSTEM.SOLV>
0

>  <SCORE.SYSTEM.norm>
0

>  <SCORE.heavy>
37

>  <SCORE.norm>
-0.515242

>  <RMSD>
2.693

$$$$
2oe8_lig
 OpenBabel11021811463D
libRbt.so/2013.1/901 2013/11/27
 37 40  0  0  0  0  0  0  0  0999 V2000
   19.8540    1.3639   53.6284 C   0  0  1  0  0  0  0  0  0  0  0  0
   19.2756    2.1587   52.3967 C   0  0  1  0  0  0  0  0  0  0  0  0
   18.3058    1.2503   51.6125 C   0  0  0  0  0  0  0  0  0  0  0  0
   19.1452    0.0186   51.1496 C   0  0  1  0  0  0  0  0  0  0  0  0
   19.7618   -0.7942   52.4007 C   0  0  1  0  0  0  0  0  0  0  0  0
   20.6166   -2.0138   51.9469 C   0  0  1  0  0  0  0  0  0  0  0  0
   19.6806   -2.9471   51.0752 C   0  0  1  0  0  0  0  0  0  0  0  0
   19.0720   -2.1015   49.9028 C   0  0  2  0  0  0  0  0  0  0  0  0
   19.8534   -5.5356   50.6672 C   0  0  0  0  0  0  0  0  0  0  0  0
   18.5535    3.3872   52.8568 N   0  0  0  0  0  0  0  0  0  0  0  0
   20.4463   -4.1548   50.5418 N   0  0  0  0  0  0  0  0  0  0  0  0
   18.8187    0.9688   54.5372 O   0  0  0  0  0  0  0  0  0  0  0  0
   20.5786    0.1326   53.1965 O   0  0  0  0  0  0  0  0  0  0  0  0
   18.3202   -0.9016   50.3751 O   0  0  0  0  0  0  0  0  0  0  0  0
   21.7200   -1.4988   51.1999 O   0  0  0  0  0  0  0  0  0  0  0  0
   18.2069   -2.8974   49.1781 O   0  0  0  0  0  0  0  0  0  0  0  0
   18.8785   -3.8753   48.3658 C   0  0  2  0  0  0  0  0  0  0  0  0
   19.3796   -3.2288   47.0519 C   0  0  1  0  0  0  0  0  0  0  0  0
   18.1974   -2.7731   46.1426 C   0  0  2  0  0  0  0  0  0  0  0  0
   17.2977   -4.0009   45.8140 C   0  0  1  0  0  0  0  0  0  0  0  0
   16.7579   -4.5599   47.1958 C   0  0  1  0  0  0  0  0  0  0  0  0
   15.8684   -5.7857   47.0080 C   0  0  0  0  0  0  0  0  0  0  0  0
   16.1667   -3.5678   44.9445 N   0  0  0  0  0  0  0  0  0  0  0  0
   17.9329   -4.9748   48.0412 O   0  0  0  0  0  0  0  0  0  0  0  0
   20.2347   -2.1284   47.4165 O   0  0  0  0  0  0  0  0  0  0  0  0
   18.7327   -2.2412   44.9489 O   0  0  0  0  0  0  0  0  0  0  0  0
   14.8755   -5.5014   46.0581 O   0  0  0  0  0  0  0  0  0  0  0  0
   19.1573    1.1532   55.8963 C   0  0  1  0  0  0  0  0  0  0  0  0
   17.8755    1.6200   56.6582 C   0  0  1  0  0  0  0  0  0  0  0  0
   18.2419    1.8577   58.1522 C   0  0  2  0  0  0  0  0  0  0  0  0
   18.8009    0.5533   58.8001 C   0  0  1  0  0  0  0  0  0  0  0  0
   20.0884    0.0684   58.0308 C   0  0  0  0  0  0  0  0  0  0  0  0
   19.7096   -0.1784   56.5116 C   0  0  2  0  0  0  0  0  0  0  0  0
   19.1487    0.8076   60.2257 N   0  0  0  0  0  0  0  0  0  0  0  0
   20.9226   -0.6369   55.7978 N   0  0  0  0  0  0  0  0  0  0  0  0
   17.3778    2.8481   56.0947 O   0  0  0  0  0  0  0  0  0  0  0  0
   17.0621    2.2728   58.8205 O   0  0  0  0  0  0  0  0  0  0  0  0
  1  2  1  0  0  0  0
  1 12  1  1  0  0  0
  1 13  1  0  0  0  0
  2  3  1  0  0  0  0
  2 10  1  1  0  0  0
  4  3  1  1  0  0  0
  4  5  1  0  0  0  0
  4 14  1  0  0  0  0
  5  6  1  0  0  0  0
  5 13  1  6  0  0  0
  6  7  1  0  0  0  0
  6 15  1  6  0  0  0
  7  8  1  0  0  0  0
  7 11  1  6  0  0  0
  8 14  1  0  0  0  0
  8 16  1  1  0  0  0
  9 11  1  0  0  0  0
 17 16  1  1  0  0  0
 17 18  1  0  0  0  0
 17 24  1  0  0  0  0
 18 19  1  0  0  0  0
 18 25  1  1  0  0  0
 19 20  1  0  0  0  0
 19 26  1  6  0  0  0
 20 21  1  0  0  0  0
 20 23  1  6  0  0  0
 21 22  1  6  0  0  0
 21 24  1  0  0  0  0
 22 27  1  0  0  0  0
 28 12  1  6  0  0  0
 28 29  1  0  0  0  0
 28 33  1  0  0  0  0
 29 30  1  0  0  0  0
 29 36  1  6  0  0  0
 30 31  1  0  0  0  0
 30 37  1  1  0  0  0
 31 32  1  0  0  0  0
 31 34  1  1  0  0  0
 32 33  1  0  0  0  0
 33 35  1  6  0  0  0
M  END
>  <CHROM.1>
-137.32728042,132.49635309,-72.97807625,-80.96324297,-51.42314078,142.92957854
18.76857693,-1.25461783,51.70306107,1.30872803,-1.18539891,0.84698558

>  <Name>
2oe8_lig

>  <RI>
0

>  <Rbt.Current_Directory>
/home/itssahil/PROJECTS/Mol_Feturizer/New_Systems/rnas/2oe8

>  <Rbt.Executable>
rbdock ($Id: //depot/dev/client3/rdock/2013.1/src/exe/rbdock.cxx#4 $)

>  <Rbt.Library>
libRbt.so (2013.1, Build901 2013/11/27)

>  <Rbt.Parameter_File>
/export/apps/rDock/src/rDock_2013.1_src/data/scripts/dock_solv.prm

>  <Rbt.Receptor>
prm/pocket_docking_3.prm

>  <SCORE>
-19.5532

>  <SCORE.INTER>
-23.0315

>  <SCORE.INTER.CONST>
1

>  <SCORE.INTER.POLAR>
-1.71382

>  <SCORE.INTER.ROT>
6

>  <SCORE.INTER.SOLV>
16.7535

>  <SCORE.INTER.VDW>
-22.8261

>  <SCORE.INTER.norm>
-0.622473

>  <SCORE.INTRA>
2.64097

>  <SCORE.INTRA.DIHEDRAL>
-1.58091

>  <SCORE.INTRA.DIHEDRAL.0>
16.4056

>  <SCORE.INTRA.POLAR>
0

>  <SCORE.INTRA.POLAR.0>
0

>  <SCORE.INTRA.REPUL>
0

>  <SCORE.INTRA.REPUL.0>
0

>  <SCORE.INTRA.SOLV>
2.26472

>  <SCORE.INTRA.SOLV.lig_0>
-90.9627

>  <SCORE.INTRA.VDW>
2.29907

>  <SCORE.INTRA.VDW.0>
-3.28744

>  <SCORE.INTRA.norm>
0.0713775

>  <SCORE.RESTR>
0.837353

>  <SCORE.RESTR.CAVITY>
0.837353

>  <SCORE.RESTR.norm>
0.0226312

>  <SCORE.SYSTEM>
0

>  <SCORE.SYSTEM.CONST>
0

>  <SCORE.SYSTEM.DIHEDRAL>
0

>  <SCORE.SYSTEM.SOLV>
0

>  <SCORE.SYSTEM.norm>
0

>  <SCORE.heavy>
37

>  <SCORE.norm>
-0.528465

>  <RMSD>
2.728

$$$$
2oe8_lig
 OpenBabel11021811463D
libRbt.so/2013.1/901 2013/11/27
 37 40  0  0  0  0  0  0  0  0999 V2000
   19.8730    1.3930   53.7519 C   0  0  1  0  0  0  0  0  0  0  0  0
   19.3666    2.1346   52.4570 C   0  0  1  0  0  0  0  0  0  0  0  0
   18.3954    1.2145   51.6884 C   0  0  0  0  0  0  0  0  0  0  0  0
   19.2086   -0.0677   51.3268 C   0  0  1  0  0  0  0  0  0  0  0  0
   19.7518   -0.8274   52.6435 C   0  0  1  0  0  0  0  0  0  0  0  0
   20.5804   -2.0973   52.2909 C   0  0  1  0  0  0  0  0  0  0  0  0
   19.6453   -3.0483   51.4376 C   0  0  1  0  0  0  0  0  0  0  0  0
   19.1083   -2.2517   50.1979 C   0  0  2  0  0  0  0  0  0  0  0  0
   19.6804   -5.6396   51.0126 C   0  0  0  0  0  0  0  0  0  0  0  0
   18.6706    3.4097   52.8204 N   0  0  0  0  0  0  0  0  0  0  0  0
   20.3883   -4.3082   51.0016 N   0  0  0  0  0  0  0  0  0  0  0  0
   18.7928    1.0833   54.6415 O   0  0  0  0  0  0  0  0  0  0  0  0
   20.5704    0.1166   53.4170 O   0  0  0  0  0  0  0  0  0  0  0  0
   18.3813   -1.0036   50.5740 O   0  0  0  0  0  0  0  0  0  0  0  0
   21.7269   -1.6611   51.5588 O   0  0  0  0  0  0  0  0  0  0  0  0
   18.2434   -3.0596   49.4863 O   0  0  0  0  0  0  0  0  0  0  0  0
   18.9159   -4.0242   48.6592 C   0  0  2  0  0  0  0  0  0  0  0  0
   19.2797   -3.3976   47.2914 C   0  0  1  0  0  0  0  0  0  0  0  0
   18.0089   -3.0491   46.4574 C   0  0  2  0  0  0  0  0  0  0  0  0
   17.1679   -4.3410   46.2362 C   0  0  1  0  0  0  0  0  0  0  0  0
   16.7650   -4.8801   47.6716 C   0  0  1  0  0  0  0  0  0  0  0  0
   15.9441   -6.1640   47.5901 C   0  0  0  0  0  0  0  0  0  0  0  0
   15.9524   -4.0104   45.4388 N   0  0  0  0  0  0  0  0  0  0  0  0
   18.0214   -5.1907   48.4412 O   0  0  0  0  0  0  0  0  0  0  0  0
   20.0869   -2.2343   47.5559 O   0  0  0  0  0  0  0  0  0  0  0  0
   18.4225   -2.5303   45.2107 O   0  0  0  0  0  0  0  0  0  0  0  0
   16.7105   -7.1707   46.9832 O   0  0  0  0  0  0  0  0  0  0  0  0
   19.1186    1.2467   56.0064 C   0  0  1  0  0  0  0  0  0  0  0  0
   17.8248    1.6817   56.7669 C   0  0  1  0  0  0  0  0  0  0  0  0
   18.1766    1.8960   58.2680 C   0  0  2  0  0  0  0  0  0  0  0  0
   18.7484    0.5873   58.8956 C   0  0  1  0  0  0  0  0  0  0  0  0
   20.0482    0.1345   58.1274 C   0  0  0  0  0  0  0  0  0  0  0  0
   19.6844   -0.0887   56.6010 C   0  0  2  0  0  0  0  0  0  0  0  0
   19.0819    0.8193   60.3283 N   0  0  0  0  0  0  0  0  0  0  0  0
   20.9089   -0.5172   55.8882 N   0  0  0  0  0  0  0  0  0  0  0  0
   17.3147    2.9132   56.2226 O   0  0  0  0  0  0  0  0  0  0  0  0
   16.9862    2.2824   58.9347 O   0  0  0  0  0  0  0  0  0  0  0  0
  1  2  1  0  0  0  0
  1 12  1  1  0  0  0
  1 13  1  0  0  0  0
  2  3  1  0  0  0  0
  2 10  1  1  0  0  0
  4  3  1  1  0  0  0
  4  5  1  0  0  0  0
  4 14  1  0  0  0  0
  5  6  1  0  0  0  0
  5 13  1  6  0  0  0
  6  7  1  0  0  0  0
  6 15  1  6  0  0  0
  7  8  1  0  0  0  0
  7 11  1  6  0  0  0
  8 14  1  0  0  0  0
  8 16  1  1  0  0  0
  9 11  1  0  0  0  0
 17 16  1  1  0  0  0
 17 18  1  0  0  0  0
 17 24  1  0  0  0  0
 18 19  1  0  0  0  0
 18 25  1  1  0  0  0
 19 20  1  0  0  0  0
 19 26  1  6  0  0  0
 20 21  1  0  0  0  0
 20 23  1  6  0  0  0
 21 22  1  6  0  0  0
 21 24  1  0  0  0  0
 22 27  1  0  0  0  0
 28 12  1  6  0  0  0
 28 29  1  0  0  0  0
 28 33  1  0  0  0  0
 29 30  1  0  0  0  0
 29 36  1  6  0  0  0
 30 31  1  0  0  0  0
 30 37  1  1  0  0  0
 31 32  1  0  0  0  0
 31 34  1  1  0  0  0
 32 33  1  0  0  0  0
 33 35  1  6  0  0  0
M  END
>  <CHROM.1>
-141.42034276,140.45327625,-78.39257128,-85.61154602,61.95410682,148.36237888
18.79142905,-1.39041557,51.95525703,0.82760186,-1.44768541,0.29837671

>  <Name>
2oe8_lig

>  <RI>
0

>  <Rbt.Current_Directory>
/home/itssahil/PROJECTS/Mol_Feturizer/New_Systems/rnas/2oe8

>  <Rbt.Executable>
rbdock ($Id: //depot/dev/client3/rdock/2013.1/src/exe/rbdock.cxx#4 $)

>  <Rbt.Library>
libRbt.so (2013.1, Build901 2013/11/27)

>  <Rbt.Parameter_File>
/export/apps/rDock/src/rDock_2013.1_src/data/scripts/dock_solv.prm

>  <Rbt.Receptor>
prm/pocket_docking_3.prm

>  <SCORE>
-20.0151

>  <SCORE.INTER>
-22.0995

>  <SCORE.INTER.CONST>
1

>  <SCORE.INTER.POLAR>
-1.33728

>  <SCORE.INTER.ROT>
6

>  <SCORE.INTER.SOLV>
16.2162

>  <SCORE.INTER.VDW>
-23.2808

>  <SCORE.INTER.norm>
-0.597284

>  <SCORE.INTRA>
1.61209

>  <SCORE.INTRA.DIHEDRAL>
-2.09983

>  <SCORE.INTRA.DIHEDRAL.0>
16.4056

>  <SCORE.INTRA.POLAR>
0

>  <SCORE.INTRA.POLAR.0>
0

>  <SCORE.INTRA.REPUL>
0

>  <SCORE.INTRA.REPUL.0>
0

>  <SCORE.INTRA.SOLV>
1.51309

>  <SCORE.INTRA.SOLV.lig_0>
-90.9627

>  <SCORE.INTRA.VDW>
1.90546

>  <SCORE.INTRA.VDW.0>
-3.28744

>  <SCORE.INTRA.norm>
0.04357

>  <SCORE.RESTR>
0.472323

>  <SCORE.RESTR.CAVITY>
0.472323

>  <SCORE.RESTR.norm>
0.0127655

>  <SCORE.SYSTEM>
0

>  <SCORE.SYSTEM.CONST>
0

>  <SCORE.SYSTEM.DIHEDRAL>
0

>  <SCORE.SYSTEM.SOLV>
0

>  <SCORE.SYSTEM.norm>
0

>  <SCORE.heavy>
37

>  <SCORE.norm>
-0.540948

>  <RMSD>
2.733

$$$$
2oe8_lig
 OpenBabel11021811463D
libRbt.so/2013.1/901 2013/11/27
 37 40  0  0  0  0  0  0  0  0999 V2000
   20.0132    2.3948   52.9779 C   0  0  1  0  0  0  0  0  0  0  0  0
   18.5180    2.0786   52.5934 C   0  0  1  0  0  0  0  0  0  0  0  0
   18.3031    0.5507   52.5925 C   0  0  0  0  0  0  0  0  0  0  0  0
   19.2952   -0.0253   51.5343 C   0  0  1  0  0  0  0  0  0  0  0  0
   20.8307    0.3087   51.9041 C   0  0  1  0  0  0  0  0  0  0  0  0
   21.8259   -0.2462   50.8432 C   0  0  1  0  0  0  0  0  0  0  0  0
   21.5957   -1.8101   50.7535 C   0  0  1  0  0  0  0  0  0  0  0  0
   20.0836   -2.0825   50.4384 C   0  0  2  0  0  0  0  0  0  0  0  0
   22.7911   -3.9211   49.7478 C   0  0  0  0  0  0  0  0  0  0  0  0
   17.5787    2.7185   53.5684 N   0  0  0  0  0  0  0  0  0  0  0  0
   22.4995   -2.4424   49.6986 N   0  0  0  0  0  0  0  0  0  0  0  0
   20.3329    1.9235   54.2930 O   0  0  0  0  0  0  0  0  0  0  0  0
   20.9712    1.7668   52.0210 O   0  0  0  0  0  0  0  0  0  0  0  0
   19.1582   -1.4742   51.4391 O   0  0  0  0  0  0  0  0  0  0  0  0
   21.5401    0.4180   49.6111 O   0  0  0  0  0  0  0  0  0  0  0  0
   19.8679   -3.4464   50.4213 O   0  0  0  0  0  0  0  0  0  0  0  0
   18.4841   -3.8019   50.2611 C   0  0  2  0  0  0  0  0  0  0  0  0
   18.3477   -5.3198   49.9909 C   0  0  1  0  0  0  0  0  0  0  0  0
   18.9721   -5.7227   48.6198 C   0  0  2  0  0  0  0  0  0  0  0  0
   18.2741   -4.9218   47.4811 C   0  0  1  0  0  0  0  0  0  0  0  0
   18.5227   -3.3847   47.7794 C   0  0  1  0  0  0  0  0  0  0  0  0
   17.8683   -2.4866   46.7335 C   0  0  0  0  0  0  0  0  0  0  0  0
   18.8692   -5.3054   46.1691 N   0  0  0  0  0  0  0  0  0  0  0  0
   17.9143   -3.0472   49.1148 O   0  0  0  0  0  0  0  0  0  0  0  0
   18.9736   -6.0072   51.0912 O   0  0  0  0  0  0  0  0  0  0  0  0
   18.7654   -7.1061   48.4254 O   0  0  0  0  0  0  0  0  0  0  0  0
   18.5246   -2.6468   45.5035 O   0  0  0  0  0  0  0  0  0  0  0  0
   19.8063    2.7293   55.3270 C   0  0  1  0  0  0  0  0  0  0  0  0
   19.2857    1.7880   56.4603 C   0  0  1  0  0  0  0  0  0  0  0  0
   18.6735    2.6624   57.5932 C   0  0  2  0  0  0  0  0  0  0  0  0
   19.7363    3.6495   58.1674 C   0  0  1  0  0  0  0  0  0  0  0  0
   20.2756    4.5962   57.0282 C   0  0  0  0  0  0  0  0  0  0  0  0
   20.9037    3.7023   55.8798 C   0  0  2  0  0  0  0  0  0  0  0  0
   19.1257    4.4773   59.2441 N   0  0  0  0  0  0  0  0  0  0  0  0
   21.4108    4.5988   54.8167 N   0  0  0  0  0  0  0  0  0  0  0  0
   18.2717    0.9027   55.9491 O   0  0  0  0  0  0  0  0  0  0  0  0
   18.2161    1.7856   58.6096 O   0  0  0  0  0  0  0  0  0  0  0  0
  1  2  1  0  0  0  0
  1 12  1  1  0  0  0
  1 13  1  0  0  0  0
  2  3  1  0  0  0  0
  2 10  1  1  0  0  0
  4  3  1  1  0  0  0
  4  5  1  0  0  0  0
  4 14  1  0  0  0  0
  5  6  1  0  0  0  0
  5 13  1  6  0  0  0
  6  7  1  0  0  0  0
  6 15  1  6  0  0  0
  7  8  1  0  0  0  0
  7 11  1  6  0  0  0
  8 14  1  0  0  0  0
  8 16  1  1  0  0  0
  9 11  1  0  0  0  0
 17 16  1  6  0  0  0
 17 18  1  0  0  0  0
 17 24  1  0  0  0  0
 18 19  1  0  0  0  0
 18 25  1  1  0  0  0
 19 20  1  0  0  0  0
 19 26  1  6  0  0  0
 20 21  1  0  0  0  0
 20 23  1  6  0  0  0
 21 22  1  6  0  0  0
 21 24  1  0  0  0  0
 22 27  1  0  0  0  0
 28 12  1  6  0  0  0
 28 29  1  0  0  0  0
 28 33  1  0  0  0  0
 29 30  1  0  0  0  0
 29 36  1  6  0  0  0
 30 31  1  0  0  0  0
 30 37  1  1  0  0  0
 31 32  1  0  0  0  0
 31 34  1  1  0  0  0
 32 33  1  0  0  0  0
 33 35  1  6  0  0  0
M  END
>  <CHROM.1>
-75.79670541,159.73563043,174.64810678,169.62090388,-68.04168639,139.75997683
19.57392104,-0.64831214,51.98418443,-1.50529750,-0.99063888,-2.25777104

>  <Name>
2oe8_lig

>  <RI>
0

>  <Rbt.Current_Directory>
/home/itssahil/PROJECTS/Mol_Feturizer/New_Systems/rnas/2oe8

>  <Rbt.Executable>
rbdock ($Id: //depot/dev/client3/rdock/2013.1/src/exe/rbdock.cxx#4 $)

>  <Rbt.Library>
libRbt.so (2013.1, Build901 2013/11/27)

>  <Rbt.Parameter_File>
/export/apps/rDock/src/rDock_2013.1_src/data/scripts/dock_solv.prm

>  <Rbt.Receptor>
prm/pocket_docking_4.prm

>  <SCORE>
-17.8368

>  <SCORE.INTER>
-15.022

>  <SCORE.INTER.CONST>
1

>  <SCORE.INTER.POLAR>
-1.56753

>  <SCORE.INTER.ROT>
6

>  <SCORE.INTER.SOLV>
11.9116

>  <SCORE.INTER.VDW>
-16.3601

>  <SCORE.INTER.norm>
-0.406001

>  <SCORE.INTRA>
-2.81472

>  <SCORE.INTRA.DIHEDRAL>
-8.55033

>  <SCORE.INTRA.DIHEDRAL.0>
16.4056

>  <SCORE.INTRA.POLAR>
0

>  <SCORE.INTRA.POLAR.0>
0

>  <SCORE.INTRA.REPUL>
0

>  <SCORE.INTRA.REPUL.0>
0

>  <SCORE.INTRA.SOLV>
1.16267

>  <SCORE.INTRA.SOLV.lig_0>
-90.9627

>  <SCORE.INTRA.VDW>
0.879112

>  <SCORE.INTRA.VDW.0>
-3.28744

>  <SCORE.INTRA.norm>
-0.0760735

>  <SCORE.RESTR>
0

>  <SCORE.RESTR.CAVITY>
0

>  <SCORE.RESTR.norm>
0

>  <SCORE.SYSTEM>
0

>  <SCORE.SYSTEM.CONST>
0

>  <SCORE.SYSTEM.DIHEDRAL>
0

>  <SCORE.SYSTEM.SOLV>
0

>  <SCORE.SYSTEM.norm>
0

>  <SCORE.heavy>
37

>  <SCORE.norm>
-0.482075

>  <RMSD>
2.757

$$$$
2oe8_lig
 OpenBabel11021811463D
libRbt.so/2013.1/901 2013/11/27
 37 40  0  0  0  0  0  0  0  0999 V2000
   20.1907    1.8717   53.3134 C   0  0  1  0  0  0  0  0  0  0  0  0
   19.0392    2.3603   52.3549 C   0  0  1  0  0  0  0  0  0  0  0  0
   18.1198    1.1693   52.0128 C   0  0  0  0  0  0  0  0  0  0  0  0
   19.0273    0.1084   51.3150 C   0  0  1  0  0  0  0  0  0  0  0  0
   20.2245   -0.3866   52.2781 C   0  0  1  0  0  0  0  0  0  0  0  0
   21.1460   -1.4312   51.5826 C   0  0  1  0  0  0  0  0  0  0  0  0
   20.2330   -2.6494   51.1476 C   0  0  1  0  0  0  0  0  0  0  0  0
   19.0620   -2.1112   50.2537 C   0  0  2  0  0  0  0  0  0  0  0  0
   20.9859   -5.1492   50.8638 C   0  0  0  0  0  0  0  0  0  0  0  0
   18.2375    3.4439   53.0071 N   0  0  0  0  0  0  0  0  0  0  0  0
   21.0433   -3.7122   50.4106 N   0  0  0  0  0  0  0  0  0  0  0  0
   19.6720    1.3704   54.5518 O   0  0  0  0  0  0  0  0  0  0  0  0
   21.0053    0.7895   52.6866 O   0  0  0  0  0  0  0  0  0  0  0  0
   18.2450   -1.0605   50.9291 O   0  0  0  0  0  0  0  0  0  0  0  0
   21.7523   -0.7789   50.4656 O   0  0  0  0  0  0  0  0  0  0  0  0
   18.2295   -3.1628   49.9246 O   0  0  0  0  0  0  0  0  0  0  0  0
   18.8050   -4.0657   48.9652 C   0  0  2  0  0  0  0  0  0  0  0  0
   18.5754   -3.5395   47.5279 C   0  0  1  0  0  0  0  0  0  0  0  0
   17.0636   -3.5411   47.1448 C   0  0  2  0  0  0  0  0  0  0  0  0
   16.5023   -4.9883   47.2701 C   0  0  1  0  0  0  0  0  0  0  0  0
   16.6976   -5.4293   48.7803 C   0  0  1  0  0  0  0  0  0  0  0  0
   16.1968   -6.8490   49.0304 C   0  0  0  0  0  0  0  0  0  0  0  0
   15.0571   -4.9925   46.9042 N   0  0  0  0  0  0  0  0  0  0  0  0
   18.1675   -5.4008   49.1057 O   0  0  0  0  0  0  0  0  0  0  0  0
   19.1474   -2.2192   47.4602 O   0  0  0  0  0  0  0  0  0  0  0  0
   16.9418   -3.0964   45.8100 O   0  0  0  0  0  0  0  0  0  0  0  0
   16.8822   -7.7408   48.1913 O   0  0  0  0  0  0  0  0  0  0  0  0
   20.6672    1.1201   55.5227 C   0  0  1  0  0  0  0  0  0  0  0  0
   21.0692    2.4842   56.1704 C   0  0  1  0  0  0  0  0  0  0  0  0
   22.1886    2.2270   57.2209 C   0  0  2  0  0  0  0  0  0  0  0  0
   21.6978    1.2384   58.3233 C   0  0  1  0  0  0  0  0  0  0  0  0
   21.2793   -0.1374   57.6776 C   0  0  0  0  0  0  0  0  0  0  0  0
   20.1352    0.1281   56.6133 C   0  0  2  0  0  0  0  0  0  0  0  0
   22.7868    1.0045   59.3118 N   0  0  0  0  0  0  0  0  0  0  0  0
   19.7458   -1.1687   56.0150 N   0  0  0  0  0  0  0  0  0  0  0  0
   21.5655    3.3882   55.1656 O   0  0  0  0  0  0  0  0  0  0  0  0
   22.5291    3.4772   57.7971 O   0  0  0  0  0  0  0  0  0  0  0  0
  1  2  1  0  0  0  0
  1 12  1  1  0  0  0
  1 13  1  0  0  0  0
  2  3  1  0  0  0  0
  2 10  1  1  0  0  0
  4  3  1  1  0  0  0
  4  5  1  0  0  0  0
  4 14  1  0  0  0  0
  5  6  1  0  0  0  0
  5 13  1  6  0  0  0
  6  7  1  0  0  0  0
  6 15  1  6  0  0  0
  7  8  1  0  0  0  0
  7 11  1  6  0  0  0
  8 14  1  0  0  0  0
  8 16  1  1  0  0  0
  9 11  1  0  0  0  0
 17 16  1  1  0  0  0
 17 18  1  0  0  0  0
 17 24  1  0  0  0  0
 18 19  1  0  0  0  0
 18 25  1  1  0  0  0
 19 20  1  0  0  0  0
 19 26  1  6  0  0  0
 20 21  1  0  0  0  0
 20 23  1  1  0  0  0
 21 22  1  6  0  0  0
 21 24  1  0  0  0  0
 22 27  1  0  0  0  0
 28 12  1  6  0  0  0
 28 29  1  0  0  0  0
 28 33  1  0  0  0  0
 29 30  1  0  0  0  0
 29 36  1  6  0  0  0
 30 31  1  0  0  0  0
 30 37  1  1  0  0  0
 31 32  1  0  0  0  0
 31 34  1  1  0  0  0
 32 33  1  0  0  0  0
 33 35  1  6  0  0  0
M  END
>  <CHROM.1>
-170.48325991,127.51698458,-72.40103900,-84.30741685,58.46273877,79.06711870
19.45752111,-1.30056718,51.93294724,0.61537261,-1.14485269,-0.00485151

>  <Name>
2oe8_lig

>  <RI>
0

>  <Rbt.Current_Directory>
/home/itssahil/PROJECTS/Mol_Feturizer/New_Systems/rnas/2oe8

>  <Rbt.Executable>
rbdock ($Id: //depot/dev/client3/rdock/2013.1/src/exe/rbdock.cxx#4 $)

>  <Rbt.Library>
libRbt.so (2013.1, Build901 2013/11/27)

>  <Rbt.Parameter_File>
/export/apps/rDock/src/rDock_2013.1_src/data/scripts/dock_solv.prm

>  <Rbt.Receptor>
prm/pocket_docking_4.prm

>  <SCORE>
-20.535

>  <SCORE.INTER>
-17.5412

>  <SCORE.INTER.CONST>
1

>  <SCORE.INTER.POLAR>
-1.48402

>  <SCORE.INTER.ROT>
6

>  <SCORE.INTER.SOLV>
25.5528

>  <SCORE.INTER.VDW>
-22.865

>  <SCORE.INTER.norm>
-0.474087

>  <SCORE.INTRA>
-2.99377

>  <SCORE.INTRA.DIHEDRAL>
-9.82141

>  <SCORE.INTRA.DIHEDRAL.0>
16.4056

>  <SCORE.INTRA.POLAR>
0

>  <SCORE.INTRA.POLAR.0>
0

>  <SCORE.INTRA.REPUL>
0

>  <SCORE.INTRA.REPUL.0>
0

>  <SCORE.INTRA.SOLV>
-0.543416

>  <SCORE.INTRA.SOLV.lig_0>
-90.9627

>  <SCORE.INTRA.VDW>
2.18864

>  <SCORE.INTRA.VDW.0>
-3.28744

>  <SCORE.INTRA.norm>
-0.0809128

>  <SCORE.RESTR>
0

>  <SCORE.RESTR.CAVITY>
0

>  <SCORE.RESTR.norm>
0

>  <SCORE.SYSTEM>
0

>  <SCORE.SYSTEM.CONST>
0

>  <SCORE.SYSTEM.DIHEDRAL>
0

>  <SCORE.SYSTEM.SOLV>
0

>  <SCORE.SYSTEM.norm>
0

>  <SCORE.heavy>
37

>  <SCORE.norm>
-0.555

>  <RMSD>
2.763

$$$$
2oe8_lig
 OpenBabel11021811463D
libRbt.so/2013.1/901 2013/11/27
 37 40  0  0  0  0  0  0  0  0999 V2000
   20.5987    2.4524   53.3143 C   0  0  1  0  0  0  0  0  0  0  0  0
   19.3241    2.8206   52.4640 C   0  0  1  0  0  0  0  0  0  0  0  0
   18.7045    1.5304   51.8878 C   0  0  0  0  0  0  0  0  0  0  0  0
   19.8100    0.8782   50.9999 C   0  0  1  0  0  0  0  0  0  0  0  0
   21.1308    0.5141   51.8538 C   0  0  1  0  0  0  0  0  0  0  0  0
   22.2462   -0.1195   50.9715 C   0  0  1  0  0  0  0  0  0  0  0  0
   21.6353   -1.4162   50.2989 C   0  0  1  0  0  0  0  0  0  0  0  0
   20.3326   -1.0180   49.5215 C   0  0  2  0  0  0  0  0  0  0  0  0
   22.8483   -1.5577   47.9739 C   0  0  0  0  0  0  0  0  0  0  0  0
   18.3136    3.5289   53.3123 N   0  0  0  0  0  0  0  0  0  0  0  0
   22.6456   -2.0862   49.3716 N   0  0  0  0  0  0  0  0  0  0  0  0
   20.2685    1.6104   54.4261 O   0  0  0  0  0  0  0  0  0  0  0  0
   21.6224    1.7435   52.4913 O   0  0  0  0  0  0  0  0  0  0  0  0
   19.3162   -0.3491   50.3859 O   0  0  0  0  0  0  0  0  0  0  0  0
   22.6301    0.8639   50.0091 O   0  0  0  0  0  0  0  0  0  0  0  0
   19.7642   -2.1570   48.9861 O   0  0  0  0  0  0  0  0  0  0  0  0
   18.7309   -2.7198   49.8121 C   0  0  2  0  0  0  0  0  0  0  0  0
   19.2696   -3.9497   50.5820 C   0  0  1  0  0  0  0  0  0  0  0  0
   19.6261   -5.1247   49.6206 C   0  0  2  0  0  0  0  0  0  0  0  0
   18.3600   -5.5272   48.8080 C   0  0  1  0  0  0  0  0  0  0  0  0
   17.9136   -4.2471   47.9861 C   0  0  1  0  0  0  0  0  0  0  0  0
   16.6620   -4.5103   47.1536 C   0  0  0  0  0  0  0  0  0  0  0  0
   18.6981   -6.6506   47.8881 N   0  0  0  0  0  0  0  0  0  0  0  0
   17.5924   -3.1393   48.9541 O   0  0  0  0  0  0  0  0  0  0  0  0
   20.4111   -3.5106   51.3431 O   0  0  0  0  0  0  0  0  0  0  0  0
   20.0615   -6.2202   50.3982 O   0  0  0  0  0  0  0  0  0  0  0  0
   16.9683   -5.4099   46.1211 O   0  0  0  0  0  0  0  0  0  0  0  0
   20.0977    2.3147   55.6388 C   0  0  1  0  0  0  0  0  0  0  0  0
   19.3149    1.3945   56.6298 C   0  0  1  0  0  0  0  0  0  0  0  0
   19.0919    2.1704   57.9607 C   0  0  2  0  0  0  0  0  0  0  0  0
   20.4548    2.5935   58.5908 C   0  0  1  0  0  0  0  0  0  0  0  0
   21.2569    3.5133   57.5931 C   0  0  0  0  0  0  0  0  0  0  0  0
   21.4872    2.7175   56.2419 C   0  0  2  0  0  0  0  0  0  0  0  0
   20.2148    3.3378   59.8581 N   0  0  0  0  0  0  0  0  0  0  0  0
   22.2439    3.5865   55.3128 N   0  0  0  0  0  0  0  0  0  0  0  0
   18.0359    1.0351   56.0747 O   0  0  0  0  0  0  0  0  0  0  0  0
   18.3871    1.3122   58.8425 O   0  0  0  0  0  0  0  0  0  0  0  0
  1  2  1  0  0  0  0
  1 12  1  1  0  0  0
  1 13  1  0  0  0  0
  2  3  1  0  0  0  0
  2 10  1  1  0  0  0
  4  3  1  1  0  0  0
  4  5  1  0  0  0  0
  4 14  1  0  0  0  0
  5  6  1  0  0  0  0
  5 13  1  6  0  0  0
  6  7  1  0  0  0  0
  6 15  1  6  0  0  0
  7  8  1  0  0  0  0
  7 11  1  6  0  0  0
  8 14  1  0  0  0  0
  8 16  1  1  0  0  0
  9 11  1  0  0  0  0
 17 16  1  6  0  0  0
 17 18  1  0  0  0  0
 17 24  1  0  0  0  0
 18 19  1  0  0  0  0
 18 25  1  6  0  0  0
 19 20  1  0  0  0  0
 19 26  1  1  0  0  0
 20 21  1  0  0  0  0
 20 23  1  6  0  0  0
 21 22  1  1  0  0  0
 21 24  1  0  0  0  0
 22 27  1  0  0  0  0
 28 12  1  6  0  0  0
 28 29  1  0  0  0  0
 28 33  1  0  0  0  0
 29 30  1  0  0  0  0
 29 36  1  6  0  0  0
 30 31  1  0  0  0  0
 30 37  1  1  0  0  0
 31 32  1  0  0  0  0
 31 34  1  1  0  0  0
 32 33  1  0  0  0  0
 33 35  1  6  0  0  0
M  END
>  <CHROM.1>
-96.79867886,-81.05862808,95.56756178,-102.19537411,-68.37124721,162.11961333
19.88279746,-0.57392938,52.11496881,-1.42355738,-0.79173912,-2.15812292

>  <Name>
2oe8_lig

>  <RI>
0

>  <Rbt.Current_Directory>
/home/itssahil/PROJECTS/Mol_Feturizer/New_Systems/rnas/2oe8

>  <Rbt.Executable>
rbdock ($Id: //depot/dev/client3/rdock/2013.1/src/exe/rbdock.cxx#4 $)

>  <Rbt.Library>
libRbt.so (2013.1, Build901 2013/11/27)

>  <Rbt.Parameter_File>
/export/apps/rDock/src/rDock_2013.1_src/data/scripts/dock_solv.prm

>  <Rbt.Receptor>
prm/pocket_docking_4.prm

>  <SCORE>
-18.1581

>  <SCORE.INTER>
-23.2283

>  <SCORE.INTER.CONST>
1

>  <SCORE.INTER.POLAR>
-2.5154

>  <SCORE.INTER.ROT>
6

>  <SCORE.INTER.SOLV>
10.5833

>  <SCORE.INTER.VDW>
-18.2286

>  <SCORE.INTER.norm>
-0.627792

>  <SCORE.INTRA>
5.07024

>  <SCORE.INTRA.DIHEDRAL>
0.858495

>  <SCORE.INTRA.DIHEDRAL.0>
16.4056

>  <SCORE.INTRA.POLAR>
0

>  <SCORE.INTRA.POLAR.0>
0

>  <SCORE.INTRA.REPUL>
0

>  <SCORE.INTRA.REPUL.0>
0

>  <SCORE.INTRA.SOLV>
1.80199

>  <SCORE.INTRA.SOLV.lig_0>
-90.9627

>  <SCORE.INTRA.VDW>
3.74

>  <SCORE.INTRA.VDW.0>
-3.28744

>  <SCORE.INTRA.norm>
0.137033

>  <SCORE.RESTR>
0

>  <SCORE.RESTR.CAVITY>
0

>  <SCORE.RESTR.norm>
0

>  <SCORE.SYSTEM>
0

>  <SCORE.SYSTEM.CONST>
0

>  <SCORE.SYSTEM.DIHEDRAL>
0

>  <SCORE.SYSTEM.SOLV>
0

>  <SCORE.SYSTEM.norm>
0

>  <SCORE.heavy>
37

>  <SCORE.norm>
-0.490759

>  <RMSD>
2.782

$$$$
2oe8_lig
 OpenBabel11021811463D
libRbt.so/2013.1/901 2013/11/27
 37 40  0  0  0  0  0  0  0  0999 V2000
   20.2432    2.8937   53.3241 C   0  0  1  0  0  0  0  0  0  0  0  0
   18.9898    3.1354   52.4000 C   0  0  1  0  0  0  0  0  0  0  0  0
   18.3952    1.7750   51.9799 C   0  0  0  0  0  0  0  0  0  0  0  0
   19.5293    1.0250   51.2135 C   0  0  1  0  0  0  0  0  0  0  0  0
   20.8286    0.7883   52.1418 C   0  0  1  0  0  0  0  0  0  0  0  0
   21.9721    0.0575   51.3788 C   0  0  1  0  0  0  0  0  0  0  0  0
   21.3890   -1.3216   50.8642 C   0  0  1  0  0  0  0  0  0  0  0  0
   20.1053   -1.0411   50.0078 C   0  0  2  0  0  0  0  0  0  0  0  0
   23.7754   -2.3995   50.6653 C   0  0  0  0  0  0  0  0  0  0  0  0
   17.9516    3.9370   53.1224 N   0  0  0  0  0  0  0  0  0  0  0  0
   22.4289   -2.0955   50.0585 N   0  0  0  0  0  0  0  0  0  0  0  0
   19.8886    2.1993   54.5267 O   0  0  0  0  0  0  0  0  0  0  0  0
   21.2940    2.0950   52.6272 O   0  0  0  0  0  0  0  0  0  0  0  0
   19.0610   -0.2765   50.7511 O   0  0  0  0  0  0  0  0  0  0  0  0
   22.3755    0.9120   50.3074 O   0  0  0  0  0  0  0  0  0  0  0  0
   19.5598   -2.2457   49.6098 O   0  0  0  0  0  0  0  0  0  0  0  0
   19.6466   -2.4693   48.1923 C   0  0  2  0  0  0  0  0  0  0  0  0
   18.4088   -3.2550   47.6961 C   0  0  1  0  0  0  0  0  0  0  0  0
   18.3706   -4.7023   48.2756 C   0  0  2  0  0  0  0  0  0  0  0  0
   19.6701   -5.4558   47.8649 C   0  0  1  0  0  0  0  0  0  0  0  0
   20.8868   -4.6414   48.4728 C   0  0  1  0  0  0  0  0  0  0  0  0
   22.2303   -5.2753   48.1233 C   0  0  0  0  0  0  0  0  0  0  0  0
   19.6358   -6.8400   48.4176 N   0  0  0  0  0  0  0  0  0  0  0  0
   20.8748   -3.2512   47.8943 O   0  0  0  0  0  0  0  0  0  0  0  0
   17.2433   -2.4944   48.0677 O   0  0  0  0  0  0  0  0  0  0  0  0
   17.2450   -5.3668   47.7408 O   0  0  0  0  0  0  0  0  0  0  0  0
   23.2593   -4.5786   48.7750 O   0  0  0  0  0  0  0  0  0  0  0  0
   19.2901    3.0267   55.5029 C   0  0  1  0  0  0  0  0  0  0  0  0
   18.7140    2.1108   56.6303 C   0  0  1  0  0  0  0  0  0  0  0  0
   18.0233    3.0084   57.6980 C   0  0  2  0  0  0  0  0  0  0  0  0
   19.0367    4.0270   58.3055 C   0  0  1  0  0  0  0  0  0  0  0  0
   19.6317    4.9484   57.1733 C   0  0  0  0  0  0  0  0  0  0  0  0
   20.3394    4.0312   56.0916 C   0  0  2  0  0  0  0  0  0  0  0  0
   18.3515    4.8765   59.3187 N   0  0  0  0  0  0  0  0  0  0  0  0
   20.8984    4.9041   55.0348 N   0  0  0  0  0  0  0  0  0  0  0  0
   17.7443    1.1966   56.0855 O   0  0  0  0  0  0  0  0  0  0  0  0
   17.5166    2.1547   58.7106 O   0  0  0  0  0  0  0  0  0  0  0  0
  1  2  1  0  0  0  0
  1 12  1  1  0  0  0
  1 13  1  0  0  0  0
  2  3  1  0  0  0  0
  2 10  1  1  0  0  0
  4  3  1  1  0  0  0
  4  5  1  0  0  0  0
  4 14  1  0  0  0  0
  5  6  1  0  0  0  0
  5 13  1  6  0  0  0
  6  7  1  0  0  0  0
  6 15  1  6  0  0  0
  7  8  1  0  0  0  0
  7 11  1  6  0  0  0
  8 14  1  0  0  0  0
  8 16  1  1  0  0  0
  9 11  1  0  0  0  0
 17 16  1  1  0  0  0
 17 18  1  0  0  0  0
 17 24  1  0  0  0  0
 18 19  1  0  0  0  0
 18 25  1  1  0  0  0
 19 20  1  0  0  0  0
 19 26  1  6  0  0  0
 20 21  1  0  0  0  0
 20 23  1  1  0  0  0
 21 22  1  6  0  0  0
 21 24  1  0  0  0  0
 22 27  1  0  0  0  0
 28 12  1  6  0  0  0
 28 29  1  0  0  0  0
 28 33  1  0  0  0  0
 29 30  1  0  0  0  0
 29 36  1  6  0  0  0
 30 31  1  0  0  0  0
 30 37  1  1  0  0  0
 31 32  1  0  0  0  0
 31 34  1  1  0  0  0
 32 33  1  0  0  0  0
 33 35  1  6  0  0  0
M  END
>  <CHROM.1>
-78.50047595,54.91065441,-112.51457210,-145.96872965,-175.23067222,169.40754347
19.86227458,-0.16668613,51.99535636,-1.68010978,-0.27981145,-2.35632606

>  <Name>
2oe8_lig

>  <RI>
0

>  <Rbt.Current_Directory>
/home/itssahil/PROJECTS/Mol_Feturizer/New_Systems/rnas/2oe8

>  <Rbt.Executable>
rbdock ($Id: //depot/dev/client3/rdock/2013.1/src/exe/rbdock.cxx#4 $)

>  <Rbt.Library>
libRbt.so (2013.1, Build901 2013/11/27)

>  <Rbt.Parameter_File>
/export/apps/rDock/src/rDock_2013.1_src/data/scripts/dock_solv.prm

>  <Rbt.Receptor>
prm/pocket_docking_5.prm

>  <SCORE>
-12.9751

>  <SCORE.INTER>
-13.8366

>  <SCORE.INTER.CONST>
1

>  <SCORE.INTER.POLAR>
-1.57293

>  <SCORE.INTER.ROT>
6

>  <SCORE.INTER.SOLV>
11.6686

>  <SCORE.INTER.VDW>
-15.4708

>  <SCORE.INTER.norm>
-0.373961

>  <SCORE.INTRA>
0.86149

>  <SCORE.INTRA.DIHEDRAL>
-2.93393

>  <SCORE.INTRA.DIHEDRAL.0>
16.4056

>  <SCORE.INTRA.POLAR>
0

>  <SCORE.INTRA.POLAR.0>
0

>  <SCORE.INTRA.REPUL>
0

>  <SCORE.INTRA.REPUL.0>
0

>  <SCORE.INTRA.SOLV>
2.88847

>  <SCORE.INTRA.SOLV.lig_0>
-90.9627

>  <SCORE.INTRA.VDW>
0.884222

>  <SCORE.INTRA.VDW.0>
-3.28744

>  <SCORE.INTRA.norm>
0.0232835

>  <SCORE.RESTR>
0

>  <SCORE.RESTR.CAVITY>
0

>  <SCORE.RESTR.norm>
0

>  <SCORE.SYSTEM>
0

>  <SCORE.SYSTEM.CONST>
0

>  <SCORE.SYSTEM.DIHEDRAL>
0

>  <SCORE.SYSTEM.SOLV>
0

>  <SCORE.SYSTEM.norm>
0

>  <SCORE.heavy>
37

>  <SCORE.norm>
-0.350678

>  <RMSD>
2.836

$$$$
2oe8_lig
 OpenBabel11021811463D
libRbt.so/2013.1/901 2013/11/27
 37 40  0  0  0  0  0  0  0  0999 V2000
   20.5926    0.6814   53.3956 C   0  0  1  0  0  0  0  0  0  0  0  0
   20.3455    1.5644   52.1140 C   0  0  1  0  0  0  0  0  0  0  0  0
   19.1971    0.9518   51.2854 C   0  0  0  0  0  0  0  0  0  0  0  0
   19.6605   -0.4883   50.9017 C   0  0  1  0  0  0  0  0  0  0  0  0
   19.9376   -1.3990   52.2055 C   0  0  1  0  0  0  0  0  0  0  0  0
   20.4189   -2.8316   51.8316 C   0  0  1  0  0  0  0  0  0  0  0  0
   19.3004   -3.4812   50.9185 C   0  0  1  0  0  0  0  0  0  0  0  0
   19.0360   -2.5386   49.6931 C   0  0  2  0  0  0  0  0  0  0  0  0
   18.9953   -6.0877   51.0166 C   0  0  0  0  0  0  0  0  0  0  0  0
   19.9932    2.9669   52.5026 N   0  0  0  0  0  0  0  0  0  0  0  0
   19.7046   -4.8794   50.4591 N   0  0  0  0  0  0  0  0  0  0  0  0
   19.4369    0.6415   54.2422 O   0  0  0  0  0  0  0  0  0  0  0  0
   20.9449   -0.7235   53.0354 O   0  0  0  0  0  0  0  0  0  0  0  0
   18.6462   -1.1543   50.0925 O   0  0  0  0  0  0  0  0  0  0  0  0
   21.6658   -2.6912   51.1488 O   0  0  0  0  0  0  0  0  0  0  0  0
   18.0173   -3.0722   48.9285 O   0  0  0  0  0  0  0  0  0  0  0  0
   18.4591   -4.1080   48.0347 C   0  0  2  0  0  0  0  0  0  0  0  0
   19.1088   -3.4880   46.7741 C   0  0  1  0  0  0  0  0  0  0  0  0
   18.0713   -2.7040   45.9134 C   0  0  2  0  0  0  0  0  0  0  0  0
   16.9205   -3.6651   45.4923 C   0  0  1  0  0  0  0  0  0  0  0  0
   16.2522   -4.1969   46.8279 C   0  0  1  0  0  0  0  0  0  0  0  0
   15.1103   -5.1697   46.5474 C   0  0  0  0  0  0  0  0  0  0  0  0
   15.9273   -2.9179   44.6691 N   0  0  0  0  0  0  0  0  0  0  0  0
   17.2927   -4.9344   47.6284 O   0  0  0  0  0  0  0  0  0  0  0  0
   20.1868   -2.6435   47.2210 O   0  0  0  0  0  0  0  0  0  0  0  0
   18.7270   -2.2128   44.7632 O   0  0  0  0  0  0  0  0  0  0  0  0
   15.6245   -6.3387   45.9661 O   0  0  0  0  0  0  0  0  0  0  0  0
   19.7314    0.8249   55.6116 C   0  0  1  0  0  0  0  0  0  0  0  0
   18.4402    1.3449   56.3217 C   0  0  1  0  0  0  0  0  0  0  0  0
   18.7594    1.5816   57.8267 C   0  0  2  0  0  0  0  0  0  0  0  0
   19.2453    0.2632   58.5043 C   0  0  1  0  0  0  0  0  0  0  0  0
   20.5417   -0.2751   57.7872 C   0  0  0  0  0  0  0  0  0  0  0  0
   20.2108   -0.5207   56.2567 C   0  0  2  0  0  0  0  0  0  0  0  0
   19.5490    0.5166   59.9400 N   0  0  0  0  0  0  0  0  0  0  0  0
   21.4317   -1.0294   55.5921 N   0  0  0  0  0  0  0  0  0  0  0  0
   18.0096    2.5855   55.7312 O   0  0  0  0  0  0  0  0  0  0  0  0
   17.5717    2.0454   58.4473 O   0  0  0  0  0  0  0  0  0  0  0  0
  1  2  1  0  0  0  0
  1 12  1  1  0  0  0
  1 13  1  0  0  0  0
  2  3  1  0  0  0  0
  2 10  1  1  0  0  0
  4  3  1  1  0  0  0
  4  5  1  0  0  0  0
  4 14  1  0  0  0  0
  5  6  1  0  0  0  0
  5 13  1  1  0  0  0
  6  7  1  0  0  0  0
  6 15  1  6  0  0  0
  7  8  1  0  0  0  0
  7 11  1  6  0  0  0
  8 14  1  0  0  0  0
  8 16  1  6  0  0  0
  9 11  1  0  0  0  0
 17 16  1  1  0  0  0
 17 18  1  0  0  0  0
 17 24  1  0  0  0  0
 18 19  1  0  0  0  0
 18 25  1  1  0  0  0
 19 20  1  0  0  0  0
 19 26  1  6  0  0  0
 20 21  1  0  0  0  0
 20 23  1  6  0  0  0
 21 22  1  6  0  0  0
 21 24  1  0  0  0  0
 22 27  1  0  0  0  0
 28 12  1  6  0  0  0
 28 29  1  0  0  0  0
 28 33  1  0  0  0  0
 29 30  1  0  0  0  0
 29 36  1  6  0  0  0
 30 31  1  0  0  0  0
 30 37  1  1  0  0  0
 31 32  1  0  0  0  0
 31 34  1  1  0  0  0
 32 33  1  0  0  0  0
 33 35  1  6  0  0  0
M  END
>  <CHROM.1>
-134.82996048,109.31750760,-81.55191909,-79.91294582,66.49275066,156.88160212
18.93446594,-1.57662362,51.46129218,-0.00730984,-1.39651619,-0.46373529

>  <Name>
2oe8_lig

>  <RI>
0

>  <Rbt.Current_Directory>
/home/itssahil/PROJECTS/Mol_Feturizer/New_Systems/rnas/2oe8

>  <Rbt.Executable>
rbdock ($Id: //depot/dev/client3/rdock/2013.1/src/exe/rbdock.cxx#4 $)

>  <Rbt.Library>
libRbt.so (2013.1, Build901 2013/11/27)

>  <Rbt.Parameter_File>
/export/apps/rDock/src/rDock_2013.1_src/data/scripts/dock_solv.prm

>  <Rbt.Receptor>
prm/pocket_docking_7.prm

>  <SCORE>
-31.5619

>  <SCORE.INTER>
-31.642

>  <SCORE.INTER.CONST>
1

>  <SCORE.INTER.POLAR>
-3.55304

>  <SCORE.INTER.ROT>
6

>  <SCORE.INTER.SOLV>
17.8022

>  <SCORE.INTER.VDW>
-22.7853

>  <SCORE.INTER.norm>
-0.855191

>  <SCORE.INTRA>
0.0801342

>  <SCORE.INTRA.DIHEDRAL>
-2.80673

>  <SCORE.INTRA.DIHEDRAL.0>
16.4056

>  <SCORE.INTRA.POLAR>
0

>  <SCORE.INTRA.POLAR.0>
0

>  <SCORE.INTRA.REPUL>
0

>  <SCORE.INTRA.REPUL.0>
0

>  <SCORE.INTRA.SOLV>
1.1293

>  <SCORE.INTRA.SOLV.lig_0>
-90.9627

>  <SCORE.INTRA.VDW>
0.918847

>  <SCORE.INTRA.VDW.0>
-3.28744

>  <SCORE.INTRA.norm>
0.00216579

>  <SCORE.RESTR>
0

>  <SCORE.RESTR.CAVITY>
0

>  <SCORE.RESTR.norm>
0

>  <SCORE.SYSTEM>
0

>  <SCORE.SYSTEM.CONST>
0

>  <SCORE.SYSTEM.DIHEDRAL>
0

>  <SCORE.SYSTEM.SOLV>
0

>  <SCORE.SYSTEM.norm>
0

>  <SCORE.heavy>
37

>  <SCORE.norm>
-0.853025

>  <RMSD>
2.859

$$$$
2oe8_lig
 OpenBabel11021811463D
libRbt.so/2013.1/901 2013/11/27
 37 40  0  0  0  0  0  0  0  0999 V2000
   20.7567   -0.4566   51.7862 C   0  0  1  0  0  0  0  0  0  0  0  0
   19.3703    0.1187   51.3060 C   0  0  1  0  0  0  0  0  0  0  0  0
   18.4070   -1.0499   51.0113 C   0  0  0  0  0  0  0  0  0  0  0  0
   19.0869   -1.8998   49.8926 C   0  0  1  0  0  0  0  0  0  0  0  0
   20.5184   -2.4791   50.3628 C   0  0  1  0  0  0  0  0  0  0  0  0
   21.2122   -3.3124   49.2456 C   0  0  1  0  0  0  0  0  0  0  0  0
   20.2283   -4.4903   48.8564 C   0  0  1  0  0  0  0  0  0  0  0  0
   18.8415   -3.8795   48.4522 C   0  0  2  0  0  0  0  0  0  0  0  0
   20.4511   -6.8046   47.6353 C   0  0  0  0  0  0  0  0  0  0  0  0
   18.7781    1.0065   52.3565 N   0  0  0  0  0  0  0  0  0  0  0  0
   20.8040   -5.3415   47.7279 N   0  0  0  0  0  0  0  0  0  0  0  0
   20.6261   -1.2110   52.9977 O   0  0  0  0  0  0  0  0  0  0  0  0
   21.3686   -1.3468   50.7562 O   0  0  0  0  0  0  0  0  0  0  0  0
   18.2418   -3.0292   49.5223 O   0  0  0  0  0  0  0  0  0  0  0  0
   21.4599   -2.4261   48.1529 O   0  0  0  0  0  0  0  0  0  0  0  0
   17.9632   -4.9078   48.1723 O   0  0  0  0  0  0  0  0  0  0  0  0
   16.6753   -4.4507   47.7258 C   0  0  2  0  0  0  0  0  0  0  0  0
   15.7905   -5.6536   47.3187 C   0  0  1  0  0  0  0  0  0  0  0  0
   16.3537   -6.3889   46.0639 C   0  0  2  0  0  0  0  0  0  0  0  0
   16.4509   -5.3835   44.8786 C   0  0  1  0  0  0  0  0  0  0  0  0
   17.4319   -4.2252   45.3359 C   0  0  1  0  0  0  0  0  0  0  0  0
   17.5990   -3.1588   44.2572 C   0  0  0  0  0  0  0  0  0  0  0  0
   16.9889   -6.0842   43.6777 N   0  0  0  0  0  0  0  0  0  0  0  0
   16.8532   -3.5546   46.5537 O   0  0  0  0  0  0  0  0  0  0  0  0
   15.7042   -6.5262   48.4615 O   0  0  0  0  0  0  0  0  0  0  0  0
   15.4698   -7.4378   45.7281 O   0  0  0  0  0  0  0  0  0  0  0  0
   18.5715   -2.2321   44.6630 O   0  0  0  0  0  0  0  0  0  0  0  0
   21.2071   -0.5825   54.1216 C   0  0  1  0  0  0  0  0  0  0  0  0
   20.2215   -0.7297   55.3252 C   0  0  1  0  0  0  0  0  0  0  0  0
   20.8355   -0.0136   56.5634 C   0  0  2  0  0  0  0  0  0  0  0  0
   22.2202   -0.6311   56.9306 C   0  0  1  0  0  0  0  0  0  0  0  0
   23.2182   -0.4971   55.7178 C   0  0  0  0  0  0  0  0  0  0  0  0
   22.5922   -1.2327   54.4612 C   0  0  2  0  0  0  0  0  0  0  0  0
   22.7887    0.0736   58.1130 N   0  0  0  0  0  0  0  0  0  0  0  0
   23.5369   -1.1054   53.3287 N   0  0  0  0  0  0  0  0  0  0  0  0
   18.9541   -0.1229   55.0111 O   0  0  0  0  0  0  0  0  0  0  0  0
   19.9263   -0.1681   57.6405 O   0  0  0  0  0  0  0  0  0  0  0  0
  1  2  1  0  0  0  0
  1 12  1  1  0  0  0
  1 13  1  0  0  0  0
  2  3  1  0  0  0  0
  2 10  1  1  0  0  0
  4  3  1  1  0  0  0
  4  5  1  0  0  0  0
  4 14  1  0  0  0  0
  5  6  1  0  0  0  0
  5 13  1  6  0  0  0
  6  7  1  0  0  0  0
  6 15  1  6  0  0  0
  7  8  1  0  0  0  0
  7 11  1  6  0  0  0
  8 14  1  0  0  0  0
  8 16  1  1  0  0  0
  9 11  1  0  0  0  0
 17 16  1  6  0  0  0
 17 18  1  0  0  0  0
 17 24  1  0  0  0  0
 18 19  1  0  0  0  0
 18 25  1  1  0  0  0
 19 20  1  0  0  0  0
 19 26  1  6  0  0  0
 20 21  1  0  0  0  0
 20 23  1  6  0  0  0
 21 22  1  6  0  0  0
 21 24  1  0  0  0  0
 22 27  1  0  0  0  0
 28 12  1  6  0  0  0
 28 29  1  0  0  0  0
 28 33  1  0  0  0  0
 29 30  1  0  0  0  0
 29 36  1  6  0  0  0
 30 31  1  0  0  0  0
 30 37  1  1  0  0  0
 31 32  1  0  0  0  0
 31 34  1  1  0  0  0
 32 33  1  0  0  0  0
 33 35  1  6  0  0  0
M  END
>  <CHROM.1>
-110.17645090,150.28354581,-177.11864062,175.20386904,-174.35571817,136.68058703
19.36280569,-2.76649620,50.24030136,-1.18117834,-0.29224904,-1.93030961

>  <Name>
2oe8_lig

>  <RI>
0

>  <Rbt.Current_Directory>
/home/itssahil/PROJECTS/Mol_Feturizer/New_Systems/rnas/2oe8

>  <Rbt.Executable>
rbdock ($Id: //depot/dev/client3/rdock/2013.1/src/exe/rbdock.cxx#4 $)

>  <Rbt.Library>
libRbt.so (2013.1, Build901 2013/11/27)

>  <Rbt.Parameter_File>
/export/apps/rDock/src/rDock_2013.1_src/data/scripts/dock_solv.prm

>  <Rbt.Receptor>
prm/pocket_docking_7.prm

>  <SCORE>
-19.097

>  <SCORE.INTER>
-17.2848

>  <SCORE.INTER.CONST>
1

>  <SCORE.INTER.POLAR>
-1.94747

>  <SCORE.INTER.ROT>
6

>  <SCORE.INTER.SOLV>
14.1413

>  <SCORE.INTER.VDW>
-17.3454

>  <SCORE.INTER.norm>
-0.467157

>  <SCORE.INTRA>
-1.81218

>  <SCORE.INTRA.DIHEDRAL>
-2.89145

>  <SCORE.INTRA.DIHEDRAL.0>
16.4056

>  <SCORE.INTRA.POLAR>
0

>  <SCORE.INTRA.POLAR.0>
0

>  <SCORE.INTRA.REPUL>
0

>  <SCORE.INTRA.REPUL.0>
0

>  <SCORE.INTRA.SOLV>
-0.487389

>  <SCORE.INTRA.SOLV.lig_0>
-90.9627

>  <SCORE.INTRA.VDW>
-0.122767

>  <SCORE.INTRA.VDW.0>
-3.28744

>  <SCORE.INTRA.norm>
-0.048978

>  <SCORE.RESTR>
0

>  <SCORE.RESTR.CAVITY>
0

>  <SCORE.RESTR.norm>
0

>  <SCORE.SYSTEM>
0

>  <SCORE.SYSTEM.CONST>
0

>  <SCORE.SYSTEM.DIHEDRAL>
0

>  <SCORE.SYSTEM.SOLV>
0

>  <SCORE.SYSTEM.norm>
0

>  <SCORE.heavy>
37

>  <SCORE.norm>
-0.516135

>  <RMSD>
2.861

$$$$
2oe8_lig
 OpenBabel11021811463D
libRbt.so/2013.1/901 2013/11/27
 37 40  0  0  0  0  0  0  0  0999 V2000
   20.2388    2.0137   53.1377 C   0  0  1  0  0  0  0  0  0  0  0  0
   18.8971    2.3955   52.4046 C   0  0  1  0  0  0  0  0  0  0  0  0
   18.0624    1.1192   52.1699 C   0  0  0  0  0  0  0  0  0  0  0  0
   18.9443    0.1814   51.2875 C   0  0  1  0  0  0  0  0  0  0  0  0
   20.3323   -0.2020   52.0173 C   0  0  1  0  0  0  0  0  0  0  0  0
   21.2266   -1.1221   51.1356 C   0  0  1  0  0  0  0  0  0  0  0  0
   20.3852   -2.4225   50.8072 C   0  0  1  0  0  0  0  0  0  0  0  0
   19.0302   -1.9951   50.1430 C   0  0  2  0  0  0  0  0  0  0  0  0
   22.3878   -4.0793   50.4310 C   0  0  0  0  0  0  0  0  0  0  0  0
   18.1087    3.3686   53.2254 N   0  0  0  0  0  0  0  0  0  0  0  0
   21.1655   -3.3720   49.9021 N   0  0  0  0  0  0  0  0  0  0  0  0
   19.9923    1.4291   54.4228 O   0  0  0  0  0  0  0  0  0  0  0  0
   21.0439    1.0427   52.3398 O   0  0  0  0  0  0  0  0  0  0  0  0
   18.2342   -1.0568   50.9878 O   0  0  0  0  0  0  0  0  0  0  0  0
   21.5638   -0.3807   49.9620 O   0  0  0  0  0  0  0  0  0  0  0  0
   18.2683   -3.1236   49.9125 O   0  0  0  0  0  0  0  0  0  0  0  0
   18.8720   -4.0377   48.9815 C   0  0  2  0  0  0  0  0  0  0  0  0
   18.6205   -3.5679   47.5283 C   0  0  1  0  0  0  0  0  0  0  0  0
   17.1086   -3.6344   47.1514 C   0  0  2  0  0  0  0  0  0  0  0  0
   16.5980   -5.0951   47.3269 C   0  0  1  0  0  0  0  0  0  0  0  0
   16.8125   -5.4785   48.8502 C   0  0  1  0  0  0  0  0  0  0  0  0
   16.3617   -6.9054   49.1492 C   0  0  0  0  0  0  0  0  0  0  0  0
   15.1528   -5.1612   46.9669 N   0  0  0  0  0  0  0  0  0  0  0  0
   18.2815   -5.3885   49.1688 O   0  0  0  0  0  0  0  0  0  0  0  0
   19.1463   -2.2318   47.4145 O   0  0  0  0  0  0  0  0  0  0  0  0
   16.9678   -3.2390   45.8030 O   0  0  0  0  0  0  0  0  0  0  0  0
   15.0446   -6.8876   49.6329 O   0  0  0  0  0  0  0  0  0  0  0  0
   21.1464    1.3323   55.2318 C   0  0  1  0  0  0  0  0  0  0  0  0
   21.2347    2.6219   56.1098 C   0  0  1  0  0  0  0  0  0  0  0  0
   22.5201    2.5430   56.9842 C   0  0  2  0  0  0  0  0  0  0  0  0
   22.4927    1.2783   57.8971 C   0  0  1  0  0  0  0  0  0  0  0  0
   22.3923   -0.0276   57.0200 C   0  0  0  0  0  0  0  0  0  0  0  0
   21.0793    0.0538   56.1360 C   0  0  2  0  0  0  0  0  0  0  0  0
   23.7336    1.2226   58.7185 N   0  0  0  0  0  0  0  0  0  0  0  0
   20.9909   -1.1773   55.3189 N   0  0  0  0  0  0  0  0  0  0  0  0
   21.3052    3.7923   55.2741 O   0  0  0  0  0  0  0  0  0  0  0  0
   22.5720    3.7194   57.7743 O   0  0  0  0  0  0  0  0  0  0  0  0
  1  2  1  0  0  0  0
  1 12  1  1  0  0  0
  1 13  1  0  0  0  0
  2  3  1  0  0  0  0
  2 10  1  1  0  0  0
  4  3  1  1  0  0  0
  4  5  1  0  0  0  0
  4 14  1  0  0  0  0
  5  6  1  0  0  0  0
  5 13  1  6  0  0  0
  6  7  1  0  0  0  0
  6 15  1  6  0  0  0
  7  8  1  0  0  0  0
  7 11  1  6  0  0  0
  8 14  1  0  0  0  0
  8 16  1  1  0  0  0
  9 11  1  0  0  0  0
 17 16  1  1  0  0  0
 17 18  1  0  0  0  0
 17 24  1  0  0  0  0
 18 19  1  0  0  0  0
 18 25  1  1  0  0  0
 19 20  1  0  0  0  0
 19 26  1  6  0  0  0
 20 21  1  0  0  0  0
 20 23  1  1  0  0  0
 21 22  1  6  0  0  0
 21 24  1  0  0  0  0
 22 27  1  0  0  0  0
 28 12  1  1  0  0  0
 28 29  1  0  0  0  0
 28 33  1  0  0  0  0
 29 30  1  0  0  0  0
 29 36  1  6  0  0  0
 30 31  1  0  0  0  0
 30 37  1  1  0  0  0
 31 32  1  0  0  0  0
 31 34  1  6  0  0  0
 32 33  1  0  0  0  0
 33 35  1  6  0  0  0
M  END
>  <CHROM.1>
-167.28142013,68.30648704,-63.29007580,-80.71619044,-95.01461592,92.14825339
19.61866866,-1.16084014,51.82240412,0.76985226,-1.00046157,0.16513960

>  <Name>
2oe8_lig

>  <RI>
0

>  <Rbt.Current_Directory>
/home/itssahil/PROJECTS/Mol_Feturizer/New_Systems/rnas/2oe8

>  <Rbt.Executable>
rbdock ($Id: //depot/dev/client3/rdock/2013.1/src/exe/rbdock.cxx#4 $)

>  <Rbt.Library>
libRbt.so (2013.1, Build901 2013/11/27)

>  <Rbt.Parameter_File>
/export/apps/rDock/src/rDock_2013.1_src/data/scripts/dock_solv.prm

>  <Rbt.Receptor>
prm/pocket_docking_4.prm

>  <SCORE>
-15.2576

>  <SCORE.INTER>
-14.9316

>  <SCORE.INTER.CONST>
1

>  <SCORE.INTER.POLAR>
-0.880302

>  <SCORE.INTER.ROT>
6

>  <SCORE.INTER.SOLV>
24.1675

>  <SCORE.INTER.VDW>
-22.6759

>  <SCORE.INTER.norm>
-0.403556

>  <SCORE.INTRA>
-0.326061

>  <SCORE.INTRA.DIHEDRAL>
-6.21573

>  <SCORE.INTRA.DIHEDRAL.0>
16.4056

>  <SCORE.INTRA.POLAR>
0

>  <SCORE.INTRA.POLAR.0>
0

>  <SCORE.INTRA.REPUL>
0

>  <SCORE.INTRA.REPUL.0>
0

>  <SCORE.INTRA.SOLV>
0.596753

>  <SCORE.INTRA.SOLV.lig_0>
-90.9627

>  <SCORE.INTRA.VDW>
2.48343

>  <SCORE.INTRA.VDW.0>
-3.28744

>  <SCORE.INTRA.norm>
-0.00881245

>  <SCORE.RESTR>
0

>  <SCORE.RESTR.CAVITY>
0

>  <SCORE.RESTR.norm>
0

>  <SCORE.SYSTEM>
0

>  <SCORE.SYSTEM.CONST>
0

>  <SCORE.SYSTEM.DIHEDRAL>
0

>  <SCORE.SYSTEM.SOLV>
0

>  <SCORE.SYSTEM.norm>
0

>  <SCORE.heavy>
37

>  <SCORE.norm>
-0.412369

>  <RMSD>
2.886

$$$$
2oe8_lig
 OpenBabel11021811463D
libRbt.so/2013.1/901 2013/11/27
 37 40  0  0  0  0  0  0  0  0999 V2000
   20.8093    0.1014   53.0098 C   0  0  1  0  0  0  0  0  0  0  0  0
   20.7297    0.9531   51.6863 C   0  0  1  0  0  0  0  0  0  0  0  0
   19.5287    0.4758   50.8434 C   0  0  0  0  0  0  0  0  0  0  0  0
   19.7891   -1.0316   50.5336 C   0  0  1  0  0  0  0  0  0  0  0  0
   19.8937   -1.9139   51.8814 C   0  0  1  0  0  0  0  0  0  0  0  0
   20.1725   -3.4160   51.5816 C   0  0  1  0  0  0  0  0  0  0  0  0
   18.9981   -3.9379   50.6568 C   0  0  1  0  0  0  0  0  0  0  0  0
   18.9085   -3.0223   49.3865 C   0  0  2  0  0  0  0  0  0  0  0  0
   19.1491   -6.4734   51.3238 C   0  0  0  0  0  0  0  0  0  0  0  0
   20.5736    2.4075   52.0064 N   0  0  0  0  0  0  0  0  0  0  0  0
   19.2082   -5.3987   50.2677 N   0  0  0  0  0  0  0  0  0  0  0  0
   19.6363    0.2657   53.8167 O   0  0  0  0  0  0  0  0  0  0  0  0
   20.9643   -1.3541   52.7182 O   0  0  0  0  0  0  0  0  0  0  0  0
   18.7124   -1.5801   49.7168 O   0  0  0  0  0  0  0  0  0  0  0  0
   21.4456   -3.4867   50.9374 O   0  0  0  0  0  0  0  0  0  0  0  0
   17.8454   -3.4374   48.6089 O   0  0  0  0  0  0  0  0  0  0  0  0
   17.9358   -3.0018   47.2418 C   0  0  2  0  0  0  0  0  0  0  0  0
   17.0958   -3.9257   46.3273 C   0  0  1  0  0  0  0  0  0  0  0  0
   17.6785   -5.3712   46.2718 C   0  0  2  0  0  0  0  0  0  0  0  0
   19.1465   -5.3150   45.7552 C   0  0  1  0  0  0  0  0  0  0  0  0
   19.9620   -4.4217   46.7800 C   0  0  1  0  0  0  0  0  0  0  0  0
   21.4252   -4.2753   46.3721 C   0  0  0  0  0  0  0  0  0  0  0  0
   19.7058   -6.6959   45.7009 N   0  0  0  0  0  0  0  0  0  0  0  0
   19.3565   -3.0433   46.8076 O   0  0  0  0  0  0  0  0  0  0  0  0
   15.7450   -3.9077   46.8275 O   0  0  0  0  0  0  0  0  0  0  0  0
   16.8897   -6.1358   45.3843 O   0  0  0  0  0  0  0  0  0  0  0  0
   22.0576   -5.5259   46.4435 O   0  0  0  0  0  0  0  0  0  0  0  0
   19.5783    1.5089   54.4851 C   0  0  1  0  0  0  0  0  0  0  0  0
   18.2222    2.1945   54.1210 C   0  0  1  0  0  0  0  0  0  0  0  0
   18.1587    3.5806   54.8263 C   0  0  2  0  0  0  0  0  0  0  0  0
   18.2758    3.4211   56.3737 C   0  0  1  0  0  0  0  0  0  0  0  0
   19.6365    2.7199   56.7501 C   0  0  0  0  0  0  0  0  0  0  0  0
   19.6944    1.3065   56.0351 C   0  0  2  0  0  0  0  0  0  0  0  0
   18.2180    4.7594   57.0243 N   0  0  0  0  0  0  0  0  0  0  0  0
   20.9728    0.6537   56.3967 N   0  0  0  0  0  0  0  0  0  0  0  0
   18.1249    2.3861   52.6972 O   0  0  0  0  0  0  0  0  0  0  0  0
   16.9180    4.1768   54.4854 O   0  0  0  0  0  0  0  0  0  0  0  0
  1  2  1  0  0  0  0
  1 12  1  6  0  0  0
  1 13  1  0  0  0  0
  2  3  1  0  0  0  0
  2 10  1  1  0  0  0
  4  3  1  1  0  0  0
  4  5  1  0  0  0  0
  4 14  1  0  0  0  0
  5  6  1  0  0  0  0
  5 13  1  1  0  0  0
  6  7  1  0  0  0  0
  6 15  1  6  0  0  0
  7  8  1  0  0  0  0
  7 11  1  6  0  0  0
  8 14  1  0  0  0  0
  8 16  1  6  0  0  0
  9 11  1  0  0  0  0
 17 16  1  1  0  0  0
 17 18  1  0  0  0  0
 17 24  1  0  0  0  0
 18 19  1  0  0  0  0
 18 25  1  1  0  0  0
 19 20  1  0  0  0  0
 19 26  1  6  0  0  0
 20 21  1  0  0  0  0
 20 23  1  1  0  0  0
 21 22  1  6  0  0  0
 21 24  1  0  0  0  0
 22 27  1  0  0  0  0
 28 12  1  6  0  0  0
 28 29  1  0  0  0  0
 28 33  1  0  0  0  0
 29 30  1  0  0  0  0
 29 36  1  6  0  0  0
 30 31  1  0  0  0  0
 30 37  1  1  0  0  0
 31 32  1  0  0  0  0
 31 34  1  1  0  0  0
 32 33  1  0  0  0  0
 33 35  1  6  0  0  0
M  END
>  <CHROM.1>
-74.43809541,66.24113577,-159.76247268,156.96311583,-65.53072236,125.42058775
19.20961580,-1.54215474,50.82169998,-1.55286586,0.68730425,-2.32620262

>  <Name>
2oe8_lig

>  <RI>
0

>  <Rbt.Current_Directory>
/home/itssahil/PROJECTS/Mol_Feturizer/New_Systems/rnas/2oe8

>  <Rbt.Executable>
rbdock ($Id: //depot/dev/client3/rdock/2013.1/src/exe/rbdock.cxx#4 $)

>  <Rbt.Library>
libRbt.so (2013.1, Build901 2013/11/27)

>  <Rbt.Parameter_File>
/export/apps/rDock/src/rDock_2013.1_src/data/scripts/dock_solv.prm

>  <Rbt.Receptor>
prm/pocket_docking_8.prm

>  <SCORE>
-17.4201

>  <SCORE.INTER>
-17.8162

>  <SCORE.INTER.CONST>
1

>  <SCORE.INTER.POLAR>
-1.54068

>  <SCORE.INTER.ROT>
6

>  <SCORE.INTER.SOLV>
13.297

>  <SCORE.INTER.VDW>
-18.7742

>  <SCORE.INTER.norm>
-0.48152

>  <SCORE.INTRA>
0.396095

>  <SCORE.INTRA.DIHEDRAL>
-4.0338

>  <SCORE.INTRA.DIHEDRAL.0>
16.4056

>  <SCORE.INTRA.POLAR>
0

>  <SCORE.INTRA.POLAR.0>
0

>  <SCORE.INTRA.REPUL>
0

>  <SCORE.INTRA.REPUL.0>
0

>  <SCORE.INTRA.SOLV>
2.06777

>  <SCORE.INTRA.SOLV.lig_0>
-90.9627

>  <SCORE.INTRA.VDW>
1.37911

>  <SCORE.INTRA.VDW.0>
-3.28744

>  <SCORE.INTRA.norm>
0.0107053

>  <SCORE.RESTR>
0

>  <SCORE.RESTR.CAVITY>
0

>  <SCORE.RESTR.norm>
0

>  <SCORE.SYSTEM>
0

>  <SCORE.SYSTEM.CONST>
0

>  <SCORE.SYSTEM.DIHEDRAL>
0

>  <SCORE.SYSTEM.SOLV>
0

>  <SCORE.SYSTEM.norm>
0

>  <SCORE.heavy>
37

>  <SCORE.norm>
-0.470815

>  <RMSD>
2.907

$$$$
2oe8_lig
 OpenBabel11021811463D
libRbt.so/2013.1/901 2013/11/27
 37 40  0  0  0  0  0  0  0  0999 V2000
   20.5326    2.5219   54.0196 C   0  0  1  0  0  0  0  0  0  0  0  0
   19.0032    2.1496   53.9452 C   0  0  1  0  0  0  0  0  0  0  0  0
   18.8560    0.6854   53.4815 C   0  0  0  0  0  0  0  0  0  0  0  0
   19.5283    0.6070   52.0752 C   0  0  1  0  0  0  0  0  0  0  0  0
   21.0915    1.0059   52.1321 C   0  0  1  0  0  0  0  0  0  0  0  0
   21.7652    0.9488   50.7297 C   0  0  1  0  0  0  0  0  0  0  0  0
   21.5796   -0.5234   50.1773 C   0  0  1  0  0  0  0  0  0  0  0  0
   20.0519   -0.8786   50.1849 C   0  0  2  0  0  0  0  0  0  0  0  0
   22.6127   -2.0219   48.2843 C   0  0  0  0  0  0  0  0  0  0  0  0
   18.3553    2.3211   55.2843 N   0  0  0  0  0  0  0  0  0  0  0  0
   22.1704   -0.6673   48.7775 N   0  0  0  0  0  0  0  0  0  0  0  0
   21.2305    1.7068   54.9697 O   0  0  0  0  0  0  0  0  0  0  0  0
   21.2030    2.3583   52.6962 O   0  0  0  0  0  0  0  0  0  0  0  0
   19.4259   -0.7431   51.5330 O   0  0  0  0  0  0  0  0  0  0  0  0
   21.1159    1.9234   49.9116 O   0  0  0  0  0  0  0  0  0  0  0  0
   19.8930   -2.1837   49.7623 O   0  0  0  0  0  0  0  0  0  0  0  0
   18.5712   -2.6999   49.9931 C   0  0  2  0  0  0  0  0  0  0  0  0
   18.6464   -4.0526   50.7414 C   0  0  1  0  0  0  0  0  0  0  0  0
   19.3062   -5.1627   49.8671 C   0  0  2  0  0  0  0  0  0  0  0  0
   18.4905   -5.3348   48.5517 C   0  0  1  0  0  0  0  0  0  0  0  0
   18.5240   -3.9381   47.8024 C   0  0  1  0  0  0  0  0  0  0  0  0
   17.7387   -3.9724   46.4944 C   0  0  0  0  0  0  0  0  0  0  0  0
   19.1192   -6.3957   47.7141 N   0  0  0  0  0  0  0  0  0  0  0  0
   17.8887   -2.8992   48.6882 O   0  0  0  0  0  0  0  0  0  0  0  0
   19.3744   -3.8248   51.9633 O   0  0  0  0  0  0  0  0  0  0  0  0
   19.2937   -6.3713   50.5973 O   0  0  0  0  0  0  0  0  0  0  0  0
   17.7691   -2.7026   45.8978 O   0  0  0  0  0  0  0  0  0  0  0  0
   20.8657    1.9616   56.3105 C   0  0  1  0  0  0  0  0  0  0  0  0
   21.2613    0.7163   57.1674 C   0  0  1  0  0  0  0  0  0  0  0  0
   20.8360    0.9706   58.6430 C   0  0  2  0  0  0  0  0  0  0  0  0
   21.5308    2.2480   59.2079 C   0  0  1  0  0  0  0  0  0  0  0  0
   21.1463    3.5081   58.3425 C   0  0  0  0  0  0  0  0  0  0  0  0
   21.5866    3.2477   56.8423 C   0  0  2  0  0  0  0  0  0  0  0  0
   21.1042    2.4726   60.6169 N   0  0  0  0  0  0  0  0  0  0  0  0
   21.2255    4.4367   56.0379 N   0  0  0  0  0  0  0  0  0  0  0  0
   20.5893   -0.4603   56.6802 O   0  0  0  0  0  0  0  0  0  0  0  0
   21.2120   -0.1692   59.3984 O   0  0  0  0  0  0  0  0  0  0  0  0
  1  2  1  0  0  0  0
  1 12  1  1  0  0  0
  1 13  1  0  0  0  0
  2  3  1  0  0  0  0
  2 10  1  1  0  0  0
  4  3  1  1  0  0  0
  4  5  1  0  0  0  0
  4 14  1  0  0  0  0
  5  6  1  0  0  0  0
  5 13  1  6  0  0  0
  6  7  1  0  0  0  0
  6 15  1  6  0  0  0
  7  8  1  0  0  0  0
  7 11  1  6  0  0  0
  8 14  1  0  0  0  0
  8 16  1  1  0  0  0
  9 11  1  0  0  0  0
 17 16  1  6  0  0  0
 17 18  1  0  0  0  0
 17 24  1  0  0  0  0
 18 19  1  0  0  0  0
 18 25  1  1  0  0  0
 19 20  1  0  0  0  0
 19 26  1  1  0  0  0
 20 21  1  0  0  0  0
 20 23  1  6  0  0  0
 21 22  1  6  0  0  0
 21 24  1  0  0  0  0
 22 27  1  0  0  0  0
 28 12  1  6  0  0  0
 28 29  1  0  0  0  0
 28 33  1  0  0  0  0
 29 30  1  0  0  0  0
 29 36  1  6  0  0  0
 30 31  1  0  0  0  0
 30 37  1  1  0  0  0
 31 32  1  0  0  0  0
 31 34  1  1  0  0  0
 32 33  1  0  0  0  0
 33 35  1  6  0  0  0
M  END
>  <CHROM.1>
-68.54537523,155.34704306,167.84408233,-128.41386868,178.20413912,159.46017739
20.11529139,-0.55612757,52.54085589,-0.90755726,-1.28934521,-1.50830759

>  <Name>
2oe8_lig

>  <RI>
0

>  <Rbt.Current_Directory>
/home/itssahil/PROJECTS/Mol_Feturizer/New_Systems/rnas/2oe8

>  <Rbt.Executable>
rbdock ($Id: //depot/dev/client3/rdock/2013.1/src/exe/rbdock.cxx#4 $)

>  <Rbt.Library>
libRbt.so (2013.1, Build901 2013/11/27)

>  <Rbt.Parameter_File>
/export/apps/rDock/src/rDock_2013.1_src/data/scripts/dock_solv.prm

>  <Rbt.Receptor>
prm/pocket_docking_4.prm

>  <SCORE>
-14.656

>  <SCORE.INTER>
-13.5679

>  <SCORE.INTER.CONST>
1

>  <SCORE.INTER.POLAR>
-0.910603

>  <SCORE.INTER.ROT>
6

>  <SCORE.INTER.SOLV>
15.0841

>  <SCORE.INTER.VDW>
-18.6379

>  <SCORE.INTER.norm>
-0.366699

>  <SCORE.INTRA>
-1.08811

>  <SCORE.INTRA.DIHEDRAL>
-6.09487

>  <SCORE.INTRA.DIHEDRAL.0>
16.4056

>  <SCORE.INTRA.POLAR>
0

>  <SCORE.INTRA.POLAR.0>
0

>  <SCORE.INTRA.REPUL>
0

>  <SCORE.INTRA.REPUL.0>
0

>  <SCORE.INTRA.SOLV>
1.22537

>  <SCORE.INTRA.SOLV.lig_0>
-90.9627

>  <SCORE.INTRA.VDW>
1.34664

>  <SCORE.INTRA.VDW.0>
-3.28744

>  <SCORE.INTRA.norm>
-0.0294084

>  <SCORE.RESTR>
0

>  <SCORE.RESTR.CAVITY>
0

>  <SCORE.RESTR.norm>
0

>  <SCORE.SYSTEM>
0

>  <SCORE.SYSTEM.CONST>
0

>  <SCORE.SYSTEM.DIHEDRAL>
0

>  <SCORE.SYSTEM.SOLV>
0

>  <SCORE.SYSTEM.norm>
0

>  <SCORE.heavy>
37

>  <SCORE.norm>
-0.396108

>  <RMSD>
2.911

$$$$
2oe8_lig
 OpenBabel11021811463D
libRbt.so/2013.1/901 2013/11/27
 37 40  0  0  0  0  0  0  0  0999 V2000
   19.8726    2.9898   53.3584 C   0  0  1  0  0  0  0  0  0  0  0  0
   18.3815    2.6935   52.9431 C   0  0  1  0  0  0  0  0  0  0  0  0
   18.2250    1.1886   52.6410 C   0  0  0  0  0  0  0  0  0  0  0  0
   19.2123    0.8765   51.4731 C   0  0  1  0  0  0  0  0  0  0  0  0
   20.7425    1.1949   51.8770 C   0  0  1  0  0  0  0  0  0  0  0  0
   21.7320    0.9043   50.7107 C   0  0  1  0  0  0  0  0  0  0  0  0
   21.5594   -0.6190   50.3147 C   0  0  1  0  0  0  0  0  0  0  0  0
   20.0515   -0.8869   49.9763 C   0  0  2  0  0  0  0  0  0  0  0  0
   22.9296   -2.4140   48.9742 C   0  0  0  0  0  0  0  0  0  0  0  0
   17.4425    3.0868   54.0412 N   0  0  0  0  0  0  0  0  0  0  0  0
   22.4606   -0.9905   49.1403 N   0  0  0  0  0  0  0  0  0  0  0  0
   20.2419    2.2806   54.5478 O   0  0  0  0  0  0  0  0  0  0  0  0
   20.8302    2.6053   52.2801 O   0  0  0  0  0  0  0  0  0  0  0  0
   19.1282   -0.5291   51.0931 O   0  0  0  0  0  0  0  0  0  0  0  0
   21.3911    1.7872   49.6406 O   0  0  0  0  0  0  0  0  0  0  0  0
   19.8875   -2.2281   49.6910 O   0  0  0  0  0  0  0  0  0  0  0  0
   18.5515   -2.7019   49.9308 C   0  0  2  0  0  0  0  0  0  0  0  0
   18.5798   -3.9413   50.8574 C   0  0  1  0  0  0  0  0  0  0  0  0
   19.2647   -5.1626   50.1708 C   0  0  2  0  0  0  0  0  0  0  0  0
   18.5045   -5.5071   48.8560 C   0  0  1  0  0  0  0  0  0  0  0  0
   18.5854   -4.2248   47.9273 C   0  0  1  0  0  0  0  0  0  0  0  0
   17.8568   -4.4319   46.6025 C   0  0  0  0  0  0  0  0  0  0  0  0
   19.1573   -6.6746   48.1977 N   0  0  0  0  0  0  0  0  0  0  0  0
   17.9237   -3.0726   48.6359 O   0  0  0  0  0  0  0  0  0  0  0  0
   19.2570   -3.5538   52.0682 O   0  0  0  0  0  0  0  0  0  0  0  0
   19.2077   -6.2613   51.0562 O   0  0  0  0  0  0  0  0  0  0  0  0
   18.0121   -3.2910   45.8005 O   0  0  0  0  0  0  0  0  0  0  0  0
   19.7750    2.8856   55.7360 C   0  0  1  0  0  0  0  0  0  0  0  0
   19.2680    1.7568   56.6901 C   0  0  1  0  0  0  0  0  0  0  0  0
   18.7210    2.4121   57.9918 C   0  0  2  0  0  0  0  0  0  0  0  0
   19.8310    3.2488   58.6998 C   0  0  1  0  0  0  0  0  0  0  0  0
   20.3568    4.3836   57.7403 C   0  0  0  0  0  0  0  0  0  0  0  0
   20.9184    3.7119   56.4191 C   0  0  2  0  0  0  0  0  0  0  0  0
   19.2824    3.8691   59.9375 N   0  0  0  0  0  0  0  0  0  0  0  0
   21.4132    4.7836   55.5259 N   0  0  0  0  0  0  0  0  0  0  0  0
   18.2119    1.0069   56.0612 O   0  0  0  0  0  0  0  0  0  0  0  0
   18.2749    1.3676   58.8409 O   0  0  0  0  0  0  0  0  0  0  0  0
  1  2  1  0  0  0  0
  1 12  1  1  0  0  0
  1 13  1  0  0  0  0
  2  3  1  0  0  0  0
  2 10  1  1  0  0  0
  4  3  1  1  0  0  0
  4  5  1  0  0  0  0
  4 14  1  0  0  0  0
  5  6  1  0  0  0  0
  5 13  1  6  0  0  0
  6  7  1  0  0  0  0
  6 15  1  6  0  0  0
  7  8  1  0  0  0  0
  7 11  1  6  0  0  0
  8 14  1  0  0  0  0
  8 16  1  1  0  0  0
  9 11  1  0  0  0  0
 17 16  1  6  0  0  0
 17 18  1  0  0  0  0
 17 24  1  0  0  0  0
 18 19  1  0  0  0  0
 18 25  1  1  0  0  0
 19 20  1  0  0  0  0
 19 26  1  1  0  0  0
 20 21  1  0  0  0  0
 20 23  1  6  0  0  0
 21 22  1  6  0  0  0
 21 24  1  0  0  0  0
 22 27  1  0  0  0  0
 28 12  1  6  0  0  0
 28 29  1  0  0  0  0
 28 33  1  0  0  0  0
 29 30  1  0  0  0  0
 29 36  1  6  0  0  0
 30 31  1  0  0  0  0
 30 37  1  1  0  0  0
 31 32  1  0  0  0  0
 31 34  1  1  0  0  0
 32 33  1  0  0  0  0
 33 35  1  6  0  0  0
M  END
>  <CHROM.1>
-79.26053778,153.20027508,154.69128661,-126.68907415,-177.38408325,138.87304598
19.58925216,-0.24072345,52.29916837,-1.49518858,-1.05861549,-2.21889288

>  <Name>
2oe8_lig

>  <RI>
0

>  <Rbt.Current_Directory>
/home/itssahil/PROJECTS/Mol_Feturizer/New_Systems/rnas/2oe8

>  <Rbt.Executable>
rbdock ($Id: //depot/dev/client3/rdock/2013.1/src/exe/rbdock.cxx#4 $)

>  <Rbt.Library>
libRbt.so (2013.1, Build901 2013/11/27)

>  <Rbt.Parameter_File>
/export/apps/rDock/src/rDock_2013.1_src/data/scripts/dock_solv.prm

>  <Rbt.Receptor>
prm/pocket_docking_8.prm

>  <SCORE>
-17.2854

>  <SCORE.INTER>
-19.0349

>  <SCORE.INTER.CONST>
1

>  <SCORE.INTER.POLAR>
-1.58267

>  <SCORE.INTER.ROT>
6

>  <SCORE.INTER.SOLV>
13.6549

>  <SCORE.INTER.VDW>
-19.566

>  <SCORE.INTER.norm>
-0.514457

>  <SCORE.INTRA>
1.74947

>  <SCORE.INTRA.DIHEDRAL>
1.10921

>  <SCORE.INTRA.DIHEDRAL.0>
16.4056

>  <SCORE.INTRA.POLAR>
0

>  <SCORE.INTRA.POLAR.0>
0

>  <SCORE.INTRA.REPUL>
0

>  <SCORE.INTRA.REPUL.0>
0

>  <SCORE.INTRA.SOLV>
0.100111

>  <SCORE.INTRA.SOLV.lig_0>
-90.9627

>  <SCORE.INTRA.VDW>
1.14481

>  <SCORE.INTRA.VDW.0>
-3.28744

>  <SCORE.INTRA.norm>
0.047283

>  <SCORE.RESTR>
0

>  <SCORE.RESTR.CAVITY>
0

>  <SCORE.RESTR.norm>
0

>  <SCORE.SYSTEM>
0

>  <SCORE.SYSTEM.CONST>
0

>  <SCORE.SYSTEM.DIHEDRAL>
0

>  <SCORE.SYSTEM.SOLV>
0

>  <SCORE.SYSTEM.norm>
0

>  <SCORE.heavy>
37

>  <SCORE.norm>
-0.467174

>  <RMSD>
2.995

$$$$
2oe8_lig
 OpenBabel11021811463D
libRbt.so/2013.1/901 2013/11/27
 37 40  0  0  0  0  0  0  0  0999 V2000
   20.4119    2.7617   53.3470 C   0  0  1  0  0  0  0  0  0  0  0  0
   19.1726    3.0886   52.4301 C   0  0  1  0  0  0  0  0  0  0  0  0
   18.5842    1.7732   51.8787 C   0  0  0  0  0  0  0  0  0  0  0  0
   19.7296    1.0946   51.0641 C   0  0  1  0  0  0  0  0  0  0  0  0
   21.0148    0.7722   51.9862 C   0  0  1  0  0  0  0  0  0  0  0  0
   22.1696    0.1124   51.1769 C   0  0  1  0  0  0  0  0  0  0  0  0
   21.5940   -1.2131   50.5299 C   0  0  1  0  0  0  0  0  0  0  0  0
   20.3234   -0.8537   49.6835 C   0  0  2  0  0  0  0  0  0  0  0  0
   22.7898   -3.4116   49.7338 C   0  0  0  0  0  0  0  0  0  0  0  0
   18.1237    3.8225   53.2071 N   0  0  0  0  0  0  0  0  0  0  0  0
   22.6459   -1.9118   49.6725 N   0  0  0  0  0  0  0  0  0  0  0  0
   20.0392    1.9610   54.4756 O   0  0  0  0  0  0  0  0  0  0  0  0
   21.4729    2.0284   52.5958 O   0  0  0  0  0  0  0  0  0  0  0  0
   19.2681   -0.1586   50.4779 O   0  0  0  0  0  0  0  0  0  0  0  0
   22.5891    1.0605   50.1941 O   0  0  0  0  0  0  0  0  0  0  0  0
   19.7838   -2.0161   49.1692 O   0  0  0  0  0  0  0  0  0  0  0  0
   18.6501   -2.4949   49.9123 C   0  0  2  0  0  0  0  0  0  0  0  0
   19.0956   -3.5579   50.9454 C   0  0  1  0  0  0  0  0  0  0  0  0
   19.6299   -4.8496   50.2541 C   0  0  2  0  0  0  0  0  0  0  0  0
   18.5178   -5.4411   49.3384 C   0  0  1  0  0  0  0  0  0  0  0  0
   18.1702   -4.3320   48.2602 C   0  0  1  0  0  0  0  0  0  0  0  0
   17.0716   -4.7887   47.3045 C   0  0  0  0  0  0  0  0  0  0  0  0
   19.0262   -6.6764   48.6764 N   0  0  0  0  0  0  0  0  0  0  0  0
   17.6714   -3.1037   48.9742 O   0  0  0  0  0  0  0  0  0  0  0  0
   20.0917   -2.9449   51.7862 O   0  0  0  0  0  0  0  0  0  0  0  0
   19.9686   -5.7843   51.2571 O   0  0  0  0  0  0  0  0  0  0  0  0
   16.8695   -3.8074   46.3220 O   0  0  0  0  0  0  0  0  0  0  0  0
   19.6627    2.7180   55.6075 C   0  0  1  0  0  0  0  0  0  0  0  0
   18.9705    1.7575   56.6271 C   0  0  1  0  0  0  0  0  0  0  0  0
   18.5219    2.5851   57.8668 C   0  0  2  0  0  0  0  0  0  0  0  0
   19.7442    3.2835   58.5389 C   0  0  1  0  0  0  0  0  0  0  0  0
   20.4559    4.2466   57.5138 C   0  0  0  0  0  0  0  0  0  0  0  0
   20.9166    3.3990   56.2562 C   0  0  2  0  0  0  0  0  0  0  0  0
   19.2890    4.0722   59.7172 N   0  0  0  0  0  0  0  0  0  0  0  0
   21.5869    4.3098   55.3010 N   0  0  0  0  0  0  0  0  0  0  0  0
   17.8144    1.1418   56.0290 O   0  0  0  0  0  0  0  0  0  0  0  0
   17.9044    1.6901   58.7771 O   0  0  0  0  0  0  0  0  0  0  0  0
  1  2  1  0  0  0  0
  1 12  1  1  0  0  0
  1 13  1  0  0  0  0
  2  3  1  0  0  0  0
  2 10  1  1  0  0  0
  4  3  1  1  0  0  0
  4  5  1  0  0  0  0
  4 14  1  0  0  0  0
  5  6  1  0  0  0  0
  5 13  1  6  0  0  0
  6  7  1  0  0  0  0
  6 15  1  6  0  0  0
  7  8  1  0  0  0  0
  7 11  1  6  0  0  0
  8 14  1  0  0  0  0
  8 16  1  1  0  0  0
  9 11  1  0  0  0  0
 17 16  1  6  0  0  0
 17 18  1  0  0  0  0
 17 24  1  0  0  0  0
 18 19  1  0  0  0  0
 18 25  1  6  0  0  0
 19 20  1  0  0  0  0
 19 26  1  1  0  0  0
 20 21  1  0  0  0  0
 20 23  1  6  0  0  0
 21 22  1  6  0  0  0
 21 24  1  0  0  0  0
 22 27  1  0  0  0  0
 28 12  1  6  0  0  0
 28 29  1  0  0  0  0
 28 33  1  0  0  0  0
 29 30  1  0  0  0  0
 29 36  1  6  0  0  0
 30 31  1  0  0  0  0
 30 37  1  1  0  0  0
 31 32  1  0  0  0  0
 31 34  1  1  0  0  0
 32 33  1  0  0  0  0
 33 35  1  6  0  0  0
M  END
>  <CHROM.1>
-89.81564308,138.03224110,100.28327304,-95.30872036,-176.07683847,166.84872167
19.70285251,-0.30035390,52.31389326,-1.50441505,-0.83454594,-2.26549823

>  <Name>
2oe8_lig

>  <RI>
0

>  <Rbt.Current_Directory>
/home/itssahil/PROJECTS/Mol_Feturizer/New_Systems/rnas/2oe8

>  <Rbt.Executable>
rbdock ($Id: //depot/dev/client3/rdock/2013.1/src/exe/rbdock.cxx#4 $)

>  <Rbt.Library>
libRbt.so (2013.1, Build901 2013/11/27)

>  <Rbt.Parameter_File>
/export/apps/rDock/src/rDock_2013.1_src/data/scripts/dock_solv.prm

>  <Rbt.Receptor>
prm/pocket_docking_5.prm

>  <SCORE>
-19.4959

>  <SCORE.INTER>
-22.6236

>  <SCORE.INTER.CONST>
1

>  <SCORE.INTER.POLAR>
-2.55498

>  <SCORE.INTER.ROT>
6

>  <SCORE.INTER.SOLV>
12.3121

>  <SCORE.INTER.VDW>
-18.2698

>  <SCORE.INTER.norm>
-0.611448

>  <SCORE.INTRA>
3.12767

>  <SCORE.INTRA.DIHEDRAL>
-0.994873

>  <SCORE.INTRA.DIHEDRAL.0>
16.4056

>  <SCORE.INTRA.POLAR>
0

>  <SCORE.INTRA.POLAR.0>
0

>  <SCORE.INTRA.REPUL>
0

>  <SCORE.INTRA.REPUL.0>
0

>  <SCORE.INTRA.SOLV>
1.42332

>  <SCORE.INTRA.SOLV.lig_0>
-90.9627

>  <SCORE.INTRA.VDW>
2.91345

>  <SCORE.INTRA.VDW.0>
-3.28744

>  <SCORE.INTRA.norm>
0.0845317

>  <SCORE.RESTR>
0

>  <SCORE.RESTR.CAVITY>
0

>  <SCORE.RESTR.norm>
0

>  <SCORE.SYSTEM>
0

>  <SCORE.SYSTEM.CONST>
0

>  <SCORE.SYSTEM.DIHEDRAL>
0

>  <SCORE.SYSTEM.SOLV>
0

>  <SCORE.SYSTEM.norm>
0

>  <SCORE.heavy>
37

>  <SCORE.norm>
-0.526916

>  <RMSD>
3.047

$$$$
2oe8_lig
 OpenBabel11021811463D
libRbt.so/2013.1/901 2013/11/27
 37 40  0  0  0  0  0  0  0  0999 V2000
   20.4335    0.3727   53.3740 C   0  0  1  0  0  0  0  0  0  0  0  0
   20.2066    1.2964   52.1175 C   0  0  1  0  0  0  0  0  0  0  0  0
   19.0642    0.7169   51.2574 C   0  0  0  0  0  0  0  0  0  0  0  0
   19.5235   -0.7136   50.8347 C   0  0  1  0  0  0  0  0  0  0  0  0
   19.7800   -1.6658   52.1128 C   0  0  1  0  0  0  0  0  0  0  0  0
   20.2570   -3.0892   51.7003 C   0  0  1  0  0  0  0  0  0  0  0  0
   19.1453   -3.7032   50.7547 C   0  0  1  0  0  0  0  0  0  0  0  0
   18.9008   -2.7216   49.5562 C   0  0  2  0  0  0  0  0  0  0  0  0
   19.2476   -6.3049   51.0975 C   0  0  0  0  0  0  0  0  0  0  0  0
   19.8581    2.6884   52.5453 N   0  0  0  0  0  0  0  0  0  0  0  0
   19.5466   -5.0892   50.2571 N   0  0  0  0  0  0  0  0  0  0  0  0
   19.2678    0.3140   54.2057 O   0  0  0  0  0  0  0  0  0  0  0  0
   20.7816   -1.0226   52.9745 O   0  0  0  0  0  0  0  0  0  0  0  0
   18.5147   -1.3479   49.9937 O   0  0  0  0  0  0  0  0  0  0  0  0
   21.5126   -2.9357   51.0363 O   0  0  0  0  0  0  0  0  0  0  0  0
   17.8879   -3.2250   48.7639 O   0  0  0  0  0  0  0  0  0  0  0  0
   18.3369   -4.2232   47.8317 C   0  0  2  0  0  0  0  0  0  0  0  0
   19.0469   -3.5544   46.6299 C   0  0  1  0  0  0  0  0  0  0  0  0
   18.0605   -2.6994   45.7767 C   0  0  2  0  0  0  0  0  0  0  0  0
   16.9031   -3.6068   45.2644 C   0  0  1  0  0  0  0  0  0  0  0  0
   16.1740   -4.1909   46.5452 C   0  0  1  0  0  0  0  0  0  0  0  0
   15.0201   -5.1176   46.1729 C   0  0  0  0  0  0  0  0  0  0  0  0
   15.9588   -2.7916   44.4482 N   0  0  0  0  0  0  0  0  0  0  0  0
   17.1667   -4.9964   47.3409 O   0  0  0  0  0  0  0  0  0  0  0  0
   20.1278   -2.7629   47.1591 O   0  0  0  0  0  0  0  0  0  0  0  0
   18.7693   -2.1651   44.6783 O   0  0  0  0  0  0  0  0  0  0  0  0
   14.6182   -5.8417   47.3057 O   0  0  0  0  0  0  0  0  0  0  0  0
   19.4862    0.7819   55.5206 C   0  0  1  0  0  0  0  0  0  0  0  0
   18.1770    1.4786   56.0130 C   0  0  1  0  0  0  0  0  0  0  0  0
   18.4139    2.0272   57.4502 C   0  0  2  0  0  0  0  0  0  0  0  0
   18.8030    0.8743   58.4265 C   0  0  1  0  0  0  0  0  0  0  0  0
   20.1170    0.1581   57.9316 C   0  0  0  0  0  0  0  0  0  0  0  0
   19.8695   -0.4044   56.4706 C   0  0  2  0  0  0  0  0  0  0  0  0
   19.0294    1.4247   59.7916 N   0  0  0  0  0  0  0  0  0  0  0  0
   21.1064   -1.0783   56.0153 N   0  0  0  0  0  0  0  0  0  0  0  0
   17.8346    2.5729   55.1421 O   0  0  0  0  0  0  0  0  0  0  0  0
   17.2110    2.6468   57.8746 O   0  0  0  0  0  0  0  0  0  0  0  0
  1  2  1  0  0  0  0
  1 12  1  6  0  0  0
  1 13  1  0  0  0  0
  2  3  1  0  0  0  0
  2 10  1  1  0  0  0
  4  3  1  1  0  0  0
  4  5  1  0  0  0  0
  4 14  1  0  0  0  0
  5  6  1  0  0  0  0
  5 13  1  1  0  0  0
  6  7  1  0  0  0  0
  6 15  1  6  0  0  0
  7  8  1  0  0  0  0
  7 11  1  6  0  0  0
  8 14  1  0  0  0  0
  8 16  1  6  0  0  0
  9 11  1  0  0  0  0
 17 16  1  1  0  0  0
 17 18  1  0  0  0  0
 17 24  1  0  0  0  0
 18 19  1  0  0  0  0
 18 25  1  1  0  0  0
 19 20  1  0  0  0  0
 19 26  1  6  0  0  0
 20 21  1  0  0  0  0
 20 23  1  1  0  0  0
 21 22  1  6  0  0  0
 21 24  1  0  0  0  0
 22 27  1  0  0  0  0
 28 12  1  6  0  0  0
 28 29  1  0  0  0  0
 28 33  1  0  0  0  0
 29 30  1  0  0  0  0
 29 36  1  6  0  0  0
 30 31  1  0  0  0  0
 30 37  1  1  0  0  0
 31 32  1  0  0  0  0
 31 34  1  1  0  0  0
 32 33  1  0  0  0  0
 33 35  1  6  0  0  0
M  END
>  <CHROM.1>
-119.72576795,85.63804271,-82.30652985,-77.54537654,166.27454354,145.93854282
18.74686599,-1.58537922,51.37591288,1.12249438,-1.20760235,0.67383767

>  <Name>
2oe8_lig

>  <RI>
0

>  <Rbt.Current_Directory>
/home/itssahil/PROJECTS/Mol_Feturizer/New_Systems/rnas/2oe8

>  <Rbt.Executable>
rbdock ($Id: //depot/dev/client3/rdock/2013.1/src/exe/rbdock.cxx#4 $)

>  <Rbt.Library>
libRbt.so (2013.1, Build901 2013/11/27)

>  <Rbt.Parameter_File>
/export/apps/rDock/src/rDock_2013.1_src/data/scripts/dock_solv.prm

>  <Rbt.Receptor>
prm/pocket_docking_6.prm

>  <SCORE>
-30.2323

>  <SCORE.INTER>
-31.2244

>  <SCORE.INTER.CONST>
1

>  <SCORE.INTER.POLAR>
-3.50406

>  <SCORE.INTER.ROT>
6

>  <SCORE.INTER.SOLV>
18.4734

>  <SCORE.INTER.VDW>
-22.8939

>  <SCORE.INTER.norm>
-0.843904

>  <SCORE.INTRA>
0.992099

>  <SCORE.INTRA.DIHEDRAL>
-0.137327

>  <SCORE.INTRA.DIHEDRAL.0>
16.4056

>  <SCORE.INTRA.POLAR>
0

>  <SCORE.INTRA.POLAR.0>
0

>  <SCORE.INTRA.REPUL>
0

>  <SCORE.INTRA.REPUL.0>
0

>  <SCORE.INTRA.SOLV>
0.484492

>  <SCORE.INTRA.SOLV.lig_0>
-90.9627

>  <SCORE.INTRA.VDW>
0.818517

>  <SCORE.INTRA.VDW.0>
-3.28744

>  <SCORE.INTRA.norm>
0.0268135

>  <SCORE.RESTR>
0

>  <SCORE.RESTR.CAVITY>
0

>  <SCORE.RESTR.norm>
0

>  <SCORE.SYSTEM>
0

>  <SCORE.SYSTEM.CONST>
0

>  <SCORE.SYSTEM.DIHEDRAL>
0

>  <SCORE.SYSTEM.SOLV>
0

>  <SCORE.SYSTEM.norm>
0

>  <SCORE.heavy>
37

>  <SCORE.norm>
-0.81709

>  <RMSD>
3.057

$$$$
2oe8_lig
 OpenBabel11021811463D
libRbt.so/2013.1/901 2013/11/27
 37 40  0  0  0  0  0  0  0  0999 V2000
   20.3241    2.8122   53.3594 C   0  0  1  0  0  0  0  0  0  0  0  0
   19.0273    3.0636   52.5002 C   0  0  1  0  0  0  0  0  0  0  0  0
   18.5220    1.7205   51.9332 C   0  0  0  0  0  0  0  0  0  0  0  0
   19.6834    1.1565   51.0563 C   0  0  1  0  0  0  0  0  0  0  0  0
   21.0258    0.9131   51.9192 C   0  0  1  0  0  0  0  0  0  0  0  0
   22.1953    0.3684   51.0477 C   0  0  1  0  0  0  0  0  0  0  0  0
   21.6998   -0.9812   50.3844 C   0  0  1  0  0  0  0  0  0  0  0  0
   20.3721   -0.7017   49.5978 C   0  0  2  0  0  0  0  0  0  0  0  0
   22.8191   -3.0605   49.2354 C   0  0  0  0  0  0  0  0  0  0  0  0
   17.9562    3.6913   53.3374 N   0  0  0  0  0  0  0  0  0  0  0  0
   22.7679   -1.5715   49.4678 N   0  0  0  0  0  0  0  0  0  0  0  0
   20.0607    1.9551   54.4775 O   0  0  0  0  0  0  0  0  0  0  0  0
   21.4083    2.1853   52.5475 O   0  0  0  0  0  0  0  0  0  0  0  0
   19.2983   -0.1136   50.4515 O   0  0  0  0  0  0  0  0  0  0  0  0
   22.4996    1.3722   50.0779 O   0  0  0  0  0  0  0  0  0  0  0  0
   19.9049   -1.8894   49.0704 O   0  0  0  0  0  0  0  0  0  0  0  0
   18.8103   -2.4510   49.8143 C   0  0  2  0  0  0  0  0  0  0  0  0
   19.3348   -3.4728   50.8518 C   0  0  1  0  0  0  0  0  0  0  0  0
   19.9675   -4.7223   50.1659 C   0  0  2  0  0  0  0  0  0  0  0  0
   18.9051   -5.4008   49.2514 C   0  0  1  0  0  0  0  0  0  0  0  0
   18.4748   -4.3256   48.1687 C   0  0  1  0  0  0  0  0  0  0  0  0
   17.4156   -4.8687   47.2137 C   0  0  0  0  0  0  0  0  0  0  0  0
   19.5075   -6.5958   48.5945 N   0  0  0  0  0  0  0  0  0  0  0  0
   17.8823   -3.1365   48.8776 O   0  0  0  0  0  0  0  0  0  0  0  0
   20.2799   -2.7821   51.6912 O   0  0  0  0  0  0  0  0  0  0  0  0
   20.3757   -5.6245   51.1727 O   0  0  0  0  0  0  0  0  0  0  0  0
   16.2910   -5.2773   47.9467 O   0  0  0  0  0  0  0  0  0  0  0  0
   19.7478    2.6535   55.6650 C   0  0  1  0  0  0  0  0  0  0  0  0
   19.0495    1.6574   56.6457 C   0  0  1  0  0  0  0  0  0  0  0  0
   18.6705    2.4221   57.9475 C   0  0  2  0  0  0  0  0  0  0  0  0
   19.9385    3.0317   58.6214 C   0  0  1  0  0  0  0  0  0  0  0  0
   20.6562    4.0299   57.6349 C   0  0  0  0  0  0  0  0  0  0  0  0
   21.0459    3.2460   56.3136 C   0  0  2  0  0  0  0  0  0  0  0  0
   19.5495    3.7617   59.8598 N   0  0  0  0  0  0  0  0  0  0  0  0
   21.7224    4.1891   55.3949 N   0  0  0  0  0  0  0  0  0  0  0  0
   17.8531    1.1233   56.0485 O   0  0  0  0  0  0  0  0  0  0  0  0
   18.0461    1.4956   58.8207 O   0  0  0  0  0  0  0  0  0  0  0  0
  1  2  1  0  0  0  0
  1 12  1  1  0  0  0
  1 13  1  0  0  0  0
  2  3  1  0  0  0  0
  2 10  1  1  0  0  0
  4  3  1  1  0  0  0
  4  5  1  0  0  0  0
  4 14  1  0  0  0  0
  5  6  1  0  0  0  0
  5 13  1  6  0  0  0
  6  7  1  0  0  0  0
  6 15  1  6  0  0  0
  7  8  1  0  0  0  0
  7 11  1  6  0  0  0
  8 14  1  0  0  0  0
  8 16  1  1  0  0  0
  9 11  1  0  0  0  0
 17 16  1  6  0  0  0
 17 18  1  0  0  0  0
 17 24  1  0  0  0  0
 18 19  1  0  0  0  0
 18 25  1  6  0  0  0
 19 20  1  0  0  0  0
 19 26  1  1  0  0  0
 20 21  1  0  0  0  0
 20 23  1  6  0  0  0
 21 22  1  6  0  0  0
 21 24  1  0  0  0  0
 22 27  1  0  0  0  0
 28 12  1  6  0  0  0
 28 29  1  0  0  0  0
 28 33  1  0  0  0  0
 29 30  1  0  0  0  0
 29 36  1  6  0  0  0
 30 31  1  0  0  0  0
 30 37  1  1  0  0  0
 31 32  1  0  0  0  0
 31 34  1  1  0  0  0
 32 33  1  0  0  0  0
 33 35  1  6  0  0  0
M  END
>  <CHROM.1>
-93.30352610,152.24395384,102.42019928,-93.98637607,58.15059852,162.03411148
19.80089031,-0.31567630,52.32554050,-1.51349333,-0.83093796,-2.26843799

>  <Name>
2oe8_lig

>  <RI>
0

>  <Rbt.Current_Directory>
/home/itssahil/PROJECTS/Mol_Feturizer/New_Systems/rnas/2oe8

>  <Rbt.Executable>
rbdock ($Id: //depot/dev/client3/rdock/2013.1/src/exe/rbdock.cxx#4 $)

>  <Rbt.Library>
libRbt.so (2013.1, Build901 2013/11/27)

>  <Rbt.Parameter_File>
/export/apps/rDock/src/rDock_2013.1_src/data/scripts/dock_solv.prm

>  <Rbt.Receptor>
prm/pocket_docking_5.prm

>  <SCORE>
-18.7791

>  <SCORE.INTER>
-22.4116

>  <SCORE.INTER.CONST>
1

>  <SCORE.INTER.POLAR>
-2.54646

>  <SCORE.INTER.ROT>
6

>  <SCORE.INTER.SOLV>
12.2185

>  <SCORE.INTER.VDW>
-18.1257

>  <SCORE.INTER.norm>
-0.60572

>  <SCORE.INTRA>
3.63256

>  <SCORE.INTRA.DIHEDRAL>
-0.0634666

>  <SCORE.INTRA.DIHEDRAL.0>
16.4056

>  <SCORE.INTRA.POLAR>
0

>  <SCORE.INTRA.POLAR.0>
0

>  <SCORE.INTRA.REPUL>
0

>  <SCORE.INTRA.REPUL.0>
0

>  <SCORE.INTRA.SOLV>
1.76725

>  <SCORE.INTRA.SOLV.lig_0>
-90.9627

>  <SCORE.INTRA.VDW>
2.78067

>  <SCORE.INTRA.VDW.0>
-3.28744

>  <SCORE.INTRA.norm>
0.0981774

>  <SCORE.RESTR>
0

>  <SCORE.RESTR.CAVITY>
0

>  <SCORE.RESTR.norm>
0

>  <SCORE.SYSTEM>
0

>  <SCORE.SYSTEM.CONST>
0

>  <SCORE.SYSTEM.DIHEDRAL>
0

>  <SCORE.SYSTEM.SOLV>
0

>  <SCORE.SYSTEM.norm>
0

>  <SCORE.heavy>
37

>  <SCORE.norm>
-0.507542

>  <RMSD>
3.065

$$$$
2oe8_lig
 OpenBabel11021811463D
libRbt.so/2013.1/901 2013/11/27
 37 40  0  0  0  0  0  0  0  0999 V2000
   19.7658    3.1544   53.4106 C   0  0  1  0  0  0  0  0  0  0  0  0
   18.2850    2.8087   52.9966 C   0  0  1  0  0  0  0  0  0  0  0  0
   18.1709    1.2939   52.7260 C   0  0  0  0  0  0  0  0  0  0  0  0
   19.1708    0.9844   51.5684 C   0  0  1  0  0  0  0  0  0  0  0  0
   20.6902    1.3530   51.9705 C   0  0  1  0  0  0  0  0  0  0  0  0
   21.6918    1.0651   50.8139 C   0  0  1  0  0  0  0  0  0  0  0  0
   21.5624   -0.4704   50.4498 C   0  0  1  0  0  0  0  0  0  0  0  0
   20.0638   -0.7866   50.1121 C   0  0  2  0  0  0  0  0  0  0  0  0
   22.8513   -2.2844   49.0552 C   0  0  0  0  0  0  0  0  0  0  0  0
   17.3314    3.1992   54.0830 N   0  0  0  0  0  0  0  0  0  0  0  0
   22.4781   -0.8418   49.2866 N   0  0  0  0  0  0  0  0  0  0  0  0
   20.1497    2.4808   54.6160 O   0  0  0  0  0  0  0  0  0  0  0  0
   20.7377    2.7736   52.3439 O   0  0  0  0  0  0  0  0  0  0  0  0
   19.1267   -0.4306   51.2180 O   0  0  0  0  0  0  0  0  0  0  0  0
   21.3312    1.9155   49.7243 O   0  0  0  0  0  0  0  0  0  0  0  0
   19.9376   -2.1375   49.8548 O   0  0  0  0  0  0  0  0  0  0  0  0
   18.5967   -2.6268   50.0265 C   0  0  2  0  0  0  0  0  0  0  0  0
   18.6195   -4.0713   50.5819 C   0  0  1  0  0  0  0  0  0  0  0  0
   19.2290   -5.0766   49.5572 C   0  0  2  0  0  0  0  0  0  0  0  0
   18.4006   -5.0338   48.2391 C   0  0  1  0  0  0  0  0  0  0  0  0
   18.4882   -3.5502   47.6876 C   0  0  1  0  0  0  0  0  0  0  0  0
   17.6961   -3.3732   46.3953 C   0  0  0  0  0  0  0  0  0  0  0  0
   18.9812   -5.9944   47.2578 N   0  0  0  0  0  0  0  0  0  0  0  0
   17.9005   -2.6178   48.7136 O   0  0  0  0  0  0  0  0  0  0  0  0
   19.3621   -4.0426   51.8159 O   0  0  0  0  0  0  0  0  0  0  0  0
   19.1700   -6.3725   50.1154 O   0  0  0  0  0  0  0  0  0  0  0  0
   17.8375   -2.0543   45.9375 O   0  0  0  0  0  0  0  0  0  0  0  0
   19.5923    3.0478   55.7837 C   0  0  1  0  0  0  0  0  0  0  0  0
   19.2044    1.8845   56.7521 C   0  0  1  0  0  0  0  0  0  0  0  0
   18.5594    2.4940   58.0310 C   0  0  2  0  0  0  0  0  0  0  0  0
   19.5492    3.4693   58.7400 C   0  0  1  0  0  0  0  0  0  0  0  0
   19.9550    4.6406   57.7664 C   0  0  0  0  0  0  0  0  0  0  0  0
   20.6169    4.0162   56.4686 C   0  0  2  0  0  0  0  0  0  0  0  0
   18.9079    4.0427   59.9556 N   0  0  0  0  0  0  0  0  0  0  0  0
   20.9982    5.1225   55.5620 N   0  0  0  0  0  0  0  0  0  0  0  0
   18.2564    1.0033   56.1213 O   0  0  0  0  0  0  0  0  0  0  0  0
   18.2241    1.4197   58.8937 O   0  0  0  0  0  0  0  0  0  0  0  0
  1  2  1  0  0  0  0
  1 12  1  1  0  0  0
  1 13  1  0  0  0  0
  2  3  1  0  0  0  0
  2 10  1  1  0  0  0
  4  3  1  1  0  0  0
  4  5  1  0  0  0  0
  4 14  1  0  0  0  0
  5  6  1  0  0  0  0
  5 13  1  6  0  0  0
  6  7  1  0  0  0  0
  6 15  1  6  0  0  0
  7  8  1  0  0  0  0
  7 11  1  6  0  0  0
  8 14  1  0  0  0  0
  8 16  1  1  0  0  0
  9 11  1  0  0  0  0
 17 16  1  6  0  0  0
 17 18  1  0  0  0  0
 17 24  1  0  0  0  0
 18 19  1  0  0  0  0
 18 25  1  1  0  0  0
 19 20  1  0  0  0  0
 19 26  1  1  0  0  0
 20 21  1  0  0  0  0
 20 23  1  6  0  0  0
 21 22  1  6  0  0  0
 21 24  1  0  0  0  0
 22 27  1  0  0  0  0
 28 12  1  6  0  0  0
 28 29  1  0  0  0  0
 28 33  1  0  0  0  0
 29 30  1  0  0  0  0
 29 36  1  6  0  0  0
 30 31  1  0  0  0  0
 30 37  1  1  0  0  0
 31 32  1  0  0  0  0
 31 34  1  1  0  0  0
 32 33  1  0  0  0  0
 33 35  1  6  0  0  0
M  END
>  <CHROM.1>
-75.46179325,160.60895476,158.04738319,-145.22395920,-178.51283894,141.34193943
19.49571744,-0.02923302,52.25083939,-1.52647634,-1.07901239,-2.22129364

>  <Name>
2oe8_lig

>  <RI>
0

>  <Rbt.Current_Directory>
/home/itssahil/PROJECTS/Mol_Feturizer/New_Systems/rnas/2oe8

>  <Rbt.Executable>
rbdock ($Id: //depot/dev/client3/rdock/2013.1/src/exe/rbdock.cxx#4 $)

>  <Rbt.Library>
libRbt.so (2013.1, Build901 2013/11/27)

>  <Rbt.Parameter_File>
/export/apps/rDock/src/rDock_2013.1_src/data/scripts/dock_solv.prm

>  <Rbt.Receptor>
prm/pocket_docking_6.prm

>  <SCORE>
-17.7276

>  <SCORE.INTER>
-17.5155

>  <SCORE.INTER.CONST>
1

>  <SCORE.INTER.POLAR>
-1.45558

>  <SCORE.INTER.ROT>
6

>  <SCORE.INTER.SOLV>
14.4734

>  <SCORE.INTER.VDW>
-19.2495

>  <SCORE.INTER.norm>
-0.473391

>  <SCORE.INTRA>
-0.212105

>  <SCORE.INTRA.DIHEDRAL>
-3.16737

>  <SCORE.INTRA.DIHEDRAL.0>
16.4056

>  <SCORE.INTRA.POLAR>
0

>  <SCORE.INTRA.POLAR.0>
0

>  <SCORE.INTRA.REPUL>
0

>  <SCORE.INTRA.REPUL.0>
0

>  <SCORE.INTRA.SOLV>
0.0238723

>  <SCORE.INTRA.SOLV.lig_0>
-90.9627

>  <SCORE.INTRA.VDW>
1.35964

>  <SCORE.INTRA.VDW.0>
-3.28744

>  <SCORE.INTRA.norm>
-0.00573257

>  <SCORE.RESTR>
0

>  <SCORE.RESTR.CAVITY>
0

>  <SCORE.RESTR.norm>
0

>  <SCORE.SYSTEM>
0

>  <SCORE.SYSTEM.CONST>
0

>  <SCORE.SYSTEM.DIHEDRAL>
0

>  <SCORE.SYSTEM.SOLV>
0

>  <SCORE.SYSTEM.norm>
0

>  <SCORE.heavy>
37

>  <SCORE.norm>
-0.479123

>  <RMSD>
3.077

$$$$
2oe8_lig
 OpenBabel11021811463D
libRbt.so/2013.1/901 2013/11/27
 37 40  0  0  0  0  0  0  0  0999 V2000
   21.9329   -0.6808   52.4748 C   0  0  1  0  0  0  0  0  0  0  0  0
   21.6602    0.5737   51.5607 C   0  0  1  0  0  0  0  0  0  0  0  0
   20.4067    0.3149   50.6992 C   0  0  0  0  0  0  0  0  0  0  0  0
   20.7228   -0.9522   49.8445 C   0  0  1  0  0  0  0  0  0  0  0  0
   21.0248   -2.2413   50.7680 C   0  0  1  0  0  0  0  0  0  0  0  0
   21.3600   -3.5054   49.9231 C   0  0  1  0  0  0  0  0  0  0  0  0
   20.1268   -3.7740   48.9672 C   0  0  1  0  0  0  0  0  0  0  0  0
   19.8460   -2.4800   48.1265 C   0  0  2  0  0  0  0  0  0  0  0  0
   21.5932   -4.9937   47.1621 C   0  0  0  0  0  0  0  0  0  0  0  0
   21.4518    1.7978   52.3976 N   0  0  0  0  0  0  0  0  0  0  0  0
   20.3817   -4.9744   48.0597 N   0  0  0  0  0  0  0  0  0  0  0  0
   20.8456   -0.9260   53.3757 O   0  0  0  0  0  0  0  0  0  0  0  0
   22.1433   -1.9161   51.6640 O   0  0  0  0  0  0  0  0  0  0  0  0
   19.5998   -1.2746   48.9716 O   0  0  0  0  0  0  0  0  0  0  0  0
   22.5585   -3.2213   49.1993 O   0  0  0  0  0  0  0  0  0  0  0  0
   18.7325   -2.6909   47.3373 O   0  0  0  0  0  0  0  0  0  0  0  0
   18.9167   -3.7278   46.3586 C   0  0  2  0  0  0  0  0  0  0  0  0
   18.2531   -3.3257   45.0194 C   0  0  1  0  0  0  0  0  0  0  0  0
   16.7012   -3.2368   45.1453 C   0  0  2  0  0  0  0  0  0  0  0  0
   16.1432   -4.6126   45.6156 C   0  0  1  0  0  0  0  0  0  0  0  0
   16.8024   -4.9202   47.0241 C   0  0  1  0  0  0  0  0  0  0  0  0
   16.3439   -6.2618   47.5888 C   0  0  0  0  0  0  0  0  0  0  0  0
   14.6596   -4.5303   45.7365 N   0  0  0  0  0  0  0  0  0  0  0  0
   18.2973   -4.9844   46.8542 O   0  0  0  0  0  0  0  0  0  0  0  0
   18.8339   -2.0711   44.6149 O   0  0  0  0  0  0  0  0  0  0  0  0
   16.1690   -2.9148   43.8775 O   0  0  0  0  0  0  0  0  0  0  0  0
   16.8255   -6.4064   48.8989 O   0  0  0  0  0  0  0  0  0  0  0  0
   20.9494   -0.2189   54.5943 C   0  0  1  0  0  0  0  0  0  0  0  0
   19.5179   -0.0953   55.2086 C   0  0  1  0  0  0  0  0  0  0  0  0
   19.6131    0.7098   56.5374 C   0  0  2  0  0  0  0  0  0  0  0  0
   20.5667    0.0008   57.5481 C   0  0  1  0  0  0  0  0  0  0  0  0
   22.0110   -0.1385   56.9323 C   0  0  0  0  0  0  0  0  0  0  0  0
   21.9106   -0.9641   55.5830 C   0  0  2  0  0  0  0  0  0  0  0  0
   20.6452    0.7921   58.8072 N   0  0  0  0  0  0  0  0  0  0  0  0
   23.2709   -1.0933   55.0138 N   0  0  0  0  0  0  0  0  0  0  0  0
   18.6418    0.5977   54.3002 O   0  0  0  0  0  0  0  0  0  0  0  0
   18.3045    0.8010   57.0762 O   0  0  0  0  0  0  0  0  0  0  0  0
  1  2  1  0  0  0  0
  1 12  1  1  0  0  0
  1 13  1  0  0  0  0
  2  3  1  0  0  0  0
  2 10  1  1  0  0  0
  4  3  1  1  0  0  0
  4  5  1  0  0  0  0
  4 14  1  0  0  0  0
  5  6  1  0  0  0  0
  5 13  1  1  0  0  0
  6  7  1  0  0  0  0
  6 15  1  6  0  0  0
  7  8  1  0  0  0  0
  7 11  1  6  0  0  0
  8 14  1  0  0  0  0
  8 16  1  1  0  0  0
  9 11  1  0  0  0  0
 17 16  1  1  0  0  0
 17 18  1  0  0  0  0
 17 24  1  0  0  0  0
 18 19  1  0  0  0  0
 18 25  1  1  0  0  0
 19 20  1  0  0  0  0
 19 26  1  6  0  0  0
 20 21  1  0  0  0  0
 20 23  1  1  0  0  0
 21 22  1  6  0  0  0
 21 24  1  0  0  0  0
 22 27  1  0  0  0  0
 28 12  1  6  0  0  0
 28 29  1  0  0  0  0
 28 33  1  0  0  0  0
 29 30  1  0  0  0  0
 29 36  1  6  0  0  0
 30 31  1  0  0  0  0
 30 37  1  1  0  0  0
 31 32  1  0  0  0  0
 31 34  1  1  0  0  0
 32 33  1  0  0  0  0
 33 35  1  6  0  0  0
M  END
>  <CHROM.1>
-87.74364708,-56.61423918,-63.93635268,-140.35119263,-172.84714624,157.40255430
19.64933726,-2.11301109,50.46453567,-1.27522066,-0.13320811,-1.94969236

>  <Name>
2oe8_lig

>  <RI>
0

>  <Rbt.Current_Directory>
/home/itssahil/PROJECTS/Mol_Feturizer/New_Systems/rnas/2oe8

>  <Rbt.Executable>
rbdock ($Id: //depot/dev/client3/rdock/2013.1/src/exe/rbdock.cxx#4 $)

>  <Rbt.Library>
libRbt.so (2013.1, Build901 2013/11/27)

>  <Rbt.Parameter_File>
/export/apps/rDock/src/rDock_2013.1_src/data/scripts/dock_solv.prm

>  <Rbt.Receptor>
prm/pocket_docking_7.prm

>  <SCORE>
-18.8256

>  <SCORE.INTER>
-21.7747

>  <SCORE.INTER.CONST>
1

>  <SCORE.INTER.POLAR>
-2.69657

>  <SCORE.INTER.ROT>
6

>  <SCORE.INTER.SOLV>
12.8774

>  <SCORE.INTER.VDW>
-17.4203

>  <SCORE.INTER.norm>
-0.588504

>  <SCORE.INTRA>
2.94901

>  <SCORE.INTRA.DIHEDRAL>
-5.33689

>  <SCORE.INTRA.DIHEDRAL.0>
16.4056

>  <SCORE.INTRA.POLAR>
0

>  <SCORE.INTRA.POLAR.0>
0

>  <SCORE.INTRA.REPUL>
0.0171233

>  <SCORE.INTRA.REPUL.0>
0

>  <SCORE.INTRA.SOLV>
1.65233

>  <SCORE.INTRA.SOLV.lig_0>
-90.9627

>  <SCORE.INTRA.VDW>
4.70568

>  <SCORE.INTRA.VDW.0>
-3.28744

>  <SCORE.INTRA.norm>
0.079703

>  <SCORE.RESTR>
0

>  <SCORE.RESTR.CAVITY>
0

>  <SCORE.RESTR.norm>
0

>  <SCORE.SYSTEM>
0

>  <SCORE.SYSTEM.CONST>
0

>  <SCORE.SYSTEM.DIHEDRAL>
0

>  <SCORE.SYSTEM.SOLV>
0

>  <SCORE.SYSTEM.norm>
0

>  <SCORE.heavy>
37

>  <SCORE.norm>
-0.508801

>  <RMSD>
3.108

$$$$
2oe8_lig
 OpenBabel11021811463D
libRbt.so/2013.1/901 2013/11/27
 37 40  0  0  0  0  0  0  0  0999 V2000
   20.6940   -0.0617   53.2464 C   0  0  1  0  0  0  0  0  0  0  0  0
   21.2289    0.7693   52.0189 C   0  0  1  0  0  0  0  0  0  0  0  0
   20.2978    0.5489   50.8084 C   0  0  0  0  0  0  0  0  0  0  0  0
   20.3275   -0.9833   50.5127 C   0  0  1  0  0  0  0  0  0  0  0  0
   19.8014   -1.8492   51.7695 C   0  0  1  0  0  0  0  0  0  0  0  0
   19.8458   -3.3801   51.4896 C   0  0  1  0  0  0  0  0  0  0  0  0
   18.9568   -3.6508   50.2076 C   0  0  1  0  0  0  0  0  0  0  0  0
   19.4783   -2.7546   49.0309 C   0  0  2  0  0  0  0  0  0  0  0  0
   18.9082   -6.1842   50.8975 C   0  0  0  0  0  0  0  0  0  0  0  0
   21.2811    2.2276   52.3548 N   0  0  0  0  0  0  0  0  0  0  0  0
   18.9756   -5.1278   49.8236 N   0  0  0  0  0  0  0  0  0  0  0  0
   19.3826    0.3609   53.6409 O   0  0  0  0  0  0  0  0  0  0  0  0
   20.6311   -1.5205   52.9369 O   0  0  0  0  0  0  0  0  0  0  0  0
   19.4878   -1.2994   49.3629 O   0  0  0  0  0  0  0  0  0  0  0  0
   21.2157   -3.7305   51.2863 O   0  0  0  0  0  0  0  0  0  0  0  0
   18.6660   -2.9428   47.9300 O   0  0  0  0  0  0  0  0  0  0  0  0
   19.3371   -2.7076   46.6805 C   0  0  2  0  0  0  0  0  0  0  0  0
   18.4009   -3.0483   45.4961 C   0  0  1  0  0  0  0  0  0  0  0  0
   18.0747   -4.5722   45.4351 C   0  0  2  0  0  0  0  0  0  0  0  0
   19.4011   -5.3777   45.3047 C   0  0  1  0  0  0  0  0  0  0  0  0
   20.2719   -5.0425   46.5863 C   0  0  1  0  0  0  0  0  0  0  0  0
   21.6160   -5.7650   46.5688 C   0  0  0  0  0  0  0  0  0  0  0  0
   19.0919   -6.8349   45.2459 N   0  0  0  0  0  0  0  0  0  0  0  0
   20.5502   -3.5628   46.6078 O   0  0  0  0  0  0  0  0  0  0  0  0
   17.2126   -2.2482   45.6472 O   0  0  0  0  0  0  0  0  0  0  0  0
   17.2604   -4.8086   44.3058 O   0  0  0  0  0  0  0  0  0  0  0  0
   22.3367   -5.4389   47.7279 O   0  0  0  0  0  0  0  0  0  0  0  0
   19.3750    1.5584   54.3903 C   0  0  1  0  0  0  0  0  0  0  0  0
   18.1123    2.3819   53.9791 C   0  0  1  0  0  0  0  0  0  0  0  0
   18.1082    3.7196   54.7750 C   0  0  2  0  0  0  0  0  0  0  0  0
   18.0910    3.4504   56.3115 C   0  0  1  0  0  0  0  0  0  0  0  0
   19.3560    2.6102   56.7341 C   0  0  0  0  0  0  0  0  0  0  0  0
   19.3531    1.2466   55.9262 C   0  0  2  0  0  0  0  0  0  0  0  0
   18.0928    4.7437   57.0499 N   0  0  0  0  0  0  0  0  0  0  0  0
   20.5415    0.4626   56.3317 N   0  0  0  0  0  0  0  0  0  0  0  0
   18.1423    2.6732   52.5694 O   0  0  0  0  0  0  0  0  0  0  0  0
   16.9510    4.4427   54.3889 O   0  0  0  0  0  0  0  0  0  0  0  0
  1  2  1  0  0  0  0
  1 12  1  6  0  0  0
  1 13  1  0  0  0  0
  2  3  1  0  0  0  0
  2 10  1  1  0  0  0
  4  3  1  1  0  0  0
  4  5  1  0  0  0  0
  4 14  1  0  0  0  0
  5  6  1  0  0  0  0
  5 13  1  1  0  0  0
  6  7  1  0  0  0  0
  6 15  1  6  0  0  0
  7  8  1  0  0  0  0
  7 11  1  6  0  0  0
  8 14  1  0  0  0  0
  8 16  1  6  0  0  0
  9 11  1  0  0  0  0
 17 16  1  1  0  0  0
 17 18  1  0  0  0  0
 17 24  1  0  0  0  0
 18 19  1  0  0  0  0
 18 25  1  1  0  0  0
 19 20  1  0  0  0  0
 19 26  1  6  0  0  0
 20 21  1  0  0  0  0
 20 23  1  1  0  0  0
 21 22  1  6  0  0  0
 21 24  1  0  0  0  0
 22 27  1  0  0  0  0
 28 12  1  6  0  0  0
 28 29  1  0  0  0  0
 28 33  1  0  0  0  0
 29 30  1  0  0  0  0
 29 36  1  6  0  0  0
 30 31  1  0  0  0  0
 30 37  1  6  0  0  0
 31 32  1  0  0  0  0
 31 34  1  1  0  0  0
 32 33  1  0  0  0  0
 33 35  1  1  0  0  0
M  END
>  <CHROM.1>
-77.78636589,40.74651079,-152.76354401,175.41113526,-179.58222463,143.24886888
19.42316734,-1.42328459,50.64125271,-1.63306781,0.94648306,-2.22576614

>  <Name>
2oe8_lig

>  <RI>
0

>  <Rbt.Current_Directory>
/home/itssahil/PROJECTS/Mol_Feturizer/New_Systems/rnas/2oe8

>  <Rbt.Executable>
rbdock ($Id: //depot/dev/client3/rdock/2013.1/src/exe/rbdock.cxx#4 $)

>  <Rbt.Library>
libRbt.so (2013.1, Build901 2013/11/27)

>  <Rbt.Parameter_File>
/export/apps/rDock/src/rDock_2013.1_src/data/scripts/dock_solv.prm

>  <Rbt.Receptor>
prm/pocket_docking_5.prm

>  <SCORE>
-17.8315

>  <SCORE.INTER>
-15.3598

>  <SCORE.INTER.CONST>
1

>  <SCORE.INTER.POLAR>
-1.01756

>  <SCORE.INTER.ROT>
6

>  <SCORE.INTER.SOLV>
11.9824

>  <SCORE.INTER.VDW>
-18.4422

>  <SCORE.INTER.norm>
-0.415131

>  <SCORE.INTRA>
-2.47162

>  <SCORE.INTRA.DIHEDRAL>
-6.62028

>  <SCORE.INTRA.DIHEDRAL.0>
16.4056

>  <SCORE.INTRA.POLAR>
0

>  <SCORE.INTRA.POLAR.0>
0

>  <SCORE.INTRA.REPUL>
0

>  <SCORE.INTRA.REPUL.0>
0

>  <SCORE.INTRA.SOLV>
0.883155

>  <SCORE.INTRA.SOLV.lig_0>
-90.9627

>  <SCORE.INTRA.VDW>
0.39694

>  <SCORE.INTRA.VDW.0>
-3.28744

>  <SCORE.INTRA.norm>
-0.0668006

>  <SCORE.RESTR>
0

>  <SCORE.RESTR.CAVITY>
0

>  <SCORE.RESTR.norm>
0

>  <SCORE.SYSTEM>
0

>  <SCORE.SYSTEM.CONST>
0

>  <SCORE.SYSTEM.DIHEDRAL>
0

>  <SCORE.SYSTEM.SOLV>
0

>  <SCORE.SYSTEM.norm>
0

>  <SCORE.heavy>
37

>  <SCORE.norm>
-0.481932

>  <RMSD>
3.109

$$$$
2oe8_lig
 OpenBabel11021811463D
libRbt.so/2013.1/901 2013/11/27
 37 40  0  0  0  0  0  0  0  0999 V2000
   20.0886    3.0934   53.6195 C   0  0  1  0  0  0  0  0  0  0  0  0
   18.7297    2.8328   52.8653 C   0  0  1  0  0  0  0  0  0  0  0  0
   18.5411    1.3149   52.6627 C   0  0  0  0  0  0  0  0  0  0  0  0
   19.7612    0.8363   51.8153 C   0  0  1  0  0  0  0  0  0  0  0  0
   21.1626    1.1157   52.5665 C   0  0  1  0  0  0  0  0  0  0  0  0
   22.3862    0.6586   51.7193 C   0  0  1  0  0  0  0  0  0  0  0  0
   22.2040   -0.8862   51.4236 C   0  0  1  0  0  0  0  0  0  0  0  0
   20.8118   -1.1100   50.7369 C   0  0  2  0  0  0  0  0  0  0  0  0
   24.6072   -1.9202   51.1962 C   0  0  0  0  0  0  0  0  0  0  0  0
   17.5794    3.3824   53.6509 N   0  0  0  0  0  0  0  0  0  0  0  0
   23.3383   -1.4201   50.5532 N   0  0  0  0  0  0  0  0  0  0  0  0
   20.0969    2.4903   54.9196 O   0  0  0  0  0  0  0  0  0  0  0  0
   21.2526    2.5535   52.8569 O   0  0  0  0  0  0  0  0  0  0  0  0
   19.6694   -0.5944   51.5475 O   0  0  0  0  0  0  0  0  0  0  0  0
   22.3887    1.4448   50.5266 O   0  0  0  0  0  0  0  0  0  0  0  0
   20.6240   -2.4631   50.5346 O   0  0  0  0  0  0  0  0  0  0  0  0
   19.5114   -2.7610   49.6742 C   0  0  2  0  0  0  0  0  0  0  0  0
   18.6261   -3.8635   50.3039 C   0  0  1  0  0  0  0  0  0  0  0  0
   19.3750   -5.2287   50.3907 C   0  0  2  0  0  0  0  0  0  0  0  0
   19.8195   -5.6638   48.9630 C   0  0  1  0  0  0  0  0  0  0  0  0
   20.7832   -4.5306   48.4149 C   0  0  1  0  0  0  0  0  0  0  0  0
   21.2784   -4.8348   47.0039 C   0  0  0  0  0  0  0  0  0  0  0  0
   20.5355   -6.9689   49.0434 N   0  0  0  0  0  0  0  0  0  0  0  0
   20.0212   -3.2330   48.3605 O   0  0  0  0  0  0  0  0  0  0  0  0
   18.2139   -3.3911   51.6007 O   0  0  0  0  0  0  0  0  0  0  0  0
   18.4897   -6.1890   50.9277 O   0  0  0  0  0  0  0  0  0  0  0  0
   22.1047   -5.9686   47.0330 O   0  0  0  0  0  0  0  0  0  0  0  0
   19.3659    3.2171   55.8856 C   0  0  1  0  0  0  0  0  0  0  0  0
   18.8557    2.2117   56.9675 C   0  0  1  0  0  0  0  0  0  0  0  0
   18.0211    2.9950   58.0224 C   0  0  2  0  0  0  0  0  0  0  0  0
   18.8821    4.1088   58.6946 C   0  0  1  0  0  0  0  0  0  0  0  0
   19.4108    5.1219   57.6088 C   0  0  0  0  0  0  0  0  0  0  0  0
   20.2650    4.3214   56.5403 C   0  0  2  0  0  0  0  0  0  0  0  0
   18.0610    4.8463   59.6943 N   0  0  0  0  0  0  0  0  0  0  0  0
   20.7605    5.2803   55.5273 N   0  0  0  0  0  0  0  0  0  0  0  0
   18.0231    1.2050   56.3620 O   0  0  0  0  0  0  0  0  0  0  0  0
   17.5771    2.0623   58.9940 O   0  0  0  0  0  0  0  0  0  0  0  0
  1  2  1  0  0  0  0
  1 12  1  1  0  0  0
  1 13  1  0  0  0  0
  2  3  1  0  0  0  0
  2 10  1  1  0  0  0
  4  3  1  1  0  0  0
  4  5  1  0  0  0  0
  4 14  1  0  0  0  0
  5  6  1  0  0  0  0
  5 13  1  6  0  0  0
  6  7  1  0  0  0  0
  6 15  1  6  0  0  0
  7  8  1  0  0  0  0
  7 11  1  6  0  0  0
  8 14  1  0  0  0  0
  8 16  1  1  0  0  0
  9 11  1  0  0  0  0
 17 16  1  1  0  0  0
 17 18  1  0  0  0  0
 17 24  1  0  0  0  0
 18 19  1  0  0  0  0
 18 25  1  1  0  0  0
 19 20  1  0  0  0  0
 19 26  1  6  0  0  0
 20 21  1  0  0  0  0
 20 23  1  1  0  0  0
 21 22  1  6  0  0  0
 21 24  1  0  0  0  0
 22 27  1  0  0  0  0
 28 12  1  6  0  0  0
 28 29  1  0  0  0  0
 28 33  1  0  0  0  0
 29 30  1  0  0  0  0
 29 36  1  6  0  0  0
 30 31  1  0  0  0  0
 30 37  1  1  0  0  0
 31 32  1  0  0  0  0
 31 34  1  1  0  0  0
 32 33  1  0  0  0  0
 33 35  1  6  0  0  0
M  END
>  <CHROM.1>
-77.65034387,87.63568124,-168.13911391,-132.22272011,-66.30092406,152.48264228
20.03835161,-0.21064395,52.65048913,-1.76369360,-0.71469633,-2.50589625

>  <Name>
2oe8_lig

>  <RI>
0

>  <Rbt.Current_Directory>
/home/itssahil/PROJECTS/Mol_Feturizer/New_Systems/rnas/2oe8

>  <Rbt.Executable>
rbdock ($Id: //depot/dev/client3/rdock/2013.1/src/exe/rbdock.cxx#4 $)

>  <Rbt.Library>
libRbt.so (2013.1, Build901 2013/11/27)

>  <Rbt.Parameter_File>
/export/apps/rDock/src/rDock_2013.1_src/data/scripts/dock_solv.prm

>  <Rbt.Receptor>
prm/pocket_docking_5.prm

>  <SCORE>
-18.5504

>  <SCORE.INTER>
-17.3799

>  <SCORE.INTER.CONST>
1

>  <SCORE.INTER.POLAR>
-1.87167

>  <SCORE.INTER.ROT>
6

>  <SCORE.INTER.SOLV>
11.2753

>  <SCORE.INTER.VDW>
-16.7062

>  <SCORE.INTER.norm>
-0.469728

>  <SCORE.INTRA>
-1.17046

>  <SCORE.INTRA.DIHEDRAL>
-3.9621

>  <SCORE.INTRA.DIHEDRAL.0>
16.4056

>  <SCORE.INTRA.POLAR>
0

>  <SCORE.INTRA.POLAR.0>
0

>  <SCORE.INTRA.REPUL>
0

>  <SCORE.INTRA.REPUL.0>
0

>  <SCORE.INTRA.SOLV>
1.23382

>  <SCORE.INTRA.SOLV.lig_0>
-90.9627

>  <SCORE.INTRA.VDW>
0.193675

>  <SCORE.INTRA.VDW.0>
-3.28744

>  <SCORE.INTRA.norm>
-0.0316341

>  <SCORE.RESTR>
0

>  <SCORE.RESTR.CAVITY>
0

>  <SCORE.RESTR.norm>
0

>  <SCORE.SYSTEM>
0

>  <SCORE.SYSTEM.CONST>
0

>  <SCORE.SYSTEM.DIHEDRAL>
0

>  <SCORE.SYSTEM.SOLV>
0

>  <SCORE.SYSTEM.norm>
0

>  <SCORE.heavy>
37

>  <SCORE.norm>
-0.501362

>  <RMSD>
3.125

$$$$
2oe8_lig
 OpenBabel11021811463D
libRbt.so/2013.1/901 2013/11/27
 37 40  0  0  0  0  0  0  0  0999 V2000
   19.9299    3.0397   52.8411 C   0  0  1  0  0  0  0  0  0  0  0  0
   18.4319    2.5713   52.6992 C   0  0  1  0  0  0  0  0  0  0  0  0
   18.3699    1.0311   52.7676 C   0  0  0  0  0  0  0  0  0  0  0  0
   19.2421    0.5097   51.5830 C   0  0  1  0  0  0  0  0  0  0  0  0
   20.7757    0.9990   51.7037 C   0  0  1  0  0  0  0  0  0  0  0  0
   21.6486    0.4990   50.5155 C   0  0  1  0  0  0  0  0  0  0  0  0
   21.5616   -1.0819   50.4993 C   0  0  1  0  0  0  0  0  0  0  0  0
   20.0532   -1.5056   50.4276 C   0  0  2  0  0  0  0  0  0  0  0  0
   23.5524   -2.5407   49.6021 C   0  0  0  0  0  0  0  0  0  0  0  0
   17.5927    3.1578   53.7919 N   0  0  0  0  0  0  0  0  0  0  0  0
   22.3530   -1.6673   49.3330 N   0  0  0  0  0  0  0  0  0  0  0  0
   20.4893    2.6508   54.1020 O   0  0  0  0  0  0  0  0  0  0  0  0
   20.7890    2.4673   51.7631 O   0  0  0  0  0  0  0  0  0  0  0  0
   19.2346   -0.9482   51.5443 O   0  0  0  0  0  0  0  0  0  0  0  0
   21.1163    1.0860   49.3269 O   0  0  0  0  0  0  0  0  0  0  0  0
   19.9718   -2.8833   50.4761 O   0  0  0  0  0  0  0  0  0  0  0  0
   18.6254   -3.3778   50.3780 C   0  0  2  0  0  0  0  0  0  0  0  0
   18.6266   -4.9226   50.2822 C   0  0  1  0  0  0  0  0  0  0  0  0
   19.2782   -5.4203   48.9556 C   0  0  2  0  0  0  0  0  0  0  0  0
   18.5045   -4.8197   47.7449 C   0  0  1  0  0  0  0  0  0  0  0  0
   18.6134   -3.2426   47.8648 C   0  0  1  0  0  0  0  0  0  0  0  0
   17.8745   -2.5313   46.7348 C   0  0  0  0  0  0  0  0  0  0  0  0
   19.1254   -5.2942   46.4754 N   0  0  0  0  0  0  0  0  0  0  0  0
   17.9834   -2.8122   49.1630 O   0  0  0  0  0  0  0  0  0  0  0  0
   19.3181   -5.4218   51.4430 O   0  0  0  0  0  0  0  0  0  0  0  0
   19.1976   -6.8298   48.9210 O   0  0  0  0  0  0  0  0  0  0  0  0
   18.4974   -2.8244   45.5120 O   0  0  0  0  0  0  0  0  0  0  0  0
   20.0759    3.4649   55.1801 C   0  0  1  0  0  0  0  0  0  0  0  0
   20.0995    2.5991   56.4806 C   0  0  1  0  0  0  0  0  0  0  0  0
   19.6156    3.4757   57.6724 C   0  0  2  0  0  0  0  0  0  0  0  0
   20.5317    4.7260   57.8487 C   0  0  1  0  0  0  0  0  0  0  0  0
   20.5230    5.6001   56.5369 C   0  0  0  0  0  0  0  0  0  0  0  0
   21.0222    4.7058   55.3273 C   0  0  2  0  0  0  0  0  0  0  0  0
   20.0456    5.5503   58.9898 N   0  0  0  0  0  0  0  0  0  0  0  0
   21.0146    5.5349   54.1010 N   0  0  0  0  0  0  0  0  0  0  0  0
   19.2218    1.4659   56.3432 O   0  0  0  0  0  0  0  0  0  0  0  0
   19.6532    2.6696   58.8384 O   0  0  0  0  0  0  0  0  0  0  0  0
  1  2  1  0  0  0  0
  1 12  1  1  0  0  0
  1 13  1  0  0  0  0
  2  3  1  0  0  0  0
  2 10  1  1  0  0  0
  4  3  1  1  0  0  0
  4  5  1  0  0  0  0
  4 14  1  0  0  0  0
  5  6  1  0  0  0  0
  5 13  1  6  0  0  0
  6  7  1  0  0  0  0
  6 15  1  6  0  0  0
  7  8  1  0  0  0  0
  7 11  1  6  0  0  0
  8 14  1  0  0  0  0
  8 16  1  1  0  0  0
  9 11  1  0  0  0  0
 17 16  1  6  0  0  0
 17 18  1  0  0  0  0
 17 24  1  0  0  0  0
 18 19  1  0  0  0  0
 18 25  1  1  0  0  0
 19 20  1  0  0  0  0
 19 26  1  6  0  0  0
 20 21  1  0  0  0  0
 20 23  1  6  0  0  0
 21 22  1  6  0  0  0
 21 24  1  0  0  0  0
 22 27  1  0  0  0  0
 28 12  1  6  0  0  0
 28 29  1  0  0  0  0
 28 33  1  0  0  0  0
 29 30  1  0  0  0  0
 29 36  1  6  0  0  0
 30 31  1  0  0  0  0
 30 37  1  1  0  0  0
 31 32  1  0  0  0  0
 31 34  1  1  0  0  0
 32 33  1  0  0  0  0
 33 35  1  6  0  0  0
M  END
>  <CHROM.1>
-77.35994614,115.84058570,-178.33142783,173.76300108,-65.11552103,151.30302263
19.79726356,-0.06079115,51.96425014,-1.36335535,-1.23049174,-2.16708000

>  <Name>
2oe8_lig

>  <RI>
0

>  <Rbt.Current_Directory>
/home/itssahil/PROJECTS/Mol_Feturizer/New_Systems/rnas/2oe8

>  <Rbt.Executable>
rbdock ($Id: //depot/dev/client3/rdock/2013.1/src/exe/rbdock.cxx#4 $)

>  <Rbt.Library>
libRbt.so (2013.1, Build901 2013/11/27)

>  <Rbt.Parameter_File>
/export/apps/rDock/src/rDock_2013.1_src/data/scripts/dock_solv.prm

>  <Rbt.Receptor>
prm/pocket_docking_8.prm

>  <SCORE>
-17.7676

>  <SCORE.INTER>
-14.005

>  <SCORE.INTER.CONST>
1

>  <SCORE.INTER.POLAR>
-0.840511

>  <SCORE.INTER.ROT>
6

>  <SCORE.INTER.SOLV>
14.3515

>  <SCORE.INTER.VDW>
-18.9188

>  <SCORE.INTER.norm>
-0.378514

>  <SCORE.INTRA>
-3.76256

>  <SCORE.INTRA.DIHEDRAL>
-10.1229

>  <SCORE.INTRA.DIHEDRAL.0>
16.4056

>  <SCORE.INTRA.POLAR>
0

>  <SCORE.INTRA.POLAR.0>
0

>  <SCORE.INTRA.REPUL>
0

>  <SCORE.INTRA.REPUL.0>
0

>  <SCORE.INTRA.SOLV>
1.20866

>  <SCORE.INTRA.SOLV.lig_0>
-90.9627

>  <SCORE.INTRA.VDW>
0.694544

>  <SCORE.INTRA.VDW.0>
-3.28744

>  <SCORE.INTRA.norm>
-0.101691

>  <SCORE.RESTR>
0

>  <SCORE.RESTR.CAVITY>
0

>  <SCORE.RESTR.norm>
0

>  <SCORE.SYSTEM>
0

>  <SCORE.SYSTEM.CONST>
0

>  <SCORE.SYSTEM.DIHEDRAL>
0

>  <SCORE.SYSTEM.SOLV>
0

>  <SCORE.SYSTEM.norm>
0

>  <SCORE.heavy>
37

>  <SCORE.norm>
-0.480205

>  <RMSD>
3.170

$$$$
2oe8_lig
 OpenBabel11021811463D
libRbt.so/2013.1/901 2013/11/27
 37 40  0  0  0  0  0  0  0  0999 V2000
   22.0905    1.0233   51.9021 C   0  0  1  0  0  0  0  0  0  0  0  0
   20.8504    1.7675   51.2762 C   0  0  1  0  0  0  0  0  0  0  0  0
   19.7518    0.7370   50.9420 C   0  0  0  0  0  0  0  0  0  0  0  0
   20.3886   -0.2600   49.9240 C   0  0  1  0  0  0  0  0  0  0  0  0
   21.6734   -1.0152   50.5443 C   0  0  1  0  0  0  0  0  0  0  0  0
   22.3262   -1.9978   49.5282 C   0  0  1  0  0  0  0  0  0  0  0  0
   21.2138   -3.0394   49.0987 C   0  0  1  0  0  0  0  0  0  0  0  0
   19.9722   -2.2561   48.5468 C   0  0  2  0  0  0  0  0  0  0  0  0
   22.5274   -5.2351   48.5068 C   0  0  0  0  0  0  0  0  0  0  0  0
   20.3114    2.7856   52.2328 N   0  0  0  0  0  0  0  0  0  0  0  0
   21.7485   -4.0231   48.0614 N   0  0  0  0  0  0  0  0  0  0  0  0
   21.7482    0.3605   53.1258 O   0  0  0  0  0  0  0  0  0  0  0  0
   22.6469    0.0009   50.9678 O   0  0  0  0  0  0  0  0  0  0  0  0
   19.4185   -1.2729   49.5238 O   0  0  0  0  0  0  0  0  0  0  0  0
   22.7937   -1.2154   48.4282 O   0  0  0  0  0  0  0  0  0  0  0  0
   18.9770   -3.1595   48.2297 O   0  0  0  0  0  0  0  0  0  0  0  0
   19.3030   -3.9942   47.1055 C   0  0  2  0  0  0  0  0  0  0  0  0
   19.4732   -3.1342   45.8299 C   0  0  1  0  0  0  0  0  0  0  0  0
   18.1303   -2.4718   45.3942 C   0  0  2  0  0  0  0  0  0  0  0  0
   17.0671   -3.5813   45.1416 C   0  0  1  0  0  0  0  0  0  0  0  0
   16.8869   -4.3665   46.5069 C   0  0  1  0  0  0  0  0  0  0  0  0
   15.8731   -5.5006   46.3844 C   0  0  0  0  0  0  0  0  0  0  0  0
   15.7823   -2.9504   44.7247 N   0  0  0  0  0  0  0  0  0  0  0  0
   18.2087   -4.9766   46.8915 O   0  0  0  0  0  0  0  0  0  0  0  0
   20.4922   -2.1549   46.1081 O   0  0  0  0  0  0  0  0  0  0  0  0
   18.3564   -1.7481   44.2028 O   0  0  0  0  0  0  0  0  0  0  0  0
   15.7674   -6.1677   47.6143 O   0  0  0  0  0  0  0  0  0  0  0  0
   21.6377    1.2334   54.2310 C   0  0  1  0  0  0  0  0  0  0  0  0
   20.8792    0.4812   55.3714 C   0  0  1  0  0  0  0  0  0  0  0  0
   20.7225    1.4430   56.5852 C   0  0  2  0  0  0  0  0  0  0  0  0
   22.1164    1.9204   57.0978 C   0  0  1  0  0  0  0  0  0  0  0  0
   22.8938    2.6710   55.9501 C   0  0  0  0  0  0  0  0  0  0  0  0
   23.0567    1.6863   54.7188 C   0  0  2  0  0  0  0  0  0  0  0  0
   21.9397    2.8423   58.2539 N   0  0  0  0  0  0  0  0  0  0  0  0
   23.7907    2.3974   53.6479 N   0  0  0  0  0  0  0  0  0  0  0  0
   19.5733    0.0756   54.9208 O   0  0  0  0  0  0  0  0  0  0  0  0
   20.0388    0.7348   57.6059 O   0  0  0  0  0  0  0  0  0  0  0  0
  1  2  1  0  0  0  0
  1 12  1  1  0  0  0
  1 13  1  0  0  0  0
  2  3  1  0  0  0  0
  2 10  1  1  0  0  0
  4  3  1  1  0  0  0
  4  5  1  0  0  0  0
  4 14  1  0  0  0  0
  5  6  1  0  0  0  0
  5 13  1  6  0  0  0
  6  7  1  0  0  0  0
  6 15  1  6  0  0  0
  7  8  1  0  0  0  0
  7 11  1  6  0  0  0
  8 14  1  0  0  0  0
  8 16  1  1  0  0  0
  9 11  1  0  0  0  0
 17 16  1  1  0  0  0
 17 18  1  0  0  0  0
 17 24  1  0  0  0  0
 18 19  1  0  0  0  0
 18 25  1  1  0  0  0
 19 20  1  0  0  0  0
 19 26  1  6  0  0  0
 20 21  1  0  0  0  0
 20 23  1  1  0  0  0
 21 22  1  6  0  0  0
 21 24  1  0  0  0  0
 22 27  1  0  0  0  0
 28 12  1  6  0  0  0
 28 29  1  0  0  0  0
 28 33  1  0  0  0  0
 29 30  1  0  0  0  0
 29 36  1  6  0  0  0
 30 31  1  0  0  0  0
 30 37  1  1  0  0  0
 31 32  1  0  0  0  0
 31 34  1  1  0  0  0
 32 33  1  0  0  0  0
 33 35  1  6  0  0  0
M  END
>  <CHROM.1>
-77.05003852,83.26524384,-68.17197636,-63.02185132,179.29065221,164.01246574
20.26120427,-1.18465153,50.37551335,-1.21710923,-0.40755743,-1.96555963

>  <Name>
2oe8_lig

>  <RI>
0

>  <Rbt.Current_Directory>
/home/itssahil/PROJECTS/Mol_Feturizer/New_Systems/rnas/2oe8

>  <Rbt.Executable>
rbdock ($Id: //depot/dev/client3/rdock/2013.1/src/exe/rbdock.cxx#4 $)

>  <Rbt.Library>
libRbt.so (2013.1, Build901 2013/11/27)

>  <Rbt.Parameter_File>
/export/apps/rDock/src/rDock_2013.1_src/data/scripts/dock_solv.prm

>  <Rbt.Receptor>
prm/pocket_docking_8.prm

>  <SCORE>
-20.9887

>  <SCORE.INTER>
-20.2852

>  <SCORE.INTER.CONST>
1

>  <SCORE.INTER.POLAR>
-2.82768

>  <SCORE.INTER.ROT>
6

>  <SCORE.INTER.SOLV>
13.8899

>  <SCORE.INTER.VDW>
-16.3278

>  <SCORE.INTER.norm>
-0.548248

>  <SCORE.INTRA>
-0.703516

>  <SCORE.INTRA.DIHEDRAL>
-13.0531

>  <SCORE.INTRA.DIHEDRAL.0>
16.4056

>  <SCORE.INTRA.POLAR>
0

>  <SCORE.INTRA.POLAR.0>
0

>  <SCORE.INTRA.REPUL>
0

>  <SCORE.INTRA.REPUL.0>
0

>  <SCORE.INTRA.SOLV>
2.7297

>  <SCORE.INTRA.SOLV.lig_0>
-90.9627

>  <SCORE.INTRA.VDW>
4.45816

>  <SCORE.INTRA.VDW.0>
-3.28744

>  <SCORE.INTRA.norm>
-0.0190139

>  <SCORE.RESTR>
0

>  <SCORE.RESTR.CAVITY>
0

>  <SCORE.RESTR.norm>
0

>  <SCORE.SYSTEM>
0

>  <SCORE.SYSTEM.CONST>
0

>  <SCORE.SYSTEM.DIHEDRAL>
0

>  <SCORE.SYSTEM.SOLV>
0

>  <SCORE.SYSTEM.norm>
0

>  <SCORE.heavy>
37

>  <SCORE.norm>
-0.567262

>  <RMSD>
3.181

$$$$
2oe8_lig
 OpenBabel11021811463D
libRbt.so/2013.1/901 2013/11/27
 37 40  0  0  0  0  0  0  0  0999 V2000
   20.1584    0.5937   53.6302 C   0  0  1  0  0  0  0  0  0  0  0  0
   19.9263    1.5091   52.3685 C   0  0  1  0  0  0  0  0  0  0  0  0
   18.8408    0.8774   51.4722 C   0  0  0  0  0  0  0  0  0  0  0  0
   19.3819   -0.5279   51.0620 C   0  0  1  0  0  0  0  0  0  0  0  0
   19.6442   -1.4703   52.3462 C   0  0  1  0  0  0  0  0  0  0  0  0
   20.2023   -2.8677   51.9468 C   0  0  1  0  0  0  0  0  0  0  0  0
   19.1518   -3.5321   50.9660 C   0  0  1  0  0  0  0  0  0  0  0  0
   18.8975   -2.5599   49.7618 C   0  0  2  0  0  0  0  0  0  0  0  0
   20.9766   -5.0190   49.8018 C   0  0  0  0  0  0  0  0  0  0  0  0
   19.4975    2.8814   52.7872 N   0  0  0  0  0  0  0  0  0  0  0  0
   19.6351   -4.8955   50.4792 N   0  0  0  0  0  0  0  0  0  0  0  0
   18.9715    0.4763   54.4248 O   0  0  0  0  0  0  0  0  0  0  0  0
   20.5861   -0.7819   53.2399 O   0  0  0  0  0  0  0  0  0  0  0  0
   18.4318   -1.2078   50.1890 O   0  0  0  0  0  0  0  0  0  0  0  0
   21.4691   -2.6516   51.3228 O   0  0  0  0  0  0  0  0  0  0  0  0
   17.9355   -3.1094   48.9374 O   0  0  0  0  0  0  0  0  0  0  0  0
   18.4557   -4.1052   48.0405 C   0  0  2  0  0  0  0  0  0  0  0  0
   19.1126   -3.4305   46.8121 C   0  0  1  0  0  0  0  0  0  0  0  0
   18.0644   -2.6824   45.9324 C   0  0  2  0  0  0  0  0  0  0  0  0
   16.9766   -3.6909   45.4583 C   0  0  1  0  0  0  0  0  0  0  0  0
   16.2944   -4.2799   46.7625 C   0  0  1  0  0  0  0  0  0  0  0  0
   15.2116   -5.3022   46.4290 C   0  0  0  0  0  0  0  0  0  0  0  0
   15.9734   -2.9781   44.6168 N   0  0  0  0  0  0  0  0  0  0  0  0
   17.3450   -4.9802   47.5830 O   0  0  0  0  0  0  0  0  0  0  0  0
   20.1328   -2.5425   47.3076 O   0  0  0  0  0  0  0  0  0  0  0  0
   18.7303   -2.1380   44.8123 O   0  0  0  0  0  0  0  0  0  0  0  0
   14.3033   -4.7406   45.5187 O   0  0  0  0  0  0  0  0  0  0  0  0
   19.1709    0.7828   55.7894 C   0  0  1  0  0  0  0  0  0  0  0  0
   20.2568   -0.1893   56.3529 C   0  0  1  0  0  0  0  0  0  0  0  0
   20.4640    0.1166   57.8649 C   0  0  2  0  0  0  0  0  0  0  0  0
   20.9132    1.5957   58.0748 C   0  0  1  0  0  0  0  0  0  0  0  0
   19.8285    2.5840   57.4990 C   0  0  0  0  0  0  0  0  0  0  0  0
   19.6251    2.2734   55.9581 C   0  0  2  0  0  0  0  0  0  0  0  0
   21.0992    1.8648   59.5276 N   0  0  0  0  0  0  0  0  0  0  0  0
   18.6084    3.2078   55.4249 N   0  0  0  0  0  0  0  0  0  0  0  0
   19.8305   -1.5564   56.2035 O   0  0  0  0  0  0  0  0  0  0  0  0
   21.4570   -0.7728   58.3485 O   0  0  0  0  0  0  0  0  0  0  0  0
  1  2  1  0  0  0  0
  1 12  1  6  0  0  0
  1 13  1  0  0  0  0
  2  3  1  0  0  0  0
  2 10  1  1  0  0  0
  4  3  1  1  0  0  0
  4  5  1  0  0  0  0
  4 14  1  0  0  0  0
  5  6  1  0  0  0  0
  5 13  1  1  0  0  0
  6  7  1  0  0  0  0
  6 15  1  6  0  0  0
  7  8  1  0  0  0  0
  7 11  1  6  0  0  0
  8 14  1  0  0  0  0
  8 16  1  6  0  0  0
  9 11  1  0  0  0  0
 17 16  1  1  0  0  0
 17 18  1  0  0  0  0
 17 24  1  0  0  0  0
 18 19  1  0  0  0  0
 18 25  1  1  0  0  0
 19 20  1  0  0  0  0
 19 26  1  6  0  0  0
 20 21  1  0  0  0  0
 20 23  1  6  0  0  0
 21 22  1  6  0  0  0
 21 24  1  0  0  0  0
 22 27  1  0  0  0  0
 28 12  1  6  0  0  0
 28 29  1  0  0  0  0
 28 33  1  0  0  0  0
 29 30  1  0  0  0  0
 29 36  1  1  0  0  0
 30 31  1  0  0  0  0
 30 37  1  6  0  0  0
 31 32  1  0  0  0  0
 31 34  1  1  0  0  0
 32 33  1  0  0  0  0
 33 35  1  1  0  0  0
M  END
>  <CHROM.1>
-127.64506552,-55.46696832,-80.89260907,-81.13703231,-52.80721345,-58.91768073
19.06589728,-1.48091362,51.44520153,1.00944599,-1.08518035,0.61250765

>  <Name>
2oe8_lig

>  <RI>
0

>  <Rbt.Current_Directory>
/home/itssahil/PROJECTS/Mol_Feturizer/New_Systems/rnas/2oe8

>  <Rbt.Executable>
rbdock ($Id: //depot/dev/client3/rdock/2013.1/src/exe/rbdock.cxx#4 $)

>  <Rbt.Library>
libRbt.so (2013.1, Build901 2013/11/27)

>  <Rbt.Parameter_File>
/export/apps/rDock/src/rDock_2013.1_src/data/scripts/dock_solv.prm

>  <Rbt.Receptor>
prm/pocket_docking_4.prm

>  <SCORE>
-28.0366

>  <SCORE.INTER>
-30.657

>  <SCORE.INTER.CONST>
1

>  <SCORE.INTER.POLAR>
-4.04287

>  <SCORE.INTER.ROT>
6

>  <SCORE.INTER.SOLV>
17.7936

>  <SCORE.INTER.VDW>
-20.493

>  <SCORE.INTER.norm>
-0.828567

>  <SCORE.INTRA>
2.61833

>  <SCORE.INTRA.DIHEDRAL>
-5.35069

>  <SCORE.INTRA.DIHEDRAL.0>
16.4056

>  <SCORE.INTRA.POLAR>
0

>  <SCORE.INTRA.POLAR.0>
0

>  <SCORE.INTRA.REPUL>
0

>  <SCORE.INTRA.REPUL.0>
0

>  <SCORE.INTRA.SOLV>
3.25694

>  <SCORE.INTRA.SOLV.lig_0>
-90.9627

>  <SCORE.INTRA.VDW>
3.66521

>  <SCORE.INTRA.VDW.0>
-3.28744

>  <SCORE.INTRA.norm>
0.0707657

>  <SCORE.RESTR>
0.0020621

>  <SCORE.RESTR.CAVITY>
0.0020621

>  <SCORE.RESTR.norm>
5.57326e-05

>  <SCORE.SYSTEM>
0

>  <SCORE.SYSTEM.CONST>
0

>  <SCORE.SYSTEM.DIHEDRAL>
0

>  <SCORE.SYSTEM.SOLV>
0

>  <SCORE.SYSTEM.norm>
0

>  <SCORE.heavy>
37

>  <SCORE.norm>
-0.757745

>  <RMSD>
3.195

$$$$
2oe8_lig
 OpenBabel11021811463D
libRbt.so/2013.1/901 2013/11/27
 37 40  0  0  0  0  0  0  0  0999 V2000
   20.0007    0.7634   53.6174 C   0  0  1  0  0  0  0  0  0  0  0  0
   19.6470    1.6699   52.3778 C   0  0  1  0  0  0  0  0  0  0  0  0
   18.5657    0.9720   51.5268 C   0  0  0  0  0  0  0  0  0  0  0  0
   19.1811   -0.3898   51.0768 C   0  0  1  0  0  0  0  0  0  0  0  0
   19.5679   -1.3215   52.3372 C   0  0  1  0  0  0  0  0  0  0  0  0
   20.2003   -2.6744   51.8972 C   0  0  1  0  0  0  0  0  0  0  0  0
   19.1520   -3.4019   50.9599 C   0  0  1  0  0  0  0  0  0  0  0  0
   18.7751   -2.4407   49.7793 C   0  0  2  0  0  0  0  0  0  0  0  0
   19.0873   -6.0262   50.8859 C   0  0  0  0  0  0  0  0  0  0  0  0
   19.1461    3.0065   52.8307 N   0  0  0  0  0  0  0  0  0  0  0  0
   19.7034   -4.7254   50.4365 N   0  0  0  0  0  0  0  0  0  0  0  0
   18.8637    0.5590   54.4656 O   0  0  0  0  0  0  0  0  0  0  0  0
   20.5020   -0.5767   53.1929 O   0  0  0  0  0  0  0  0  0  0  0  0
   18.2391   -1.1268   50.2422 O   0  0  0  0  0  0  0  0  0  0  0  0
   21.4183   -2.3673   51.2168 O   0  0  0  0  0  0  0  0  0  0  0  0
   17.8146   -3.0488   48.9952 O   0  0  0  0  0  0  0  0  0  0  0  0
   18.3521   -4.0387   48.1019 C   0  0  2  0  0  0  0  0  0  0  0  0
   19.0166   -3.3563   46.8818 C   0  0  1  0  0  0  0  0  0  0  0  0
   17.9719   -2.6148   45.9925 C   0  0  2  0  0  0  0  0  0  0  0  0
   16.8971   -3.6308   45.5051 C   0  0  1  0  0  0  0  0  0  0  0  0
   16.2059   -4.2277   46.8008 C   0  0  1  0  0  0  0  0  0  0  0  0
   15.1347   -5.2578   46.4540 C   0  0  0  0  0  0  0  0  0  0  0  0
   15.8973   -2.9242   44.6543 N   0  0  0  0  0  0  0  0  0  0  0  0
   17.2532   -4.9214   47.6310 O   0  0  0  0  0  0  0  0  0  0  0  0
   20.0245   -2.4613   47.3898 O   0  0  0  0  0  0  0  0  0  0  0  0
   18.6452   -2.0629   44.8805 O   0  0  0  0  0  0  0  0  0  0  0  0
   15.7262   -6.3395   45.7838 O   0  0  0  0  0  0  0  0  0  0  0  0
   19.1194    0.8249   55.8293 C   0  0  1  0  0  0  0  0  0  0  0  0
   20.2450   -0.1456   56.3117 C   0  0  1  0  0  0  0  0  0  0  0  0
   20.5151    0.1151   57.8223 C   0  0  2  0  0  0  0  0  0  0  0  0
   20.9494    1.5944   58.0605 C   0  0  1  0  0  0  0  0  0  0  0  0
   19.8241    2.5815   57.5664 C   0  0  0  0  0  0  0  0  0  0  0  0
   19.5566    2.3170   56.0267 C   0  0  2  0  0  0  0  0  0  0  0  0
   21.1962    1.8198   59.5117 N   0  0  0  0  0  0  0  0  0  0  0  0
   18.5020    3.2502   55.5703 N   0  0  0  0  0  0  0  0  0  0  0  0
   19.8344   -1.5145   56.1365 O   0  0  0  0  0  0  0  0  0  0  0  0
   21.5431   -0.7718   58.2317 O   0  0  0  0  0  0  0  0  0  0  0  0
  1  2  1  0  0  0  0
  1 12  1  1  0  0  0
  1 13  1  0  0  0  0
  2  3  1  0  0  0  0
  2 10  1  1  0  0  0
  4  3  1  1  0  0  0
  4  5  1  0  0  0  0
  4 14  1  0  0  0  0
  5  6  1  0  0  0  0
  5 13  1  1  0  0  0
  6  7  1  0  0  0  0
  6 15  1  6  0  0  0
  7  8  1  0  0  0  0
  7 11  1  6  0  0  0
  8 14  1  0  0  0  0
  8 16  1  6  0  0  0
  9 11  1  0  0  0  0
 17 16  1  1  0  0  0
 17 18  1  0  0  0  0
 17 24  1  0  0  0  0
 18 19  1  0  0  0  0
 18 25  1  1  0  0  0
 19 20  1  0  0  0  0
 19 26  1  6  0  0  0
 20 21  1  0  0  0  0
 20 23  1  6  0  0  0
 21 22  1  6  0  0  0
 21 24  1  0  0  0  0
 22 27  1  0  0  0  0
 28 12  1  6  0  0  0
 28 29  1  0  0  0  0
 28 33  1  0  0  0  0
 29 30  1  0  0  0  0
 29 36  1  1  0  0  0
 30 31  1  0  0  0  0
 30 37  1  6  0  0  0
 31 32  1  0  0  0  0
 31 34  1  1  0  0  0
 32 33  1  0  0  0  0
 33 35  1  1  0  0  0
M  END
>  <CHROM.1>
-129.67574551,112.55614179,-78.53356158,-77.76748245,62.13703516,-60.77244180
18.97951010,-1.47860517,51.49940604,0.72367630,-1.23930013,0.27674173

>  <Name>
2oe8_lig

>  <RI>
0

>  <Rbt.Current_Directory>
/home/itssahil/PROJECTS/Mol_Feturizer/New_Systems/rnas/2oe8

>  <Rbt.Executable>
rbdock ($Id: //depot/dev/client3/rdock/2013.1/src/exe/rbdock.cxx#4 $)

>  <Rbt.Library>
libRbt.so (2013.1, Build901 2013/11/27)

>  <Rbt.Parameter_File>
/export/apps/rDock/src/rDock_2013.1_src/data/scripts/dock_solv.prm

>  <Rbt.Receptor>
prm/pocket_docking_6.prm

>  <SCORE>
-31.9291

>  <SCORE.INTER>
-32.3979

>  <SCORE.INTER.CONST>
1

>  <SCORE.INTER.POLAR>
-3.85378

>  <SCORE.INTER.ROT>
6

>  <SCORE.INTER.SOLV>
18.6227

>  <SCORE.INTER.VDW>
-22.5602

>  <SCORE.INTER.norm>
-0.875618

>  <SCORE.INTRA>
0.468768

>  <SCORE.INTRA.DIHEDRAL>
-5.46876

>  <SCORE.INTRA.DIHEDRAL.0>
16.4056

>  <SCORE.INTRA.POLAR>
0

>  <SCORE.INTRA.POLAR.0>
0

>  <SCORE.INTRA.REPUL>
0

>  <SCORE.INTRA.REPUL.0>
0

>  <SCORE.INTRA.SOLV>
2.46586

>  <SCORE.INTRA.SOLV.lig_0>
-90.9627

>  <SCORE.INTRA.VDW>
1.97022

>  <SCORE.INTRA.VDW.0>
-3.28744

>  <SCORE.INTRA.norm>
0.0126694

>  <SCORE.RESTR>
0

>  <SCORE.RESTR.CAVITY>
0

>  <SCORE.RESTR.norm>
0

>  <SCORE.SYSTEM>
0

>  <SCORE.SYSTEM.CONST>
0

>  <SCORE.SYSTEM.DIHEDRAL>
0

>  <SCORE.SYSTEM.SOLV>
0

>  <SCORE.SYSTEM.norm>
0

>  <SCORE.heavy>
37

>  <SCORE.norm>
-0.862948

>  <RMSD>
3.235

$$$$
2oe8_lig
 OpenBabel11021811463D
libRbt.so/2013.1/901 2013/11/27
 37 40  0  0  0  0  0  0  0  0999 V2000
   20.6565    0.1271   53.1985 C   0  0  1  0  0  0  0  0  0  0  0  0
   20.7219    0.9722   51.8699 C   0  0  1  0  0  0  0  0  0  0  0  0
   19.5671    0.5489   50.9383 C   0  0  0  0  0  0  0  0  0  0  0  0
   19.7749   -0.9717   50.6545 C   0  0  1  0  0  0  0  0  0  0  0  0
   19.7311   -1.8484   52.0093 C   0  0  1  0  0  0  0  0  0  0  0  0
   19.9567   -3.3646   51.7370 C   0  0  1  0  0  0  0  0  0  0  0  0
   18.8326   -3.8342   50.7258 C   0  0  1  0  0  0  0  0  0  0  0  0
   18.8870   -2.9245   49.4493 C   0  0  2  0  0  0  0  0  0  0  0  0
   17.7990   -6.1148   49.9339 C   0  0  0  0  0  0  0  0  0  0  0  0
   20.6145    2.4348   52.1722 N   0  0  0  0  0  0  0  0  0  0  0  0
   18.9988   -5.3064   50.3590 N   0  0  0  0  0  0  0  0  0  0  0  0
   19.4345    0.3551   53.9116 O   0  0  0  0  0  0  0  0  0  0  0  0
   20.7605   -1.3364   52.9245 O   0  0  0  0  0  0  0  0  0  0  0  0
   18.7384   -1.4719   49.7587 O   0  0  0  0  0  0  0  0  0  0  0  0
   21.2706   -3.5029   51.1935 O   0  0  0  0  0  0  0  0  0  0  0  0
   17.8677   -3.2919   48.5932 O   0  0  0  0  0  0  0  0  0  0  0  0
   18.2776   -4.2411   47.5942 C   0  0  2  0  0  0  0  0  0  0  0  0
   18.9970   -3.5181   46.4300 C   0  0  1  0  0  0  0  0  0  0  0  0
   18.0297   -2.5808   45.6440 C   0  0  2  0  0  0  0  0  0  0  0  0
   16.8406   -3.4182   45.0873 C   0  0  1  0  0  0  0  0  0  0  0  0
   16.1053   -4.0614   46.3359 C   0  0  1  0  0  0  0  0  0  0  0  0
   14.9202   -4.9271   45.9176 C   0  0  0  0  0  0  0  0  0  0  0  0
   15.9144   -2.5243   44.3352 N   0  0  0  0  0  0  0  0  0  0  0  0
   17.0798   -4.9458   47.0677 O   0  0  0  0  0  0  0  0  0  0  0  0
   20.1063   -2.7950   46.9970 O   0  0  0  0  0  0  0  0  0  0  0  0
   18.7447   -1.9986   44.5744 O   0  0  0  0  0  0  0  0  0  0  0  0
   14.4408   -5.6327   47.0318 O   0  0  0  0  0  0  0  0  0  0  0  0
   19.6265    0.7081   55.2660 C   0  0  1  0  0  0  0  0  0  0  0  0
   18.3150    1.3814   55.7841 C   0  0  1  0  0  0  0  0  0  0  0  0
   18.5237    1.8043   57.2675 C   0  0  2  0  0  0  0  0  0  0  0  0
   18.8729    0.5680   58.1525 C   0  0  1  0  0  0  0  0  0  0  0  0
   20.1891   -0.1247   57.6303 C   0  0  0  0  0  0  0  0  0  0  0  0
   19.9702   -0.5592   56.1218 C   0  0  2  0  0  0  0  0  0  0  0  0
   19.0729    0.9988   59.5639 N   0  0  0  0  0  0  0  0  0  0  0  0
   21.2088   -1.2118   55.6408 N   0  0  0  0  0  0  0  0  0  0  0  0
   18.0091    2.5498   55.0003 O   0  0  0  0  0  0  0  0  0  0  0  0
   17.3192    2.4048   57.7139 O   0  0  0  0  0  0  0  0  0  0  0  0
  1  2  1  0  0  0  0
  1 12  1  6  0  0  0
  1 13  1  0  0  0  0
  2  3  1  0  0  0  0
  2 10  1  1  0  0  0
  4  3  1  1  0  0  0
  4  5  1  0  0  0  0
  4 14  1  0  0  0  0
  5  6  1  0  0  0  0
  5 13  1  1  0  0  0
  6  7  1  0  0  0  0
  6 15  1  6  0  0  0
  7  8  1  0  0  0  0
  7 11  1  6  0  0  0
  8 14  1  0  0  0  0
  8 16  1  6  0  0  0
  9 11  1  0  0  0  0
 17 16  1  1  0  0  0
 17 18  1  0  0  0  0
 17 24  1  0  0  0  0
 18 19  1  0  0  0  0
 18 25  1  1  0  0  0
 19 20  1  0  0  0  0
 19 26  1  6  0  0  0
 20 21  1  0  0  0  0
 20 23  1  1  0  0  0
 21 22  1  6  0  0  0
 21 24  1  0  0  0  0
 22 27  1  0  0  0  0
 28 12  1  6  0  0  0
 28 29  1  0  0  0  0
 28 33  1  0  0  0  0
 29 30  1  0  0  0  0
 29 36  1  6  0  0  0
 30 31  1  0  0  0  0
 30 37  1  1  0  0  0
 31 32  1  0  0  0  0
 31 34  1  1  0  0  0
 32 33  1  0  0  0  0
 33 35  1  6  0  0  0
M  END
>  <CHROM.1>
-127.68988569,153.54525206,-94.21893530,-80.75847768,170.81307445,161.24513319
18.74367650,-1.68491994,51.16494055,-0.89455613,-1.27343890,-1.37047054

>  <Name>
2oe8_lig

>  <RI>
0

>  <Rbt.Current_Directory>
/home/itssahil/PROJECTS/Mol_Feturizer/New_Systems/rnas/2oe8

>  <Rbt.Executable>
rbdock ($Id: //depot/dev/client3/rdock/2013.1/src/exe/rbdock.cxx#4 $)

>  <Rbt.Library>
libRbt.so (2013.1, Build901 2013/11/27)

>  <Rbt.Parameter_File>
/export/apps/rDock/src/rDock_2013.1_src/data/scripts/dock_solv.prm

>  <Rbt.Receptor>
prm/pocket_docking_6.prm

>  <SCORE>
-28.228

>  <SCORE.INTER>
-29.3173

>  <SCORE.INTER.CONST>
1

>  <SCORE.INTER.POLAR>
-3.63713

>  <SCORE.INTER.ROT>
6

>  <SCORE.INTER.SOLV>
20.5628

>  <SCORE.INTER.VDW>
-21.8754

>  <SCORE.INTER.norm>
-0.79236

>  <SCORE.INTRA>
1.08933

>  <SCORE.INTRA.DIHEDRAL>
-0.819934

>  <SCORE.INTRA.DIHEDRAL.0>
16.4056

>  <SCORE.INTRA.POLAR>
0

>  <SCORE.INTRA.POLAR.0>
0

>  <SCORE.INTRA.REPUL>
0

>  <SCORE.INTRA.REPUL.0>
0

>  <SCORE.INTRA.SOLV>
0.0578632

>  <SCORE.INTRA.SOLV.lig_0>
-90.9627

>  <SCORE.INTRA.VDW>
1.47037

>  <SCORE.INTRA.VDW.0>
-3.28744

>  <SCORE.INTRA.norm>
0.0294414

>  <SCORE.RESTR>
0

>  <SCORE.RESTR.CAVITY>
0

>  <SCORE.RESTR.norm>
0

>  <SCORE.SYSTEM>
0

>  <SCORE.SYSTEM.CONST>
0

>  <SCORE.SYSTEM.DIHEDRAL>
0

>  <SCORE.SYSTEM.SOLV>
0

>  <SCORE.SYSTEM.norm>
0

>  <SCORE.heavy>
37

>  <SCORE.norm>
-0.762918

>  <RMSD>
3.235

$$$$
2oe8_lig
 OpenBabel11021811463D
libRbt.so/2013.1/901 2013/11/27
 37 40  0  0  0  0  0  0  0  0999 V2000
   19.9340    0.6642   53.5736 C   0  0  1  0  0  0  0  0  0  0  0  0
   19.6311    1.5751   52.3238 C   0  0  1  0  0  0  0  0  0  0  0  0
   18.5828    0.8819   51.4288 C   0  0  0  0  0  0  0  0  0  0  0  0
   19.2129   -0.4799   50.9993 C   0  0  1  0  0  0  0  0  0  0  0  0
   19.5479   -1.4160   52.2711 C   0  0  1  0  0  0  0  0  0  0  0  0
   20.1945   -2.7690   51.8523 C   0  0  1  0  0  0  0  0  0  0  0  0
   19.1825   -3.4916   50.8722 C   0  0  1  0  0  0  0  0  0  0  0  0
   18.8542   -2.5261   49.6806 C   0  0  2  0  0  0  0  0  0  0  0  0
   19.2449   -6.1162   50.9352 C   0  0  0  0  0  0  0  0  0  0  0  0
   19.1154    2.9113   52.7606 N   0  0  0  0  0  0  0  0  0  0  0  0
   19.7515   -4.8146   50.3669 N   0  0  0  0  0  0  0  0  0  0  0  0
   18.7641    0.4596   54.3758 O   0  0  0  0  0  0  0  0  0  0  0  0
   20.4491   -0.6757   53.1651 O   0  0  0  0  0  0  0  0  0  0  0  0
   18.3030   -1.2125   50.1260 O   0  0  0  0  0  0  0  0  0  0  0  0
   21.4389   -2.4624   51.2212 O   0  0  0  0  0  0  0  0  0  0  0  0
   17.9242   -3.1299   48.8575 O   0  0  0  0  0  0  0  0  0  0  0  0
   18.4975   -4.1039   47.9690 C   0  0  2  0  0  0  0  0  0  0  0  0
   19.2041   -3.4003   46.7852 C   0  0  1  0  0  0  0  0  0  0  0  0
   18.1903   -2.6477   45.8699 C   0  0  2  0  0  0  0  0  0  0  0  0
   17.1376   -3.6589   45.3272 C   0  0  1  0  0  0  0  0  0  0  0  0
   16.4013   -4.2784   46.5870 C   0  0  1  0  0  0  0  0  0  0  0  0
   15.3471   -5.3059   46.1847 C   0  0  0  0  0  0  0  0  0  0  0  0
   16.1673   -2.9417   44.4515 N   0  0  0  0  0  0  0  0  0  0  0  0
   17.4198   -4.9822   47.4441 O   0  0  0  0  0  0  0  0  0  0  0  0
   20.1895   -2.5107   47.3440 O   0  0  0  0  0  0  0  0  0  0  0  0
   18.9021   -2.0762   44.7923 O   0  0  0  0  0  0  0  0  0  0  0  0
   14.7785   -5.8679   47.3379 O   0  0  0  0  0  0  0  0  0  0  0  0
   18.9357    0.8225   55.7303 C   0  0  1  0  0  0  0  0  0  0  0  0
   20.1028   -0.0334   56.3193 C   0  0  1  0  0  0  0  0  0  0  0  0
   20.2821    0.3339   57.8212 C   0  0  2  0  0  0  0  0  0  0  0  0
   20.5994    1.8523   57.9866 C   0  0  1  0  0  0  0  0  0  0  0  0
   19.4320    2.7240   57.3848 C   0  0  0  0  0  0  0  0  0  0  0  0
   19.2569    2.3515   55.8542 C   0  0  2  0  0  0  0  0  0  0  0  0
   20.7609    2.1793   59.4304 N   0  0  0  0  0  0  0  0  0  0  0  0
   18.1620    3.1769   55.2964 N   0  0  0  0  0  0  0  0  0  0  0  0
   19.7984   -1.4365   56.2111 O   0  0  0  0  0  0  0  0  0  0  0  0
   21.3495   -0.4501   58.3282 O   0  0  0  0  0  0  0  0  0  0  0  0
  1  2  1  0  0  0  0
  1 12  1  6  0  0  0
  1 13  1  0  0  0  0
  2  3  1  0  0  0  0
  2 10  1  1  0  0  0
  4  3  1  1  0  0  0
  4  5  1  0  0  0  0
  4 14  1  0  0  0  0
  5  6  1  0  0  0  0
  5 13  1  1  0  0  0
  6  7  1  0  0  0  0
  6 15  1  6  0  0  0
  7  8  1  0  0  0  0
  7 11  1  6  0  0  0
  8 14  1  0  0  0  0
  8 16  1  6  0  0  0
  9 11  1  0  0  0  0
 17 16  1  1  0  0  0
 17 18  1  0  0  0  0
 17 24  1  0  0  0  0
 18 19  1  0  0  0  0
 18 25  1  1  0  0  0
 19 20  1  0  0  0  0
 19 26  1  6  0  0  0
 20 21  1  0  0  0  0
 20 23  1  6  0  0  0
 21 22  1  6  0  0  0
 21 24  1  0  0  0  0
 22 27  1  0  0  0  0
 28 12  1  6  0  0  0
 28 29  1  0  0  0  0
 28 33  1  0  0  0  0
 29 30  1  0  0  0  0
 29 36  1  1  0  0  0
 30 31  1  0  0  0  0
 30 37  1  6  0  0  0
 31 32  1  0  0  0  0
 31 34  1  1  0  0  0
 32 33  1  0  0  0  0
 33 35  1  1  0  0  0
M  END
>  <CHROM.1>
-124.90741302,103.95754279,-79.41612070,-77.41556240,177.01252086,-59.22660676
18.94528366,-1.47621071,51.46053944,0.73424808,-1.27552326,0.27382268

>  <Name>
2oe8_lig

>  <RI>
0

>  <Rbt.Current_Directory>
/home/itssahil/PROJECTS/Mol_Feturizer/New_Systems/rnas/2oe8

>  <Rbt.Executable>
rbdock ($Id: //depot/dev/client3/rdock/2013.1/src/exe/rbdock.cxx#4 $)

>  <Rbt.Library>
libRbt.so (2013.1, Build901 2013/11/27)

>  <Rbt.Parameter_File>
/export/apps/rDock/src/rDock_2013.1_src/data/scripts/dock_solv.prm

>  <Rbt.Receptor>
prm/pocket_docking_5.prm

>  <SCORE>
-30.6341

>  <SCORE.INTER>
-31.1918

>  <SCORE.INTER.CONST>
1

>  <SCORE.INTER.POLAR>
-3.82133

>  <SCORE.INTER.ROT>
6

>  <SCORE.INTER.SOLV>
18.6599

>  <SCORE.INTER.VDW>
-21.8767

>  <SCORE.INTER.norm>
-0.843021

>  <SCORE.INTRA>
0.557671

>  <SCORE.INTRA.DIHEDRAL>
-5.18989

>  <SCORE.INTRA.DIHEDRAL.0>
16.4056

>  <SCORE.INTRA.POLAR>
0

>  <SCORE.INTRA.POLAR.0>
0

>  <SCORE.INTRA.REPUL>
0

>  <SCORE.INTRA.REPUL.0>
0

>  <SCORE.INTRA.SOLV>
2.09358

>  <SCORE.INTRA.SOLV.lig_0>
-90.9627

>  <SCORE.INTRA.VDW>
2.10582

>  <SCORE.INTRA.VDW.0>
-3.28744

>  <SCORE.INTRA.norm>
0.0150722

>  <SCORE.RESTR>
0

>  <SCORE.RESTR.CAVITY>
0

>  <SCORE.RESTR.norm>
0

>  <SCORE.SYSTEM>
0

>  <SCORE.SYSTEM.CONST>
0

>  <SCORE.SYSTEM.DIHEDRAL>
0

>  <SCORE.SYSTEM.SOLV>
0

>  <SCORE.SYSTEM.norm>
0

>  <SCORE.heavy>
37

>  <SCORE.norm>
-0.827949

>  <RMSD>
3.288

$$$$
2oe8_lig
 OpenBabel11021811463D
libRbt.so/2013.1/901 2013/11/27
 37 40  0  0  0  0  0  0  0  0999 V2000
   20.0148    3.4777   53.8438 C   0  0  1  0  0  0  0  0  0  0  0  0
   18.7053    3.3579   52.9752 C   0  0  1  0  0  0  0  0  0  0  0  0
   18.4080    1.8687   52.7023 C   0  0  0  0  0  0  0  0  0  0  0  0
   19.6495    1.3126   51.9371 C   0  0  1  0  0  0  0  0  0  0  0  0
   21.0028    1.4475   52.8068 C   0  0  1  0  0  0  0  0  0  0  0  0
   22.2494    0.9124   52.0429 C   0  0  1  0  0  0  0  0  0  0  0  0
   21.9639   -0.6013   51.6768 C   0  0  1  0  0  0  0  0  0  0  0  0
   20.6189   -0.6836   50.8742 C   0  0  2  0  0  0  0  0  0  0  0  0
   24.4031   -1.5693   51.5780 C   0  0  0  0  0  0  0  0  0  0  0  0
   17.5444    3.9807   53.6870 N   0  0  0  0  0  0  0  0  0  0  0  0
   23.1173   -1.2045   50.8798 N   0  0  0  0  0  0  0  0  0  0  0  0
   19.8660    2.8373   55.1173 O   0  0  0  0  0  0  0  0  0  0  0  0
   21.1883    2.8628   53.1564 O   0  0  0  0  0  0  0  0  0  0  0  0
   19.4609   -0.0962   51.6102 O   0  0  0  0  0  0  0  0  0  0  0  0
   22.4154    1.7310   50.8840 O   0  0  0  0  0  0  0  0  0  0  0  0
   20.3362   -2.0088   50.6078 O   0  0  0  0  0  0  0  0  0  0  0  0
   19.2603   -2.1840   49.6704 C   0  0  2  0  0  0  0  0  0  0  0  0
   18.6482   -3.5983   49.8141 C   0  0  1  0  0  0  0  0  0  0  0  0
   19.6578   -4.7118   49.3981 C   0  0  2  0  0  0  0  0  0  0  0  0
   20.1020   -4.4792   47.9237 C   0  0  1  0  0  0  0  0  0  0  0  0
   20.7892   -3.0516   47.8691 C   0  0  1  0  0  0  0  0  0  0  0  0
   21.2577   -2.6965   46.4608 C   0  0  0  0  0  0  0  0  0  0  0  0
   21.0672   -5.5426   47.5235 N   0  0  0  0  0  0  0  0  0  0  0  0
   19.7819   -2.0142   48.2892 O   0  0  0  0  0  0  0  0  0  0  0  0
   18.2211   -3.7416   51.1823 O   0  0  0  0  0  0  0  0  0  0  0  0
   19.0124   -5.9629   49.5098 O   0  0  0  0  0  0  0  0  0  0  0  0
   20.1536   -2.6637   45.5954 O   0  0  0  0  0  0  0  0  0  0  0  0
   18.9284    3.4704   55.9634 C   0  0  1  0  0  0  0  0  0  0  0  0
   18.3829    2.4053   56.9682 C   0  0  1  0  0  0  0  0  0  0  0  0
   17.3245    3.0824   57.8871 C   0  0  2  0  0  0  0  0  0  0  0  0
   17.9520    4.2784   58.6677 C   0  0  1  0  0  0  0  0  0  0  0  0
   18.5153    5.3532   57.6616 C   0  0  0  0  0  0  0  0  0  0  0  0
   19.5970    4.6614   56.7323 C   0  0  2  0  0  0  0  0  0  0  0  0
   16.9197    4.9120   59.5341 N   0  0  0  0  0  0  0  0  0  0  0  0
   20.1232    5.6781   55.7938 N   0  0  0  0  0  0  0  0  0  0  0  0
   17.7620    1.3182   56.2569 O   0  0  0  0  0  0  0  0  0  0  0  0
   16.8518    2.0979   58.7916 O   0  0  0  0  0  0  0  0  0  0  0  0
  1  2  1  0  0  0  0
  1 12  1  1  0  0  0
  1 13  1  0  0  0  0
  2  3  1  0  0  0  0
  2 10  1  1  0  0  0
  4  3  1  1  0  0  0
  4  5  1  0  0  0  0
  4 14  1  0  0  0  0
  5  6  1  0  0  0  0
  5 13  1  6  0  0  0
  6  7  1  0  0  0  0
  6 15  1  6  0  0  0
  7  8  1  0  0  0  0
  7 11  1  6  0  0  0
  8 14  1  0  0  0  0
  8 16  1  1  0  0  0
  9 11  1  0  0  0  0
 17 16  1  1  0  0  0
 17 18  1  0  0  0  0
 17 24  1  0  0  0  0
 18 19  1  0  0  0  0
 18 25  1  1  0  0  0
 19 20  1  0  0  0  0
 19 26  1  6  0  0  0
 20 21  1  0  0  0  0
 20 23  1  1  0  0  0
 21 22  1  6  0  0  0
 21 24  1  0  0  0  0
 22 27  1  0  0  0  0
 28 12  1  6  0  0  0
 28 29  1  0  0  0  0
 28 33  1  0  0  0  0
 29 30  1  0  0  0  0
 29 36  1  6  0  0  0
 30 31  1  0  0  0  0
 30 37  1  1  0  0  0
 31 32  1  0  0  0  0
 31 34  1  1  0  0  0
 32 33  1  0  0  0  0
 33 35  1  6  0  0  0
M  END
>  <CHROM.1>
-66.79185002,74.93622586,-169.23156334,-158.72863309,61.03689615,154.74260083
19.76584118,0.33872316,52.50156513,-1.80666794,-0.68592084,-2.43506845

>  <Name>
2oe8_lig

>  <RI>
0

>  <Rbt.Current_Directory>
/home/itssahil/PROJECTS/Mol_Feturizer/New_Systems/rnas/2oe8

>  <Rbt.Executable>
rbdock ($Id: //depot/dev/client3/rdock/2013.1/src/exe/rbdock.cxx#4 $)

>  <Rbt.Library>
libRbt.so (2013.1, Build901 2013/11/27)

>  <Rbt.Parameter_File>
/export/apps/rDock/src/rDock_2013.1_src/data/scripts/dock_solv.prm

>  <Rbt.Receptor>
prm/pocket_docking_6.prm

>  <SCORE>
-20.832

>  <SCORE.INTER>
-17.3121

>  <SCORE.INTER.CONST>
1

>  <SCORE.INTER.POLAR>
-1.76286

>  <SCORE.INTER.ROT>
6

>  <SCORE.INTER.SOLV>
11.4962

>  <SCORE.INTER.VDW>
-17.0973

>  <SCORE.INTER.norm>
-0.467895

>  <SCORE.INTRA>
-3.51982

>  <SCORE.INTRA.DIHEDRAL>
-10.6563

>  <SCORE.INTRA.DIHEDRAL.0>
16.4056

>  <SCORE.INTRA.POLAR>
0

>  <SCORE.INTRA.POLAR.0>
0

>  <SCORE.INTRA.REPUL>
0

>  <SCORE.INTRA.REPUL.0>
0

>  <SCORE.INTRA.SOLV>
1.83261

>  <SCORE.INTRA.SOLV.lig_0>
-90.9627

>  <SCORE.INTRA.VDW>
0.89204

>  <SCORE.INTRA.VDW.0>
-3.28744

>  <SCORE.INTRA.norm>
-0.0951303

>  <SCORE.RESTR>
0

>  <SCORE.RESTR.CAVITY>
0

>  <SCORE.RESTR.norm>
0

>  <SCORE.SYSTEM>
0

>  <SCORE.SYSTEM.CONST>
0

>  <SCORE.SYSTEM.DIHEDRAL>
0

>  <SCORE.SYSTEM.SOLV>
0

>  <SCORE.SYSTEM.norm>
0

>  <SCORE.heavy>
37

>  <SCORE.norm>
-0.563026

>  <RMSD>
3.293

$$$$
2oe8_lig
 OpenBabel11021811463D
libRbt.so/2013.1/901 2013/11/27
 37 40  0  0  0  0  0  0  0  0999 V2000
   20.0413    0.6765   53.6318 C   0  0  1  0  0  0  0  0  0  0  0  0
   19.7362    1.5894   52.3840 C   0  0  1  0  0  0  0  0  0  0  0  0
   18.6587    0.9152   51.5093 C   0  0  0  0  0  0  0  0  0  0  0  0
   19.2530   -0.4608   51.0742 C   0  0  1  0  0  0  0  0  0  0  0  0
   19.5901   -1.3995   52.3435 C   0  0  1  0  0  0  0  0  0  0  0  0
   20.2013   -2.7669   51.9188 C   0  0  1  0  0  0  0  0  0  0  0  0
   19.1581   -3.4716   50.9586 C   0  0  1  0  0  0  0  0  0  0  0  0
   18.8297   -2.5034   49.7692 C   0  0  2  0  0  0  0  0  0  0  0  0
   19.1051   -6.0972   50.9665 C   0  0  0  0  0  0  0  0  0  0  0  0
   19.2558    2.9375   52.8246 N   0  0  0  0  0  0  0  0  0  0  0  0
   19.6909   -4.8078   50.4486 N   0  0  0  0  0  0  0  0  0  0  0  0
   18.8812    0.4989   54.4544 O   0  0  0  0  0  0  0  0  0  0  0  0
   20.5215   -0.6752   53.2195 O   0  0  0  0  0  0  0  0  0  0  0  0
   18.3135   -1.1772   50.2191 O   0  0  0  0  0  0  0  0  0  0  0  0
   21.4409   -2.4884   51.2657 O   0  0  0  0  0  0  0  0  0  0  0  0
   17.8735   -3.0905   48.9642 O   0  0  0  0  0  0  0  0  0  0  0  0
   18.4131   -4.0707   48.0615 C   0  0  2  0  0  0  0  0  0  0  0  0
   19.0559   -3.3761   46.8367 C   0  0  1  0  0  0  0  0  0  0  0  0
   17.9927   -2.6442   45.9615 C   0  0  2  0  0  0  0  0  0  0  0  0
   16.9250   -3.6716   45.4822 C   0  0  1  0  0  0  0  0  0  0  0  0
   16.2552   -4.2813   46.7833 C   0  0  1  0  0  0  0  0  0  0  0  0
   15.1929   -5.3232   46.4444 C   0  0  0  0  0  0  0  0  0  0  0  0
   15.9074   -2.9743   44.6449 N   0  0  0  0  0  0  0  0  0  0  0  0
   17.3200   -4.9651   47.5995 O   0  0  0  0  0  0  0  0  0  0  0  0
   20.0584   -2.4707   47.3368 O   0  0  0  0  0  0  0  0  0  0  0  0
   18.6470   -2.0804   44.8442 O   0  0  0  0  0  0  0  0  0  0  0  0
   14.1087   -4.6962   45.8116 O   0  0  0  0  0  0  0  0  0  0  0  0
   19.0988    0.8101   55.8151 C   0  0  1  0  0  0  0  0  0  0  0  0
   20.2181   -0.1357   56.3576 C   0  0  1  0  0  0  0  0  0  0  0  0
   20.4462    0.1751   57.8657 C   0  0  2  0  0  0  0  0  0  0  0  0
   20.8636    1.6645   58.0678 C   0  0  1  0  0  0  0  0  0  0  0  0
   19.7448    2.6265   57.5131 C   0  0  0  0  0  0  0  0  0  0  0  0
   19.5201    2.3111   55.9761 C   0  0  2  0  0  0  0  0  0  0  0  0
   21.0703    1.9379   59.5171 N   0  0  0  0  0  0  0  0  0  0  0  0
   18.4714    3.2209   55.4626 N   0  0  0  0  0  0  0  0  0  0  0  0
   19.8220   -1.5127   56.2156 O   0  0  0  0  0  0  0  0  0  0  0  0
   21.4692   -0.6902   58.3301 O   0  0  0  0  0  0  0  0  0  0  0  0
  1  2  1  0  0  0  0
  1 12  1  6  0  0  0
  1 13  1  0  0  0  0
  2  3  1  0  0  0  0
  2 10  1  1  0  0  0
  4  3  1  1  0  0  0
  4  5  1  0  0  0  0
  4 14  1  0  0  0  0
  5  6  1  0  0  0  0
  5 13  1  1  0  0  0
  6  7  1  0  0  0  0
  6 15  1  6  0  0  0
  7  8  1  0  0  0  0
  7 11  1  6  0  0  0
  8 14  1  0  0  0  0
  8 16  1  6  0  0  0
  9 11  1  0  0  0  0
 17 16  1  1  0  0  0
 17 18  1  0  0  0  0
 17 24  1  0  0  0  0
 18 19  1  0  0  0  0
 18 25  1  1  0  0  0
 19 20  1  0  0  0  0
 19 26  1  6  0  0  0
 20 21  1  0  0  0  0
 20 23  1  6  0  0  0
 21 22  1  6  0  0  0
 21 24  1  0  0  0  0
 22 27  1  0  0  0  0
 28 12  1  6  0  0  0
 28 29  1  0  0  0  0
 28 33  1  0  0  0  0
 29 30  1  0  0  0  0
 29 36  1  1  0  0  0
 30 31  1  0  0  0  0
 30 37  1  6  0  0  0
 31 32  1  0  0  0  0
 31 34  1  1  0  0  0
 32 33  1  0  0  0  0
 33 35  1  1  0  0  0
M  END
>  <CHROM.1>
-127.37739587,107.85280201,-79.93046382,-79.67837820,-67.09633223,-60.36742103
18.94374803,-1.46136237,51.49738322,0.81618132,-1.19059408,0.39356770

>  <Name>
2oe8_lig

>  <RI>
0

>  <Rbt.Current_Directory>
/home/itssahil/PROJECTS/Mol_Feturizer/New_Systems/rnas/2oe8

>  <Rbt.Executable>
rbdock ($Id: //depot/dev/client3/rdock/2013.1/src/exe/rbdock.cxx#4 $)

>  <Rbt.Library>
libRbt.so (2013.1, Build901 2013/11/27)

>  <Rbt.Parameter_File>
/export/apps/rDock/src/rDock_2013.1_src/data/scripts/dock_solv.prm

>  <Rbt.Receptor>
prm/pocket_docking_5.prm

>  <SCORE>
-31.461

>  <SCORE.INTER>
-32.4731

>  <SCORE.INTER.CONST>
1

>  <SCORE.INTER.POLAR>
-3.9144

>  <SCORE.INTER.ROT>
6

>  <SCORE.INTER.SOLV>
18.726

>  <SCORE.INTER.VDW>
-22.4427

>  <SCORE.INTER.norm>
-0.87765

>  <SCORE.INTRA>
1.0121

>  <SCORE.INTRA.DIHEDRAL>
-4.67323

>  <SCORE.INTRA.DIHEDRAL.0>
16.4056

>  <SCORE.INTRA.POLAR>
0

>  <SCORE.INTRA.POLAR.0>
0

>  <SCORE.INTRA.REPUL>
0

>  <SCORE.INTRA.REPUL.0>
0

>  <SCORE.INTRA.SOLV>
2.90476

>  <SCORE.INTRA.SOLV.lig_0>
-90.9627

>  <SCORE.INTRA.VDW>
1.89634

>  <SCORE.INTRA.VDW.0>
-3.28744

>  <SCORE.INTRA.norm>
0.0273541

>  <SCORE.RESTR>
0

>  <SCORE.RESTR.CAVITY>
0

>  <SCORE.RESTR.norm>
0

>  <SCORE.SYSTEM>
0

>  <SCORE.SYSTEM.CONST>
0

>  <SCORE.SYSTEM.DIHEDRAL>
0

>  <SCORE.SYSTEM.SOLV>
0

>  <SCORE.SYSTEM.norm>
0

>  <SCORE.heavy>
37

>  <SCORE.norm>
-0.850296

>  <RMSD>
3.294

$$$$
2oe8_lig
 OpenBabel11021811463D
libRbt.so/2013.1/901 2013/11/27
 37 40  0  0  0  0  0  0  0  0999 V2000
   20.6006   -0.4239   52.9621 C   0  0  1  0  0  0  0  0  0  0  0  0
   21.2094    0.3452   51.7286 C   0  0  1  0  0  0  0  0  0  0  0  0
   20.2654    0.1961   50.5173 C   0  0  0  0  0  0  0  0  0  0  0  0
   20.1609   -1.3355   50.2359 C   0  0  1  0  0  0  0  0  0  0  0  0
   19.5577   -2.1399   51.4989 C   0  0  1  0  0  0  0  0  0  0  0  0
   19.4680   -3.6713   51.2333 C   0  0  1  0  0  0  0  0  0  0  0  0
   18.5617   -3.8749   49.9511 C   0  0  1  0  0  0  0  0  0  0  0  0
   19.1627   -3.0392   48.7677 C   0  0  2  0  0  0  0  0  0  0  0  0
   17.1389   -5.9062   49.0872 C   0  0  0  0  0  0  0  0  0  0  0  0
   21.3889    1.7964   52.0513 N   0  0  0  0  0  0  0  0  0  0  0  0
   18.4513   -5.3514   49.5807 N   0  0  0  0  0  0  0  0  0  0  0  0
   19.3306    0.1161   53.3486 O   0  0  0  0  0  0  0  0  0  0  0  0
   20.4105   -1.8743   52.6659 O   0  0  0  0  0  0  0  0  0  0  0  0
   19.2994   -1.5874   49.0863 O   0  0  0  0  0  0  0  0  0  0  0  0
   20.8022   -4.1428   51.0375 O   0  0  0  0  0  0  0  0  0  0  0  0
   18.3395   -3.1656   47.6661 O   0  0  0  0  0  0  0  0  0  0  0  0
   19.0107   -2.9068   46.4213 C   0  0  2  0  0  0  0  0  0  0  0  0
   18.0960   -3.2818   45.2304 C   0  0  1  0  0  0  0  0  0  0  0  0
   17.8256   -4.8164   45.1681 C   0  0  2  0  0  0  0  0  0  0  0  0
   19.1812   -5.5735   45.0478 C   0  0  1  0  0  0  0  0  0  0  0  0
   20.0300   -5.2065   46.3355 C   0  0  1  0  0  0  0  0  0  0  0  0
   21.3994   -5.8798   46.3282 C   0  0  0  0  0  0  0  0  0  0  0  0
   18.9253   -7.0410   44.9879 N   0  0  0  0  0  0  0  0  0  0  0  0
   20.2544   -3.7176   46.3579 O   0  0  0  0  0  0  0  0  0  0  0  0
   16.8785   -2.5251   45.3724 O   0  0  0  0  0  0  0  0  0  0  0  0
   17.0285   -5.0827   44.0332 O   0  0  0  0  0  0  0  0  0  0  0  0
   21.2412   -7.2624   46.5089 O   0  0  0  0  0  0  0  0  0  0  0  0
   19.4269    1.3130   54.0927 C   0  0  1  0  0  0  0  0  0  0  0  0
   18.1994    2.2102   53.7323 C   0  0  1  0  0  0  0  0  0  0  0  0
   18.3094    3.5470   54.5222 C   0  0  2  0  0  0  0  0  0  0  0  0
   18.3419    3.2817   56.0591 C   0  0  1  0  0  0  0  0  0  0  0  0
   19.5711    2.3676   56.4308 C   0  0  0  0  0  0  0  0  0  0  0  0
   19.4520    1.0054   55.6294 C   0  0  2  0  0  0  0  0  0  0  0  0
   18.4528    4.5736   56.7915 N   0  0  0  0  0  0  0  0  0  0  0  0
   20.6075    0.1521   55.9871 N   0  0  0  0  0  0  0  0  0  0  0  0
   18.1864    2.4971   52.3214 O   0  0  0  0  0  0  0  0  0  0  0  0
   17.1822    4.3377   54.1828 O   0  0  0  0  0  0  0  0  0  0  0  0
  1  2  1  0  0  0  0
  1 12  1  6  0  0  0
  1 13  1  0  0  0  0
  2  3  1  0  0  0  0
  2 10  1  1  0  0  0
  4  3  1  1  0  0  0
  4  5  1  0  0  0  0
  4 14  1  0  0  0  0
  5  6  1  0  0  0  0
  5 13  1  1  0  0  0
  6  7  1  0  0  0  0
  6 15  1  6  0  0  0
  7  8  1  0  0  0  0
  7 11  1  6  0  0  0
  8 14  1  0  0  0  0
  8 16  1  6  0  0  0
  9 11  1  0  0  0  0
 17 16  1  1  0  0  0
 17 18  1  0  0  0  0
 17 24  1  0  0  0  0
 18 19  1  0  0  0  0
 18 25  1  1  0  0  0
 19 20  1  0  0  0  0
 19 26  1  6  0  0  0
 20 21  1  0  0  0  0
 20 23  1  1  0  0  0
 21 22  1  6  0  0  0
 21 24  1  0  0  0  0
 22 27  1  0  0  0  0
 28 12  1  6  0  0  0
 28 29  1  0  0  0  0
 28 33  1  0  0  0  0
 29 30  1  0  0  0  0
 29 36  1  6  0  0  0
 30 31  1  0  0  0  0
 30 37  1  1  0  0  0
 31 32  1  0  0  0  0
 31 34  1  1  0  0  0
 32 33  1  0  0  0  0
 33 35  1  6  0  0  0
M  END
>  <CHROM.1>
-78.09024235,141.22787261,-157.00418666,171.10456351,-69.33583736,146.43829307
19.22320294,-1.70817698,50.30001798,-1.55221037,0.93807388,-2.29648363

>  <Name>
2oe8_lig

>  <RI>
0

>  <Rbt.Current_Directory>
/home/itssahil/PROJECTS/Mol_Feturizer/New_Systems/rnas/2oe8

>  <Rbt.Executable>
rbdock ($Id: //depot/dev/client3/rdock/2013.1/src/exe/rbdock.cxx#4 $)

>  <Rbt.Library>
libRbt.so (2013.1, Build901 2013/11/27)

>  <Rbt.Parameter_File>
/export/apps/rDock/src/rDock_2013.1_src/data/scripts/dock_solv.prm

>  <Rbt.Receptor>
prm/pocket_docking_5.prm

>  <SCORE>
-19.229

>  <SCORE.INTER>
-16.2439

>  <SCORE.INTER.CONST>
1

>  <SCORE.INTER.POLAR>
-0.959747

>  <SCORE.INTER.ROT>
6

>  <SCORE.INTER.SOLV>
12.8547

>  <SCORE.INTER.VDW>
-19.515

>  <SCORE.INTER.norm>
-0.439025

>  <SCORE.INTRA>
-2.98506

>  <SCORE.INTRA.DIHEDRAL>
-6.74082

>  <SCORE.INTRA.DIHEDRAL.0>
16.4056

>  <SCORE.INTRA.POLAR>
0

>  <SCORE.INTRA.POLAR.0>
0

>  <SCORE.INTRA.REPUL>
0

>  <SCORE.INTRA.REPUL.0>
0

>  <SCORE.INTRA.SOLV>
1.63394

>  <SCORE.INTRA.SOLV.lig_0>
-90.9627

>  <SCORE.INTRA.VDW>
-0.431618

>  <SCORE.INTRA.VDW.0>
-3.28744

>  <SCORE.INTRA.norm>
-0.0806773

>  <SCORE.RESTR>
0

>  <SCORE.RESTR.CAVITY>
0

>  <SCORE.RESTR.norm>
0

>  <SCORE.SYSTEM>
0

>  <SCORE.SYSTEM.CONST>
0

>  <SCORE.SYSTEM.DIHEDRAL>
0

>  <SCORE.SYSTEM.SOLV>
0

>  <SCORE.SYSTEM.norm>
0

>  <SCORE.heavy>
37

>  <SCORE.norm>
-0.519702

>  <RMSD>
3.307

$$$$
2oe8_lig
 OpenBabel11021811463D
libRbt.so/2013.1/901 2013/11/27
 37 40  0  0  0  0  0  0  0  0999 V2000
   19.7259    3.7179   54.3595 C   0  0  1  0  0  0  0  0  0  0  0  0
   18.5379    3.5808   53.3332 C   0  0  1  0  0  0  0  0  0  0  0  0
   18.2363    2.0860   53.0979 C   0  0  0  0  0  0  0  0  0  0  0  0
   19.5504    1.4631   52.5314 C   0  0  1  0  0  0  0  0  0  0  0  0
   20.7822    1.6145   53.5639 C   0  0  1  0  0  0  0  0  0  0  0  0
   22.1019    1.0125   52.9983 C   0  0  1  0  0  0  0  0  0  0  0  0
   21.8234   -0.5119   52.6736 C   0  0  1  0  0  0  0  0  0  0  0  0
   20.5927   -0.6073   51.7060 C   0  0  2  0  0  0  0  0  0  0  0  0
   23.1916   -2.6823   52.1133 C   0  0  0  0  0  0  0  0  0  0  0  0
   17.3123    4.2656   53.8540 N   0  0  0  0  0  0  0  0  0  0  0  0
   23.0532   -1.1815   52.0663 N   0  0  0  0  0  0  0  0  0  0  0  0
   19.3942    3.1494   55.6326 O   0  0  0  0  0  0  0  0  0  0  0  0
   20.9609    3.0419   53.8640 O   0  0  0  0  0  0  0  0  0  0  0  0
   19.3659    0.0434   52.2530 O   0  0  0  0  0  0  0  0  0  0  0  0
   22.4409    1.7647   51.8320 O   0  0  0  0  0  0  0  0  0  0  0  0
   20.3094   -1.9383   51.4709 O   0  0  0  0  0  0  0  0  0  0  0  0
   19.4831   -2.1486   50.3134 C   0  0  2  0  0  0  0  0  0  0  0  0
   19.0471   -3.6312   50.2274 C   0  0  1  0  0  0  0  0  0  0  0  0
   20.2591   -4.5775   49.9671 C   0  0  2  0  0  0  0  0  0  0  0  0
   20.9633   -4.1596   48.6425 C   0  0  1  0  0  0  0  0  0  0  0  0
   21.4519   -2.6634   48.8324 C   0  0  1  0  0  0  0  0  0  0  0  0
   22.1500   -2.1277   47.5856 C   0  0  0  0  0  0  0  0  0  0  0  0
   22.1223   -5.0630   48.3913 N   0  0  0  0  0  0  0  0  0  0  0  0
   20.2514   -1.7924   49.0922 O   0  0  0  0  0  0  0  0  0  0  0  0
   18.3695   -3.9490   51.4582 O   0  0  0  0  0  0  0  0  0  0  0  0
   19.7757   -5.8995   49.8535 O   0  0  0  0  0  0  0  0  0  0  0  0
   21.2592   -2.1584   46.5018 O   0  0  0  0  0  0  0  0  0  0  0  0
   20.3336    3.4432   56.6460 C   0  0  1  0  0  0  0  0  0  0  0  0
   20.1212    4.9259   57.0914 C   0  0  1  0  0  0  0  0  0  0  0  0
   21.1714    5.2731   58.1866 C   0  0  2  0  0  0  0  0  0  0  0  0
   21.0264    4.3223   59.4149 C   0  0  1  0  0  0  0  0  0  0  0  0
   21.2281    2.8227   58.9730 C   0  0  0  0  0  0  0  0  0  0  0  0
   20.1530    2.4715   57.8625 C   0  0  2  0  0  0  0  0  0  0  0  0
   22.0441    4.6706   60.4448 N   0  0  0  0  0  0  0  0  0  0  0  0
   20.3469    1.0613   57.4562 N   0  0  0  0  0  0  0  0  0  0  0  0
   20.2971    5.8145   55.9722 O   0  0  0  0  0  0  0  0  0  0  0  0
   20.9524    6.6186   58.5770 O   0  0  0  0  0  0  0  0  0  0  0  0
  1  2  1  0  0  0  0
  1 12  1  1  0  0  0
  1 13  1  0  0  0  0
  2  3  1  0  0  0  0
  2 10  1  1  0  0  0
  4  3  1  1  0  0  0
  4  5  1  0  0  0  0
  4 14  1  0  0  0  0
  5  6  1  0  0  0  0
  5 13  1  6  0  0  0
  6  7  1  0  0  0  0
  6 15  1  6  0  0  0
  7  8  1  0  0  0  0
  7 11  1  6  0  0  0
  8 14  1  0  0  0  0
  8 16  1  1  0  0  0
  9 11  1  0  0  0  0
 17 16  1  1  0  0  0
 17 18  1  0  0  0  0
 17 24  1  0  0  0  0
 18 19  1  0  0  0  0
 18 25  1  1  0  0  0
 19 20  1  0  0  0  0
 19 26  1  6  0  0  0
 20 21  1  0  0  0  0
 20 23  1  1  0  0  0
 21 22  1  6  0  0  0
 21 24  1  0  0  0  0
 22 27  1  0  0  0  0
 28 12  1  6  0  0  0
 28 29  1  0  0  0  0
 28 33  1  0  0  0  0
 29 30  1  0  0  0  0
 29 36  1  6  0  0  0
 30 31  1  0  0  0  0
 30 37  1  1  0  0  0
 31 32  1  0  0  0  0
 31 34  1  1  0  0  0
 32 33  1  0  0  0  0
 33 35  1  6  0  0  0
M  END
>  <CHROM.1>
-170.02215052,159.15452990,-162.43655459,-172.12936655,60.27747955,75.59528407
20.54482934,0.57668256,53.16914560,1.62235237,-1.10248308,0.85638836

>  <Name>
2oe8_lig

>  <RI>
0

>  <Rbt.Current_Directory>
/home/itssahil/PROJECTS/Mol_Feturizer/New_Systems/rnas/2oe8

>  <Rbt.Executable>
rbdock ($Id: //depot/dev/client3/rdock/2013.1/src/exe/rbdock.cxx#4 $)

>  <Rbt.Library>
libRbt.so (2013.1, Build901 2013/11/27)

>  <Rbt.Parameter_File>
/export/apps/rDock/src/rDock_2013.1_src/data/scripts/dock_solv.prm

>  <Rbt.Receptor>
prm/pocket_docking_7.prm

>  <SCORE>
-16.474

>  <SCORE.INTER>
-9.95152

>  <SCORE.INTER.CONST>
1

>  <SCORE.INTER.POLAR>
-0.954383

>  <SCORE.INTER.ROT>
6

>  <SCORE.INTER.SOLV>
12.3874

>  <SCORE.INTER.VDW>
-15.1822

>  <SCORE.INTER.norm>
-0.26896

>  <SCORE.INTRA>
-6.52245

>  <SCORE.INTRA.DIHEDRAL>
-12.6947

>  <SCORE.INTRA.DIHEDRAL.0>
16.4056

>  <SCORE.INTRA.POLAR>
0

>  <SCORE.INTRA.POLAR.0>
0

>  <SCORE.INTRA.REPUL>
0

>  <SCORE.INTRA.REPUL.0>
0

>  <SCORE.INTRA.SOLV>
-1.62771

>  <SCORE.INTRA.SOLV.lig_0>
-90.9627

>  <SCORE.INTRA.VDW>
0.638734

>  <SCORE.INTRA.VDW.0>
-3.28744

>  <SCORE.INTRA.norm>
-0.176282

>  <SCORE.RESTR>
0

>  <SCORE.RESTR.CAVITY>
0

>  <SCORE.RESTR.norm>
0

>  <SCORE.SYSTEM>
0

>  <SCORE.SYSTEM.CONST>
0

>  <SCORE.SYSTEM.DIHEDRAL>
0

>  <SCORE.SYSTEM.SOLV>
0

>  <SCORE.SYSTEM.norm>
0

>  <SCORE.heavy>
37

>  <SCORE.norm>
-0.445243

>  <RMSD>
3.327

$$$$
2oe8_lig
 OpenBabel11021811463D
libRbt.so/2013.1/901 2013/11/27
 37 40  0  0  0  0  0  0  0  0999 V2000
   20.2799    0.3150   53.4032 C   0  0  1  0  0  0  0  0  0  0  0  0
   20.1964    1.2029   52.1039 C   0  0  1  0  0  0  0  0  0  0  0  0
   19.0894    0.6535   51.1802 C   0  0  0  0  0  0  0  0  0  0  0  0
   19.4983   -0.8137   50.8397 C   0  0  1  0  0  0  0  0  0  0  0  0
   19.6081   -1.7308   52.1636 C   0  0  1  0  0  0  0  0  0  0  0  0
   20.0344   -3.1915   51.8344 C   0  0  1  0  0  0  0  0  0  0  0  0
   18.9621   -3.7801   50.8290 C   0  0  1  0  0  0  0  0  0  0  0  0
   18.8602   -2.8314   49.5842 C   0  0  2  0  0  0  0  0  0  0  0  0
   20.6607   -5.4831   49.7747 C   0  0  0  0  0  0  0  0  0  0  0  0
   19.8953    2.6261   52.4590 N   0  0  0  0  0  0  0  0  0  0  0  0
   19.3212   -5.2025   50.4080 N   0  0  0  0  0  0  0  0  0  0  0  0
   19.0553    0.3484   54.1470 O   0  0  0  0  0  0  0  0  0  0  0  0
   20.5784   -1.1104   53.0764 O   0  0  0  0  0  0  0  0  0  0  0  0
   18.5198   -1.4241   49.9469 O   0  0  0  0  0  0  0  0  0  0  0  0
   21.3415   -3.1288   51.2613 O   0  0  0  0  0  0  0  0  0  0  0  0
   17.8813   -3.3092   48.7354 O   0  0  0  0  0  0  0  0  0  0  0  0
   18.3726   -4.2654   47.7809 C   0  0  2  0  0  0  0  0  0  0  0  0
   19.0668   -3.5398   46.6030 C   0  0  1  0  0  0  0  0  0  0  0  0
   18.0564   -2.6981   45.7646 C   0  0  2  0  0  0  0  0  0  0  0  0
   16.9362   -3.6323   45.2191 C   0  0  1  0  0  0  0  0  0  0  0  0
   16.2193   -4.2761   46.4779 C   0  0  1  0  0  0  0  0  0  0  0  0
   15.1021   -5.2332   46.0718 C   0  0  0  0  0  0  0  0  0  0  0  0
   15.9691   -2.8299   44.4170 N   0  0  0  0  0  0  0  0  0  0  0  0
   17.2345   -5.0666   47.2602 O   0  0  0  0  0  0  0  0  0  0  0  0
   20.1147   -2.7246   47.1617 O   0  0  0  0  0  0  0  0  0  0  0  0
   18.7535   -2.1097   44.6865 O   0  0  0  0  0  0  0  0  0  0  0  0
   14.5754   -5.8494   47.2172 O   0  0  0  0  0  0  0  0  0  0  0  0
   19.2065    0.8329   55.4654 C   0  0  1  0  0  0  0  0  0  0  0  0
   20.2430   -0.0754   56.2018 C   0  0  1  0  0  0  0  0  0  0  0  0
   20.3959    0.4285   57.6666 C   0  0  2  0  0  0  0  0  0  0  0  0
   20.8742    1.9130   57.6951 C   0  0  1  0  0  0  0  0  0  0  0  0
   19.8399    2.8357   56.9444 C   0  0  0  0  0  0  0  0  0  0  0  0
   19.6918    2.3233   55.4519 C   0  0  2  0  0  0  0  0  0  0  0  0
   21.0074    2.3728   59.1053 N   0  0  0  0  0  0  0  0  0  0  0  0
   18.7223    3.1970   54.7535 N   0  0  0  0  0  0  0  0  0  0  0  0
   19.7879   -1.4413   56.2191 O   0  0  0  0  0  0  0  0  0  0  0  0
   21.3450   -0.4069   58.3087 O   0  0  0  0  0  0  0  0  0  0  0  0
  1  2  1  0  0  0  0
  1 12  1  6  0  0  0
  1 13  1  0  0  0  0
  2  3  1  0  0  0  0
  2 10  1  1  0  0  0
  4  3  1  1  0  0  0
  4  5  1  0  0  0  0
  4 14  1  0  0  0  0
  5  6  1  0  0  0  0
  5 13  1  1  0  0  0
  6  7  1  0  0  0  0
  6 15  1  6  0  0  0
  7  8  1  0  0  0  0
  7 11  1  6  0  0  0
  8 14  1  0  0  0  0
  8 16  1  6  0  0  0
  9 11  1  0  0  0  0
 17 16  1  1  0  0  0
 17 18  1  0  0  0  0
 17 24  1  0  0  0  0
 18 19  1  0  0  0  0
 18 25  1  1  0  0  0
 19 20  1  0  0  0  0
 19 26  1  6  0  0  0
 20 21  1  0  0  0  0
 20 23  1  1  0  0  0
 21 22  1  6  0  0  0
 21 24  1  0  0  0  0
 22 27  1  0  0  0  0
 28 12  1  6  0  0  0
 28 29  1  0  0  0  0
 28 33  1  0  0  0  0
 29 30  1  0  0  0  0
 29 36  1  1  0  0  0
 30 31  1  0  0  0  0
 30 37  1  1  0  0  0
 31 32  1  0  0  0  0
 31 34  1  1  0  0  0
 32 33  1  0  0  0  0
 33 35  1  6  0  0  0
M  END
>  <CHROM.1>
-120.62588969,-56.48486806,-88.27350646,-79.99767922,175.44646652,-58.06319598
19.05860098,-1.59068178,51.27070429,0.67301396,-1.24468925,0.21164293

>  <Name>
2oe8_lig

>  <RI>
0

>  <Rbt.Current_Directory>
/home/itssahil/PROJECTS/Mol_Feturizer/New_Systems/rnas/2oe8

>  <Rbt.Executable>
rbdock ($Id: //depot/dev/client3/rdock/2013.1/src/exe/rbdock.cxx#4 $)

>  <Rbt.Library>
libRbt.so (2013.1, Build901 2013/11/27)

>  <Rbt.Parameter_File>
/export/apps/rDock/src/rDock_2013.1_src/data/scripts/dock_solv.prm

>  <Rbt.Receptor>
prm/pocket_docking_5.prm

>  <SCORE>
-27.8301

>  <SCORE.INTER>
-30.2383

>  <SCORE.INTER.CONST>
1

>  <SCORE.INTER.POLAR>
-4.1094

>  <SCORE.INTER.ROT>
6

>  <SCORE.INTER.SOLV>
17.4911

>  <SCORE.INTER.VDW>
-19.8913

>  <SCORE.INTER.norm>
-0.817252

>  <SCORE.INTRA>
2.40824

>  <SCORE.INTRA.DIHEDRAL>
-4.04803

>  <SCORE.INTRA.DIHEDRAL.0>
16.4056

>  <SCORE.INTRA.POLAR>
0

>  <SCORE.INTRA.POLAR.0>
0

>  <SCORE.INTRA.REPUL>
0

>  <SCORE.INTRA.REPUL.0>
0

>  <SCORE.INTRA.SOLV>
2.48204

>  <SCORE.INTRA.SOLV.lig_0>
-90.9627

>  <SCORE.INTRA.VDW>
3.19123

>  <SCORE.INTRA.VDW.0>
-3.28744

>  <SCORE.INTRA.norm>
0.0650875

>  <SCORE.RESTR>
0

>  <SCORE.RESTR.CAVITY>
0

>  <SCORE.RESTR.norm>
0

>  <SCORE.SYSTEM>
0

>  <SCORE.SYSTEM.CONST>
0

>  <SCORE.SYSTEM.DIHEDRAL>
0

>  <SCORE.SYSTEM.SOLV>
0

>  <SCORE.SYSTEM.norm>
0

>  <SCORE.heavy>
37

>  <SCORE.norm>
-0.752164

>  <RMSD>
3.330

$$$$
2oe8_lig
 OpenBabel11021811463D
libRbt.so/2013.1/901 2013/11/27
 37 40  0  0  0  0  0  0  0  0999 V2000
   20.3823   -0.1129   52.9601 C   0  0  1  0  0  0  0  0  0  0  0  0
   21.2834    0.6210   51.8957 C   0  0  1  0  0  0  0  0  0  0  0  0
   20.5881    0.5744   50.5191 C   0  0  0  0  0  0  0  0  0  0  0  0
   20.4166   -0.9375   50.1716 C   0  0  1  0  0  0  0  0  0  0  0  0
   19.5124   -1.7076   51.2650 C   0  0  1  0  0  0  0  0  0  0  0  0
   19.3522   -3.2208   50.9360 C   0  0  1  0  0  0  0  0  0  0  0  0
   18.7033   -3.3238   49.4954 C   0  0  1  0  0  0  0  0  0  0  0  0
   19.5923   -2.5236   48.4808 C   0  0  2  0  0  0  0  0  0  0  0  0
   17.3202   -5.5560   49.4639 C   0  0  0  0  0  0  0  0  0  0  0  0
   21.5135    2.0456   52.2954 N   0  0  0  0  0  0  0  0  0  0  0  0
   18.5482   -4.7788   49.0615 N   0  0  0  0  0  0  0  0  0  0  0  0
   19.1094    0.5285   53.1089 O   0  0  0  0  0  0  0  0  0  0  0  0
   20.1367   -1.5363   52.5842 O   0  0  0  0  0  0  0  0  0  0  0  0
   19.7814   -1.0947   48.8682 O   0  0  0  0  0  0  0  0  0  0  0  0
   20.6558   -3.8027   50.9890 O   0  0  0  0  0  0  0  0  0  0  0  0
   18.9953   -2.5600   47.2360 O   0  0  0  0  0  0  0  0  0  0  0  0
   19.9383   -2.6546   46.1550 C   0  0  2  0  0  0  0  0  0  0  0  0
   19.1976   -2.8802   44.8148 C   0  0  1  0  0  0  0  0  0  0  0  0
   18.4812   -4.2649   44.7747 C   0  0  2  0  0  0  0  0  0  0  0  0
   19.5313   -5.3943   44.9908 C   0  0  1  0  0  0  0  0  0  0  0  0
   20.1898   -5.1458   46.4113 C   0  0  1  0  0  0  0  0  0  0  0  0
   21.2573   -6.1868   46.7364 C   0  0  0  0  0  0  0  0  0  0  0  0
   18.8488   -6.7192   44.9526 N   0  0  0  0  0  0  0  0  0  0  0  0
   20.8569   -3.7958   46.4051 O   0  0  0  0  0  0  0  0  0  0  0  0
   18.2718   -1.7891   44.6498 O   0  0  0  0  0  0  0  0  0  0  0  0
   17.8730   -4.4153   43.5090 O   0  0  0  0  0  0  0  0  0  0  0  0
   20.6692   -7.4600   46.7836 O   0  0  0  0  0  0  0  0  0  0  0  0
   19.0896    1.5216   54.1134 C   0  0  1  0  0  0  0  0  0  0  0  0
   17.9497    2.5349   53.7735 C   0  0  1  0  0  0  0  0  0  0  0  0
   17.9371    3.6532   54.8562 C   0  0  2  0  0  0  0  0  0  0  0  0
   17.7058    3.0482   56.2754 C   0  0  1  0  0  0  0  0  0  0  0  0
   18.8454    2.0159   56.6225 C   0  0  0  0  0  0  0  0  0  0  0  0
   18.8508    0.8759   55.5214 C   0  0  2  0  0  0  0  0  0  0  0  0
   17.7034    4.1358   57.2927 N   0  0  0  0  0  0  0  0  0  0  0  0
   19.9206   -0.0906   55.8570 N   0  0  0  0  0  0  0  0  0  0  0  0
   18.1790    3.1316   52.4833 O   0  0  0  0  0  0  0  0  0  0  0  0
   16.8914    4.5533   54.5283 O   0  0  0  0  0  0  0  0  0  0  0  0
  1  2  1  0  0  0  0
  1 12  1  6  0  0  0
  1 13  1  0  0  0  0
  2  3  1  0  0  0  0
  2 10  1  1  0  0  0
  4  3  1  1  0  0  0
  4  5  1  0  0  0  0
  4 14  1  0  0  0  0
  5  6  1  0  0  0  0
  5 13  1  1  0  0  0
  6  7  1  0  0  0  0
  6 15  1  6  0  0  0
  7  8  1  0  0  0  0
  7 11  1  6  0  0  0
  8 14  1  0  0  0  0
  8 16  1  6  0  0  0
  9 11  1  0  0  0  0
 17 16  1  1  0  0  0
 17 18  1  0  0  0  0
 17 24  1  0  0  0  0
 18 19  1  0  0  0  0
 18 25  1  1  0  0  0
 19 20  1  0  0  0  0
 19 26  1  6  0  0  0
 20 21  1  0  0  0  0
 20 23  1  1  0  0  0
 21 22  1  6  0  0  0
 21 24  1  0  0  0  0
 22 27  1  0  0  0  0
 28 12  1  6  0  0  0
 28 29  1  0  0  0  0
 28 33  1  0  0  0  0
 29 30  1  0  0  0  0
 29 36  1  6  0  0  0
 30 31  1  0  0  0  0
 30 37  1  6  0  0  0
 31 32  1  0  0  0  0
 31 34  1  1  0  0  0
 32 33  1  0  0  0  0
 33 35  1  1  0  0  0
M  END
>  <CHROM.1>
-90.85414423,86.02372087,-143.26694762,172.46855560,-61.97244224,155.27141819
19.29229030,-1.45057983,50.24190623,-1.77454073,1.24819570,-2.05329576

>  <Name>
2oe8_lig

>  <RI>
0

>  <Rbt.Current_Directory>
/home/itssahil/PROJECTS/Mol_Feturizer/New_Systems/rnas/2oe8

>  <Rbt.Executable>
rbdock ($Id: //depot/dev/client3/rdock/2013.1/src/exe/rbdock.cxx#4 $)

>  <Rbt.Library>
libRbt.so (2013.1, Build901 2013/11/27)

>  <Rbt.Parameter_File>
/export/apps/rDock/src/rDock_2013.1_src/data/scripts/dock_solv.prm

>  <Rbt.Receptor>
prm/pocket_docking_6.prm

>  <SCORE>
-20.3846

>  <SCORE.INTER>
-18.7766

>  <SCORE.INTER.CONST>
1

>  <SCORE.INTER.POLAR>
-1.2619

>  <SCORE.INTER.ROT>
6

>  <SCORE.INTER.SOLV>
14.2402

>  <SCORE.INTER.VDW>
-20.6581

>  <SCORE.INTER.norm>
-0.507475

>  <SCORE.INTRA>
-1.60803

>  <SCORE.INTRA.DIHEDRAL>
-4.42795

>  <SCORE.INTRA.DIHEDRAL.0>
16.4056

>  <SCORE.INTRA.POLAR>
0

>  <SCORE.INTRA.POLAR.0>
0

>  <SCORE.INTRA.REPUL>
0

>  <SCORE.INTRA.REPUL.0>
0

>  <SCORE.INTRA.SOLV>
1.75132

>  <SCORE.INTRA.SOLV.lig_0>
-90.9627

>  <SCORE.INTRA.VDW>
-0.269716

>  <SCORE.INTRA.VDW.0>
-3.28744

>  <SCORE.INTRA.norm>
-0.0434604

>  <SCORE.RESTR>
0

>  <SCORE.RESTR.CAVITY>
0

>  <SCORE.RESTR.norm>
0

>  <SCORE.SYSTEM>
0

>  <SCORE.SYSTEM.CONST>
0

>  <SCORE.SYSTEM.DIHEDRAL>
0

>  <SCORE.SYSTEM.SOLV>
0

>  <SCORE.SYSTEM.norm>
0

>  <SCORE.heavy>
37

>  <SCORE.norm>
-0.550935

>  <RMSD>
3.374

$$$$
2oe8_lig
 OpenBabel11021811463D
libRbt.so/2013.1/901 2013/11/27
 37 40  0  0  0  0  0  0  0  0999 V2000
   19.9110    1.9692   53.4040 C   0  0  1  0  0  0  0  0  0  0  0  0
   18.7007    1.1708   54.0213 C   0  0  1  0  0  0  0  0  0  0  0  0
   19.0073   -0.3406   53.9710 C   0  0  0  0  0  0  0  0  0  0  0  0
   19.2091   -0.6915   52.4637 C   0  0  1  0  0  0  0  0  0  0  0  0
   20.4332    0.1347   51.8119 C   0  0  1  0  0  0  0  0  0  0  0  0
   20.6292   -0.1955   50.3031 C   0  0  1  0  0  0  0  0  0  0  0  0
   20.8791   -1.7549   50.1905 C   0  0  1  0  0  0  0  0  0  0  0  0
   19.6878   -2.5099   50.8767 C   0  0  2  0  0  0  0  0  0  0  0  0
   22.3307   -1.9163   48.0080 C   0  0  0  0  0  0  0  0  0  0  0  0
   18.4640    1.5895   55.4393 N   0  0  0  0  0  0  0  0  0  0  0  0
   21.0373   -2.1858   48.7349 N   0  0  0  0  0  0  0  0  0  0  0  0
   21.1182    1.7591   54.1473 O   0  0  0  0  0  0  0  0  0  0  0  0
   20.1689    1.5693   51.9894 O   0  0  0  0  0  0  0  0  0  0  0  0
   19.4869   -2.1141   52.3017 O   0  0  0  0  0  0  0  0  0  0  0  0
   19.4409    0.2161   49.6252 O   0  0  0  0  0  0  0  0  0  0  0  0
   19.9341   -3.8681   50.8346 O   0  0  0  0  0  0  0  0  0  0  0  0
   18.7395   -4.6601   50.7231 C   0  0  2  0  0  0  0  0  0  0  0  0
   19.1002   -6.1388   50.4425 C   0  0  1  0  0  0  0  0  0  0  0  0
   19.7682   -6.3171   49.0446 C   0  0  2  0  0  0  0  0  0  0  0  0
   18.8014   -5.7939   47.9415 C   0  0  1  0  0  0  0  0  0  0  0  0
   18.5414   -4.2600   48.2462 C   0  0  1  0  0  0  0  0  0  0  0  0
   17.5873   -3.6304   47.2352 C   0  0  0  0  0  0  0  0  0  0  0  0
   19.4378   -5.9635   46.6040 N   0  0  0  0  0  0  0  0  0  0  0  0
   17.9085   -4.1383   49.6071 O   0  0  0  0  0  0  0  0  0  0  0  0
   19.9601   -6.5787   51.5111 O   0  0  0  0  0  0  0  0  0  0  0  0
   20.0212   -7.6919   48.8438 O   0  0  0  0  0  0  0  0  0  0  0  0
   17.3953   -2.2774   47.5538 O   0  0  0  0  0  0  0  0  0  0  0  0
   21.1342    2.4147   55.3986 C   0  0  1  0  0  0  0  0  0  0  0  0
   22.2662    1.7777   56.2673 C   0  0  1  0  0  0  0  0  0  0  0  0
   22.2744    2.4699   57.6615 C   0  0  2  0  0  0  0  0  0  0  0  0
   22.5140    4.0046   57.5171 C   0  0  1  0  0  0  0  0  0  0  0  0
   21.3826    4.6543   56.6325 C   0  0  0  0  0  0  0  0  0  0  0  0
   21.3817    3.9512   55.2120 C   0  0  2  0  0  0  0  0  0  0  0  0
   22.5121    4.6438   58.8621 N   0  0  0  0  0  0  0  0  0  0  0  0
   20.3196    4.5695   54.3870 N   0  0  0  0  0  0  0  0  0  0  0  0
   22.0289    0.3685   56.4430 O   0  0  0  0  0  0  0  0  0  0  0  0
   23.3128    1.8792   58.4254 O   0  0  0  0  0  0  0  0  0  0  0  0
  1  2  1  0  0  0  0
  1 12  1  1  0  0  0
  1 13  1  0  0  0  0
  2  3  1  0  0  0  0
  2 10  1  1  0  0  0
  4  3  1  1  0  0  0
  4  5  1  0  0  0  0
  4 14  1  0  0  0  0
  5  6  1  0  0  0  0
  5 13  1  6  0  0  0
  6  7  1  0  0  0  0
  6 15  1  6  0  0  0
  7  8  1  0  0  0  0
  7 11  1  6  0  0  0
  8 14  1  0  0  0  0
  8 16  1  1  0  0  0
  9 11  1  0  0  0  0
 17 16  1  6  0  0  0
 17 18  1  0  0  0  0
 17 24  1  0  0  0  0
 18 19  1  0  0  0  0
 18 25  1  1  0  0  0
 19 20  1  0  0  0  0
 19 26  1  6  0  0  0
 20 21  1  0  0  0  0
 20 23  1  6  0  0  0
 21 22  1  6  0  0  0
 21 24  1  0  0  0  0
 22 27  1  0  0  0  0
 28 12  1  6  0  0  0
 28 29  1  0  0  0  0
 28 33  1  0  0  0  0
 29 30  1  0  0  0  0
 29 36  1  1  0  0  0
 30 31  1  0  0  0  0
 30 37  1  1  0  0  0
 31 32  1  0  0  0  0
 31 34  1  1  0  0  0
 32 33  1  0  0  0  0
 33 35  1  6  0  0  0
M  END
>  <CHROM.1>
-72.83526057,76.63357493,-147.66542042,170.48071528,-179.99411948,163.20138743
20.18225694,-0.96083018,52.20720205,0.93741596,-1.21034368,0.17191766

>  <Name>
2oe8_lig

>  <RI>
0

>  <Rbt.Current_Directory>
/home/itssahil/PROJECTS/Mol_Feturizer/New_Systems/rnas/2oe8

>  <Rbt.Executable>
rbdock ($Id: //depot/dev/client3/rdock/2013.1/src/exe/rbdock.cxx#4 $)

>  <Rbt.Library>
libRbt.so (2013.1, Build901 2013/11/27)

>  <Rbt.Parameter_File>
/export/apps/rDock/src/rDock_2013.1_src/data/scripts/dock_solv.prm

>  <Rbt.Receptor>
prm/pocket_docking_5.prm

>  <SCORE>
-24.928

>  <SCORE.INTER>
-21.6317

>  <SCORE.INTER.CONST>
1

>  <SCORE.INTER.POLAR>
-2.57016

>  <SCORE.INTER.ROT>
6

>  <SCORE.INTER.SOLV>
14.9377

>  <SCORE.INTER.VDW>
-18.4331

>  <SCORE.INTER.norm>
-0.58464

>  <SCORE.INTRA>
-3.2963

>  <SCORE.INTRA.DIHEDRAL>
-9.6043

>  <SCORE.INTRA.DIHEDRAL.0>
16.4056

>  <SCORE.INTRA.POLAR>
0

>  <SCORE.INTRA.POLAR.0>
0

>  <SCORE.INTRA.REPUL>
0.0080301

>  <SCORE.INTRA.REPUL.0>
0

>  <SCORE.INTRA.SOLV>
2.2583

>  <SCORE.INTRA.SOLV.lig_0>
-90.9627

>  <SCORE.INTRA.VDW>
0.336548

>  <SCORE.INTRA.VDW.0>
-3.28744

>  <SCORE.INTRA.norm>
-0.0890893

>  <SCORE.RESTR>
0

>  <SCORE.RESTR.CAVITY>
0

>  <SCORE.RESTR.norm>
0

>  <SCORE.SYSTEM>
0

>  <SCORE.SYSTEM.CONST>
0

>  <SCORE.SYSTEM.DIHEDRAL>
0

>  <SCORE.SYSTEM.SOLV>
0

>  <SCORE.SYSTEM.norm>
0

>  <SCORE.heavy>
37

>  <SCORE.norm>
-0.673729

>  <RMSD>
3.388

$$$$
2oe8_lig
 OpenBabel11021811463D
libRbt.so/2013.1/901 2013/11/27
 37 40  0  0  0  0  0  0  0  0999 V2000
   20.6430    3.1032   54.7870 C   0  0  1  0  0  0  0  0  0  0  0  0
   19.7359    3.4628   53.5496 C   0  0  1  0  0  0  0  0  0  0  0  0
   19.6387    2.2391   52.6149 C   0  0  0  0  0  0  0  0  0  0  0  0
   21.0999    1.9153   52.1723 C   0  0  1  0  0  0  0  0  0  0  0  0
   22.0468    1.5649   53.4319 C   0  0  1  0  0  0  0  0  0  0  0  0
   23.5112    1.2592   53.0007 C   0  0  1  0  0  0  0  0  0  0  0  0
   23.4594    0.0489   51.9812 C   0  0  1  0  0  0  0  0  0  0  0  0
   22.4936    0.4201   50.8025 C   0  0  2  0  0  0  0  0  0  0  0  0
   25.1809   -1.7185   51.0815 C   0  0  0  0  0  0  0  0  0  0  0  0
   18.3650    3.8610   54.0017 N   0  0  0  0  0  0  0  0  0  0  0  0
   24.8524   -0.2969   51.4622 N   0  0  0  0  0  0  0  0  0  0  0  0
   20.0882    2.0285   55.5559 O   0  0  0  0  0  0  0  0  0  0  0  0
   22.0165    2.7013   54.3631 O   0  0  0  0  0  0  0  0  0  0  0  0
   21.1188    0.7761   51.2619 O   0  0  0  0  0  0  0  0  0  0  0  0
   24.0315    2.4497   52.4067 O   0  0  0  0  0  0  0  0  0  0  0  0
   22.3984   -0.6578   49.9444 O   0  0  0  0  0  0  0  0  0  0  0  0
   21.0476   -1.1060   49.7411 C   0  0  2  0  0  0  0  0  0  0  0  0
   20.7263   -2.2882   50.6870 C   0  0  1  0  0  0  0  0  0  0  0  0
   21.5693   -3.5535   50.3401 C   0  0  2  0  0  0  0  0  0  0  0  0
   21.2902   -3.9698   48.8657 C   0  0  1  0  0  0  0  0  0  0  0  0
   21.7161   -2.7458   47.9526 C   0  0  1  0  0  0  0  0  0  0  0  0
   21.4738   -3.0258   46.4721 C   0  0  0  0  0  0  0  0  0  0  0  0
   22.0949   -5.1796   48.5317 N   0  0  0  0  0  0  0  0  0  0  0  0
   20.8856   -1.5483   48.3316 O   0  0  0  0  0  0  0  0  0  0  0  0
   20.9638   -1.8345   52.0333 O   0  0  0  0  0  0  0  0  0  0  0  0
   21.1856   -4.5970   51.2108 O   0  0  0  0  0  0  0  0  0  0  0  0
   20.0979   -3.1820   46.2452 O   0  0  0  0  0  0  0  0  0  0  0  0
   19.5652    2.4358   56.8034 C   0  0  1  0  0  0  0  0  0  0  0  0
   18.6971    1.2676   57.3721 C   0  0  1  0  0  0  0  0  0  0  0  0
   18.0884    1.7150   58.7330 C   0  0  2  0  0  0  0  0  0  0  0  0
   19.2133    2.0854   59.7484 C   0  0  1  0  0  0  0  0  0  0  0  0
   20.1015    3.2562   59.1781 C   0  0  0  0  0  0  0  0  0  0  0  0
   20.7243    2.7943   57.7958 C   0  0  2  0  0  0  0  0  0  0  0  0
   18.6063    2.5148   61.0387 N   0  0  0  0  0  0  0  0  0  0  0  0
   21.5593    3.8974   57.2695 N   0  0  0  0  0  0  0  0  0  0  0  0
   17.6289    0.9487   56.4609 O   0  0  0  0  0  0  0  0  0  0  0  0
   17.3129    0.6364   59.2292 O   0  0  0  0  0  0  0  0  0  0  0  0
  1  2  1  0  0  0  0
  1 12  1  6  0  0  0
  1 13  1  0  0  0  0
  2  3  1  0  0  0  0
  2 10  1  1  0  0  0
  4  3  1  1  0  0  0
  4  5  1  0  0  0  0
  4 14  1  0  0  0  0
  5  6  1  0  0  0  0
  5 13  1  1  0  0  0
  6  7  1  0  0  0  0
  6 15  1  6  0  0  0
  7  8  1  0  0  0  0
  7 11  1  6  0  0  0
  8 14  1  0  0  0  0
  8 16  1  6  0  0  0
  9 11  1  0  0  0  0
 17 16  1  6  0  0  0
 17 18  1  0  0  0  0
 17 24  1  0  0  0  0
 18 19  1  0  0  0  0
 18 25  1  1  0  0  0
 19 20  1  0  0  0  0
 19 26  1  1  0  0  0
 20 21  1  0  0  0  0
 20 23  1  6  0  0  0
 21 22  1  6  0  0  0
 21 24  1  0  0  0  0
 22 27  1  0  0  0  0
 28 12  1  6  0  0  0
 28 29  1  0  0  0  0
 28 33  1  0  0  0  0
 29 30  1  0  0  0  0
 29 36  1  6  0  0  0
 30 31  1  0  0  0  0
 30 37  1  1  0  0  0
 31 32  1  0  0  0  0
 31 34  1  1  0  0  0
 32 33  1  0  0  0  0
 33 35  1  6  0  0  0
M  END
>  <CHROM.1>
-108.22909900,149.40072676,123.75172357,-96.22828485,64.17517504,166.37617686
20.95095986,0.28409924,53.10659125,-1.88424464,-0.70266985,-2.28913922

>  <Name>
2oe8_lig

>  <RI>
0

>  <Rbt.Current_Directory>
/home/itssahil/PROJECTS/Mol_Feturizer/New_Systems/rnas/2oe8

>  <Rbt.Executable>
rbdock ($Id: //depot/dev/client3/rdock/2013.1/src/exe/rbdock.cxx#4 $)

>  <Rbt.Library>
libRbt.so (2013.1, Build901 2013/11/27)

>  <Rbt.Parameter_File>
/export/apps/rDock/src/rDock_2013.1_src/data/scripts/dock_solv.prm

>  <Rbt.Receptor>
prm/pocket_docking_8.prm

>  <SCORE>
-10.1447

>  <SCORE.INTER>
-15.3756

>  <SCORE.INTER.CONST>
1

>  <SCORE.INTER.POLAR>
-1.89631

>  <SCORE.INTER.ROT>
6

>  <SCORE.INTER.SOLV>
9.02828

>  <SCORE.INTER.VDW>
-14.5388

>  <SCORE.INTER.norm>
-0.415557

>  <SCORE.INTRA>
5.23088

>  <SCORE.INTRA.DIHEDRAL>
3.51809

>  <SCORE.INTRA.DIHEDRAL.0>
16.4056

>  <SCORE.INTRA.POLAR>
0

>  <SCORE.INTRA.POLAR.0>
0

>  <SCORE.INTRA.REPUL>
0

>  <SCORE.INTRA.REPUL.0>
0

>  <SCORE.INTRA.SOLV>
0.439251

>  <SCORE.INTRA.SOLV.lig_0>
-90.9627

>  <SCORE.INTRA.VDW>
3.25221

>  <SCORE.INTRA.VDW.0>
-3.28744

>  <SCORE.INTRA.norm>
0.141375

>  <SCORE.RESTR>
0

>  <SCORE.RESTR.CAVITY>
0

>  <SCORE.RESTR.norm>
0

>  <SCORE.SYSTEM>
0

>  <SCORE.SYSTEM.CONST>
0

>  <SCORE.SYSTEM.DIHEDRAL>
0

>  <SCORE.SYSTEM.SOLV>
0

>  <SCORE.SYSTEM.norm>
0

>  <SCORE.heavy>
37

>  <SCORE.norm>
-0.274182

>  <RMSD>
3.465

$$$$
2oe8_lig
 OpenBabel11021811463D
libRbt.so/2013.1/901 2013/11/27
 37 40  0  0  0  0  0  0  0  0999 V2000
   19.8248    2.1541   52.8012 C   0  0  1  0  0  0  0  0  0  0  0  0
   18.5182    1.4944   53.3852 C   0  0  1  0  0  0  0  0  0  0  0  0
   18.7388   -0.0248   53.5404 C   0  0  0  0  0  0  0  0  0  0  0  0
   19.0568   -0.5643   52.1108 C   0  0  1  0  0  0  0  0  0  0  0  0
   20.3819    0.1180   51.4907 C   0  0  1  0  0  0  0  0  0  0  0  0
   20.6953   -0.4008   50.0567 C   0  0  1  0  0  0  0  0  0  0  0  0
   20.8624   -1.9725   50.1502 C   0  0  1  0  0  0  0  0  0  0  0  0
   19.5711   -2.5817   50.7992 C   0  0  2  0  0  0  0  0  0  0  0  0
   22.1118   -3.7168   48.6359 C   0  0  0  0  0  0  0  0  0  0  0  0
   18.1777    2.0920   54.7153 N   0  0  0  0  0  0  0  0  0  0  0  0
   21.1277   -2.5830   48.7767 N   0  0  0  0  0  0  0  0  0  0  0  0
   20.9445    1.9782   53.6783 O   0  0  0  0  0  0  0  0  0  0  0  0
   20.1871    1.5745   51.4744 O   0  0  0  0  0  0  0  0  0  0  0  0
   19.2642   -2.0076   52.1424 O   0  0  0  0  0  0  0  0  0  0  0  0
   19.6004   -0.0181   49.2227 O   0  0  0  0  0  0  0  0  0  0  0  0
   19.7400   -3.9452   50.9388 O   0  0  0  0  0  0  0  0  0  0  0  0
   18.5340   -4.6943   50.7125 C   0  0  2  0  0  0  0  0  0  0  0  0
   18.8730   -6.1590   50.3447 C   0  0  1  0  0  0  0  0  0  0  0  0
   19.6068   -6.2568   48.9721 C   0  0  2  0  0  0  0  0  0  0  0  0
   18.7101   -5.6310   47.8633 C   0  0  1  0  0  0  0  0  0  0  0  0
   18.4717   -4.1158   48.2638 C   0  0  1  0  0  0  0  0  0  0  0  0
   17.5855   -3.3906   47.2550 C   0  0  0  0  0  0  0  0  0  0  0  0
   19.4094   -5.7235   46.5499 N   0  0  0  0  0  0  0  0  0  0  0  0
   17.7735   -4.0727   49.5973 O   0  0  0  0  0  0  0  0  0  0  0  0
   19.6667   -6.6964   51.4199 O   0  0  0  0  0  0  0  0  0  0  0  0
   19.8367   -7.6205   48.6860 O   0  0  0  0  0  0  0  0  0  0  0  0
   16.3408   -4.0340   47.1792 O   0  0  0  0  0  0  0  0  0  0  0  0
   20.9454    2.8628   54.7798 C   0  0  1  0  0  0  0  0  0  0  0  0
   21.9667    2.3264   55.8338 C   0  0  1  0  0  0  0  0  0  0  0  0
   21.9550    3.2752   57.0677 C   0  0  2  0  0  0  0  0  0  0  0  0
   22.3339    4.7302   56.6518 C   0  0  1  0  0  0  0  0  0  0  0  0
   21.3151    5.2758   55.5799 C   0  0  0  0  0  0  0  0  0  0  0  0
   21.3347    4.3106   54.3229 C   0  0  2  0  0  0  0  0  0  0  0  0
   22.3102    5.6184   57.8469 N   0  0  0  0  0  0  0  0  0  0  0  0
   20.3787    4.8322   53.3203 N   0  0  0  0  0  0  0  0  0  0  0  0
   21.5992    1.0000   56.2567 O   0  0  0  0  0  0  0  0  0  0  0  0
   22.8933    2.7705   58.0036 O   0  0  0  0  0  0  0  0  0  0  0  0
  1  2  1  0  0  0  0
  1 12  1  1  0  0  0
  1 13  1  0  0  0  0
  2  3  1  0  0  0  0
  2 10  1  1  0  0  0
  4  3  1  1  0  0  0
  4  5  1  0  0  0  0
  4 14  1  0  0  0  0
  5  6  1  0  0  0  0
  5 13  1  6  0  0  0
  6  7  1  0  0  0  0
  6 15  1  6  0  0  0
  7  8  1  0  0  0  0
  7 11  1  6  0  0  0
  8 14  1  0  0  0  0
  8 16  1  1  0  0  0
  9 11  1  0  0  0  0
 17 16  1  6  0  0  0
 17 18  1  0  0  0  0
 17 24  1  0  0  0  0
 18 19  1  0  0  0  0
 18 25  1  1  0  0  0
 19 20  1  0  0  0  0
 19 26  1  6  0  0  0
 20 21  1  0  0  0  0
 20 23  1  6  0  0  0
 21 22  1  6  0  0  0
 21 24  1  0  0  0  0
 22 27  1  0  0  0  0
 28 12  1  6  0  0  0
 28 29  1  0  0  0  0
 28 33  1  0  0  0  0
 29 30  1  0  0  0  0
 29 36  1  1  0  0  0
 30 31  1  0  0  0  0
 30 37  1  1  0  0  0
 31 32  1  0  0  0  0
 31 34  1  1  0  0  0
 32 33  1  0  0  0  0
 33 35  1  6  0  0  0
M  END
>  <CHROM.1>
-78.17762492,141.13791681,-143.63517629,158.22129587,59.54907870,164.95618353
20.00995094,-0.86213010,51.88201945,1.05737912,-1.13492904,0.21067434

>  <Name>
2oe8_lig

>  <RI>
0

>  <Rbt.Current_Directory>
/home/itssahil/PROJECTS/Mol_Feturizer/New_Systems/rnas/2oe8

>  <Rbt.Executable>
rbdock ($Id: //depot/dev/client3/rdock/2013.1/src/exe/rbdock.cxx#4 $)

>  <Rbt.Library>
libRbt.so (2013.1, Build901 2013/11/27)

>  <Rbt.Parameter_File>
/export/apps/rDock/src/rDock_2013.1_src/data/scripts/dock_solv.prm

>  <Rbt.Receptor>
prm/pocket_docking_6.prm

>  <SCORE>
-24.6248

>  <SCORE.INTER>
-23.6214

>  <SCORE.INTER.CONST>
1

>  <SCORE.INTER.POLAR>
-2.71577

>  <SCORE.INTER.ROT>
6

>  <SCORE.INTER.SOLV>
15.8088

>  <SCORE.INTER.VDW>
-19.5646

>  <SCORE.INTER.norm>
-0.638416

>  <SCORE.INTRA>
-1.00335

>  <SCORE.INTRA.DIHEDRAL>
-6.08115

>  <SCORE.INTRA.DIHEDRAL.0>
16.4056

>  <SCORE.INTRA.POLAR>
0

>  <SCORE.INTRA.POLAR.0>
0

>  <SCORE.INTRA.REPUL>
0

>  <SCORE.INTRA.REPUL.0>
0

>  <SCORE.INTRA.SOLV>
3.38286

>  <SCORE.INTRA.SOLV.lig_0>
-90.9627

>  <SCORE.INTRA.VDW>
0.345795

>  <SCORE.INTRA.VDW.0>
-3.28744

>  <SCORE.INTRA.norm>
-0.0271176

>  <SCORE.RESTR>
0

>  <SCORE.RESTR.CAVITY>
0

>  <SCORE.RESTR.norm>
0

>  <SCORE.SYSTEM>
0

>  <SCORE.SYSTEM.CONST>
0

>  <SCORE.SYSTEM.DIHEDRAL>
0

>  <SCORE.SYSTEM.SOLV>
0

>  <SCORE.SYSTEM.norm>
0

>  <SCORE.heavy>
37

>  <SCORE.norm>
-0.665534

>  <RMSD>
3.510

$$$$
2oe8_lig
 OpenBabel11021811463D
libRbt.so/2013.1/901 2013/11/27
 37 40  0  0  0  0  0  0  0  0999 V2000
   20.2845    3.5671   53.5166 C   0  0  1  0  0  0  0  0  0  0  0  0
   19.1528    3.5155   52.4211 C   0  0  1  0  0  0  0  0  0  0  0  0
   18.6963    2.0544   52.2270 C   0  0  0  0  0  0  0  0  0  0  0  0
   19.9621    1.2621   51.7731 C   0  0  1  0  0  0  0  0  0  0  0  0
   21.1384    1.3232   52.8770 C   0  0  1  0  0  0  0  0  0  0  0  0
   22.4121    0.5511   52.4236 C   0  0  1  0  0  0  0  0  0  0  0  0
   21.9805   -0.9462   52.1430 C   0  0  1  0  0  0  0  0  0  0  0  0
   20.8077   -0.9488   51.1016 C   0  0  2  0  0  0  0  0  0  0  0  0
   23.1581   -3.2732   51.8353 C   0  0  0  0  0  0  0  0  0  0  0  0
   17.9848    4.3572   52.8327 N   0  0  0  0  0  0  0  0  0  0  0  0
   23.1597   -1.7774   51.6449 N   0  0  0  0  0  0  0  0  0  0  0  0
   19.8134    3.1003   54.7871 O   0  0  0  0  0  0  0  0  0  0  0  0
   21.4614    2.7343   53.1306 O   0  0  0  0  0  0  0  0  0  0  0  0
   19.6329   -0.1396   51.5406 O   0  0  0  0  0  0  0  0  0  0  0  0
   22.9050    1.2044   51.2527 O   0  0  0  0  0  0  0  0  0  0  0  0
   20.3881   -2.2493   50.9022 O   0  0  0  0  0  0  0  0  0  0  0  0
   19.3536   -2.3681   49.9110 C   0  0  2  0  0  0  0  0  0  0  0  0
   18.6995   -3.7690   49.9830 C   0  0  1  0  0  0  0  0  0  0  0  0
   19.6990   -4.8965   49.5805 C   0  0  2  0  0  0  0  0  0  0  0  0
   20.2179   -4.6329   48.1360 C   0  0  1  0  0  0  0  0  0  0  0  0
   20.9430   -3.2233   48.1568 C   0  0  1  0  0  0  0  0  0  0  0  0
   21.4863   -2.8398   46.7833 C   0  0  0  0  0  0  0  0  0  0  0  0
   21.1735   -5.7096   47.7487 N   0  0  0  0  0  0  0  0  0  0  0  0
   19.9438   -2.1719   48.5613 O   0  0  0  0  0  0  0  0  0  0  0  0
   18.2049   -3.9408   51.3249 O   0  0  0  0  0  0  0  0  0  0  0  0
   19.0173   -6.1325   49.6239 O   0  0  0  0  0  0  0  0  0  0  0  0
   20.4219   -2.7181   45.8771 O   0  0  0  0  0  0  0  0  0  0  0  0
   18.9893    4.0287   55.4615 C   0  0  1  0  0  0  0  0  0  0  0  0
   18.1246    3.2462   56.5014 C   0  0  1  0  0  0  0  0  0  0  0  0
   17.1882    4.2536   57.2304 C   0  0  2  0  0  0  0  0  0  0  0  0
   18.0186    5.3591   57.9529 C   0  0  1  0  0  0  0  0  0  0  0  0
   18.9030    6.1468   56.9126 C   0  0  0  0  0  0  0  0  0  0  0  0
   19.8591    5.1186   56.1772 C   0  0  2  0  0  0  0  0  0  0  0  0
   17.1014    6.3122   58.6371 N   0  0  0  0  0  0  0  0  0  0  0  0
   20.6882    5.8668   55.2055 N   0  0  0  0  0  0  0  0  0  0  0  0
   17.3211    2.2527   55.8376 O   0  0  0  0  0  0  0  0  0  0  0  0
   16.4215    3.5201   58.1712 O   0  0  0  0  0  0  0  0  0  0  0  0
  1  2  1  0  0  0  0
  1 12  1  1  0  0  0
  1 13  1  0  0  0  0
  2  3  1  0  0  0  0
  2 10  1  1  0  0  0
  4  3  1  1  0  0  0
  4  5  1  0  0  0  0
  4 14  1  0  0  0  0
  5  6  1  0  0  0  0
  5 13  1  6  0  0  0
  6  7  1  0  0  0  0
  6 15  1  6  0  0  0
  7  8  1  0  0  0  0
  7 11  1  6  0  0  0
  8 14  1  0  0  0  0
  8 16  1  1  0  0  0
  9 11  1  0  0  0  0
 17 16  1  1  0  0  0
 17 18  1  0  0  0  0
 17 24  1  0  0  0  0
 18 19  1  0  0  0  0
 18 25  1  1  0  0  0
 19 20  1  0  0  0  0
 19 26  1  6  0  0  0
 20 21  1  0  0  0  0
 20 23  1  1  0  0  0
 21 22  1  6  0  0  0
 21 24  1  0  0  0  0
 22 27  1  0  0  0  0
 28 12  1  1  0  0  0
 28 29  1  0  0  0  0
 28 33  1  0  0  0  0
 29 30  1  0  0  0  0
 29 36  1  6  0  0  0
 30 31  1  0  0  0  0
 30 37  1  1  0  0  0
 31 32  1  0  0  0  0
 31 34  1  6  0  0  0
 32 33  1  0  0  0  0
 33 35  1  6  0  0  0
M  END
>  <CHROM.1>
-75.46125410,155.51668640,-177.15593998,-166.29143359,62.55025164,158.53142700
19.85395601,0.43670656,52.40672855,-1.78821973,-0.58304150,-2.53204682

>  <Name>
2oe8_lig

>  <RI>
0

>  <Rbt.Current_Directory>
/home/itssahil/PROJECTS/Mol_Feturizer/New_Systems/rnas/2oe8

>  <Rbt.Executable>
rbdock ($Id: //depot/dev/client3/rdock/2013.1/src/exe/rbdock.cxx#4 $)

>  <Rbt.Library>
libRbt.so (2013.1, Build901 2013/11/27)

>  <Rbt.Parameter_File>
/export/apps/rDock/src/rDock_2013.1_src/data/scripts/dock_solv.prm

>  <Rbt.Receptor>
prm/pocket_docking_6.prm

>  <SCORE>
-17.3534

>  <SCORE.INTER>
-12.6496

>  <SCORE.INTER.CONST>
1

>  <SCORE.INTER.POLAR>
-0.752506

>  <SCORE.INTER.ROT>
6

>  <SCORE.INTER.SOLV>
13.3085

>  <SCORE.INTER.VDW>
-17.9609

>  <SCORE.INTER.norm>
-0.341882

>  <SCORE.INTRA>
-4.70375

>  <SCORE.INTRA.DIHEDRAL>
-11.8032

>  <SCORE.INTRA.DIHEDRAL.0>
16.4056

>  <SCORE.INTRA.POLAR>
0

>  <SCORE.INTRA.POLAR.0>
0

>  <SCORE.INTRA.REPUL>
0

>  <SCORE.INTRA.REPUL.0>
0

>  <SCORE.INTRA.SOLV>
1.15771

>  <SCORE.INTRA.SOLV.lig_0>
-90.9627

>  <SCORE.INTRA.VDW>
0.619005

>  <SCORE.INTRA.VDW.0>
-3.28744

>  <SCORE.INTRA.norm>
-0.127128

>  <SCORE.RESTR>
0

>  <SCORE.RESTR.CAVITY>
0

>  <SCORE.RESTR.norm>
0

>  <SCORE.SYSTEM>
0

>  <SCORE.SYSTEM.CONST>
0

>  <SCORE.SYSTEM.DIHEDRAL>
0

>  <SCORE.SYSTEM.SOLV>
0

>  <SCORE.SYSTEM.norm>
0

>  <SCORE.heavy>
37

>  <SCORE.norm>
-0.469011

>  <RMSD>
3.552

$$$$
2oe8_lig
 OpenBabel11021811463D
libRbt.so/2013.1/901 2013/11/27
 37 40  0  0  0  0  0  0  0  0999 V2000
   21.6200    0.2643   51.7324 C   0  0  1  0  0  0  0  0  0  0  0  0
   21.7552    0.6051   50.1997 C   0  0  1  0  0  0  0  0  0  0  0  0
   20.4520    0.2130   49.4726 C   0  0  0  0  0  0  0  0  0  0  0  0
   20.2743   -1.3209   49.6995 C   0  0  1  0  0  0  0  0  0  0  0  0
   20.1551   -1.6877   51.2671 C   0  0  1  0  0  0  0  0  0  0  0  0
   19.9967   -3.2185   51.5032 C   0  0  1  0  0  0  0  0  0  0  0  0
   18.7050   -3.6856   50.7157 C   0  0  1  0  0  0  0  0  0  0  0  0
   18.8494   -3.2666   49.2112 C   0  0  2  0  0  0  0  0  0  0  0  0
   19.6011   -6.1432   50.4839 C   0  0  0  0  0  0  0  0  0  0  0  0
   22.0184    2.0666   50.0080 N   0  0  0  0  0  0  0  0  0  0  0  0
   18.4904   -5.1908   50.8488 N   0  0  0  0  0  0  0  0  0  0  0  0
   20.5561    1.0020   52.3471 O   0  0  0  0  0  0  0  0  0  0  0  0
   21.3559   -1.1883   51.9512 O   0  0  0  0  0  0  0  0  0  0  0  0
   19.0711   -1.8017   49.0300 O   0  0  0  0  0  0  0  0  0  0  0  0
   21.1861   -3.8437   51.0182 O   0  0  0  0  0  0  0  0  0  0  0  0
   17.6974   -3.6176   48.5355 O   0  0  0  0  0  0  0  0  0  0  0  0
   17.7243   -4.9608   48.0238 C   0  0  2  0  0  0  0  0  0  0  0  0
   18.8416   -5.1087   46.9629 C   0  0  1  0  0  0  0  0  0  0  0  0
   18.5485   -4.2567   45.6900 C   0  0  2  0  0  0  0  0  0  0  0  0
   17.1841   -4.6947   45.0803 C   0  0  1  0  0  0  0  0  0  0  0  0
   16.0807   -4.4411   46.1900 C   0  0  1  0  0  0  0  0  0  0  0  0
   14.6889   -4.8496   45.7157 C   0  0  0  0  0  0  0  0  0  0  0  0
   16.9017   -3.8817   43.8630 N   0  0  0  0  0  0  0  0  0  0  0  0
   16.4122   -5.2736   47.4001 O   0  0  0  0  0  0  0  0  0  0  0  0
   20.0806   -4.7294   47.5921 O   0  0  0  0  0  0  0  0  0  0  0  0
   19.5827   -4.4820   44.7552 O   0  0  0  0  0  0  0  0  0  0  0  0
   13.8387   -4.9848   46.8239 O   0  0  0  0  0  0  0  0  0  0  0  0
   20.5391    0.9035   53.7563 C   0  0  1  0  0  0  0  0  0  0  0  0
   21.3361    2.1149   54.3385 C   0  0  1  0  0  0  0  0  0  0  0  0
   21.3524    2.0018   55.8908 C   0  0  2  0  0  0  0  0  0  0  0  0
   19.9005    1.9962   56.4614 C   0  0  1  0  0  0  0  0  0  0  0  0
   19.0850    0.7834   55.8708 C   0  0  0  0  0  0  0  0  0  0  0  0
   19.0656    0.9058   54.2906 C   0  0  2  0  0  0  0  0  0  0  0  0
   19.9426    1.8818   57.9456 N   0  0  0  0  0  0  0  0  0  0  0  0
   18.2951   -0.2342   53.7447 N   0  0  0  0  0  0  0  0  0  0  0  0
   22.6911    2.1027   53.8516 O   0  0  0  0  0  0  0  0  0  0  0  0
   22.0742    3.1144   56.3926 O   0  0  0  0  0  0  0  0  0  0  0  0
  1  2  1  0  0  0  0
  1 12  1  6  0  0  0
  1 13  1  0  0  0  0
  2  3  1  0  0  0  0
  2 10  1  1  0  0  0
  4  3  1  1  0  0  0
  4  5  1  0  0  0  0
  4 14  1  0  0  0  0
  5  6  1  0  0  0  0
  5 13  1  1  0  0  0
  6  7  1  0  0  0  0
  6 15  1  6  0  0  0
  7  8  1  0  0  0  0
  7 11  1  6  0  0  0
  8 14  1  0  0  0  0
  8 16  1  6  0  0  0
  9 11  1  0  0  0  0
 17 16  1  6  0  0  0
 17 18  1  0  0  0  0
 17 24  1  0  0  0  0
 18 19  1  0  0  0  0
 18 25  1  1  0  0  0
 19 20  1  0  0  0  0
 19 26  1  6  0  0  0
 20 21  1  0  0  0  0
 20 23  1  6  0  0  0
 21 22  1  6  0  0  0
 21 24  1  0  0  0  0
 22 27  1  0  0  0  0
 28 12  1  6  0  0  0
 28 29  1  0  0  0  0
 28 33  1  0  0  0  0
 29 30  1  0  0  0  0
 29 36  1  6  0  0  0
 30 31  1  0  0  0  0
 30 37  1  1  0  0  0
 31 32  1  0  0  0  0
 31 34  1  1  0  0  0
 32 33  1  0  0  0  0
 33 35  1  6  0  0  0
M  END
>  <CHROM.1>
-169.90401164,-54.02661358,-87.68809291,-63.83177951,162.61259357,93.64569122
19.35117316,-1.83663842,50.47754523,-1.13946737,-0.66642985,-1.94323659

>  <Name>
2oe8_lig

>  <RI>
0

>  <Rbt.Current_Directory>
/home/itssahil/PROJECTS/Mol_Feturizer/New_Systems/rnas/2oe8

>  <Rbt.Executable>
rbdock ($Id: //depot/dev/client3/rdock/2013.1/src/exe/rbdock.cxx#4 $)

>  <Rbt.Library>
libRbt.so (2013.1, Build901 2013/11/27)

>  <Rbt.Parameter_File>
/export/apps/rDock/src/rDock_2013.1_src/data/scripts/dock_solv.prm

>  <Rbt.Receptor>
prm/pocket_docking_5.prm

>  <SCORE>
-12.8466

>  <SCORE.INTER>
-12.9701

>  <SCORE.INTER.CONST>
1

>  <SCORE.INTER.POLAR>
-1.73859

>  <SCORE.INTER.ROT>
6

>  <SCORE.INTER.SOLV>
18.6448

>  <SCORE.INTER.VDW>
-16.6664

>  <SCORE.INTER.norm>
-0.350543

>  <SCORE.INTRA>
0.123546

>  <SCORE.INTRA.DIHEDRAL>
-7.31055

>  <SCORE.INTRA.DIHEDRAL.0>
16.4056

>  <SCORE.INTRA.POLAR>
0

>  <SCORE.INTRA.POLAR.0>
0

>  <SCORE.INTRA.REPUL>
0

>  <SCORE.INTRA.REPUL.0>
0

>  <SCORE.INTRA.SOLV>
0.114267

>  <SCORE.INTRA.SOLV.lig_0>
-90.9627

>  <SCORE.INTRA.VDW>
3.72169

>  <SCORE.INTRA.VDW.0>
-3.28744

>  <SCORE.INTRA.norm>
0.00333908

>  <SCORE.RESTR>
0

>  <SCORE.RESTR.CAVITY>
0

>  <SCORE.RESTR.norm>
0

>  <SCORE.SYSTEM>
0

>  <SCORE.SYSTEM.CONST>
0

>  <SCORE.SYSTEM.DIHEDRAL>
0

>  <SCORE.SYSTEM.SOLV>
0

>  <SCORE.SYSTEM.norm>
0

>  <SCORE.heavy>
37

>  <SCORE.norm>
-0.347204

>  <RMSD>
3.601

$$$$
2oe8_lig
 OpenBabel11021811463D
libRbt.so/2013.1/901 2013/11/27
 37 40  0  0  0  0  0  0  0  0999 V2000
   19.8113    2.1766   52.7265 C   0  0  1  0  0  0  0  0  0  0  0  0
   18.5134    1.5119   53.3241 C   0  0  1  0  0  0  0  0  0  0  0  0
   18.7453   -0.0047   53.4874 C   0  0  0  0  0  0  0  0  0  0  0  0
   19.0566   -0.5513   52.0590 C   0  0  1  0  0  0  0  0  0  0  0  0
   20.3727    0.1358   51.4251 C   0  0  1  0  0  0  0  0  0  0  0  0
   20.6794   -0.3901   49.9922 C   0  0  1  0  0  0  0  0  0  0  0  0
   20.8577   -1.9600   50.0946 C   0  0  1  0  0  0  0  0  0  0  0  0
   19.5751   -2.5736   50.7568 C   0  0  2  0  0  0  0  0  0  0  0  0
   22.3227   -2.1520   47.9235 C   0  0  0  0  0  0  0  0  0  0  0  0
   18.1784    2.1158   54.6527 N   0  0  0  0  0  0  0  0  0  0  0  0
   21.1172   -2.5776   48.7232 N   0  0  0  0  0  0  0  0  0  0  0  0
   20.9384    2.0138   53.5967 O   0  0  0  0  0  0  0  0  0  0  0  0
   20.1681    1.5909   51.4008 O   0  0  0  0  0  0  0  0  0  0  0  0
   19.2739   -1.9930   52.0984 O   0  0  0  0  0  0  0  0  0  0  0  0
   19.5760   -0.0201   49.1637 O   0  0  0  0  0  0  0  0  0  0  0  0
   19.7541   -3.9350   50.9039 O   0  0  0  0  0  0  0  0  0  0  0  0
   18.5495   -4.6929   50.7000 C   0  0  2  0  0  0  0  0  0  0  0  0
   18.8922   -6.1576   50.3356 C   0  0  1  0  0  0  0  0  0  0  0  0
   19.6060   -6.2589   48.9527 C   0  0  2  0  0  0  0  0  0  0  0  0
   18.6890   -5.6452   47.8538 C   0  0  1  0  0  0  0  0  0  0  0  0
   18.4471   -4.1291   48.2492 C   0  0  1  0  0  0  0  0  0  0  0  0
   17.5414   -3.4154   47.2496 C   0  0  0  0  0  0  0  0  0  0  0  0
   19.3691   -5.7411   46.5307 N   0  0  0  0  0  0  0  0  0  0  0  0
   17.7686   -4.0825   49.5927 O   0  0  0  0  0  0  0  0  0  0  0  0
   19.7052   -6.6838   51.4019 O   0  0  0  0  0  0  0  0  0  0  0  0
   19.8402   -7.6228   48.6711 O   0  0  0  0  0  0  0  0  0  0  0  0
   16.2842   -4.0384   47.2305 O   0  0  0  0  0  0  0  0  0  0  0  0
   20.9883    2.9625   54.6423 C   0  0  1  0  0  0  0  0  0  0  0  0
   22.1235    2.5397   55.6292 C   0  0  1  0  0  0  0  0  0  0  0  0
   22.1688    3.5599   56.8040 C   0  0  2  0  0  0  0  0  0  0  0  0
   22.4337    5.0032   56.2748 C   0  0  1  0  0  0  0  0  0  0  0  0
   21.2989    5.4343   55.2693 C   0  0  0  0  0  0  0  0  0  0  0  0
   21.2603    4.3968   54.0717 C   0  0  2  0  0  0  0  0  0  0  0  0
   22.4670    5.9601   57.4154 N   0  0  0  0  0  0  0  0  0  0  0  0
   20.1952    4.8110   53.1309 N   0  0  0  0  0  0  0  0  0  0  0  0
   21.8639    1.2255   56.1570 O   0  0  0  0  0  0  0  0  0  0  0  0
   23.2096    3.1576   57.6791 O   0  0  0  0  0  0  0  0  0  0  0  0
  1  2  1  0  0  0  0
  1 12  1  1  0  0  0
  1 13  1  0  0  0  0
  2  3  1  0  0  0  0
  2 10  1  1  0  0  0
  4  3  1  1  0  0  0
  4  5  1  0  0  0  0
  4 14  1  0  0  0  0
  5  6  1  0  0  0  0
  5 13  1  6  0  0  0
  6  7  1  0  0  0  0
  6 15  1  6  0  0  0
  7  8  1  0  0  0  0
  7 11  1  6  0  0  0
  8 14  1  0  0  0  0
  8 16  1  1  0  0  0
  9 11  1  0  0  0  0
 17 16  1  6  0  0  0
 17 18  1  0  0  0  0
 17 24  1  0  0  0  0
 18 19  1  0  0  0  0
 18 25  1  1  0  0  0
 19 20  1  0  0  0  0
 19 26  1  6  0  0  0
 20 21  1  0  0  0  0
 20 23  1  6  0  0  0
 21 22  1  6  0  0  0
 21 24  1  0  0  0  0
 22 27  1  0  0  0  0
 28 12  1  6  0  0  0
 28 29  1  0  0  0  0
 28 33  1  0  0  0  0
 29 30  1  0  0  0  0
 29 36  1  1  0  0  0
 30 31  1  0  0  0  0
 30 37  1  1  0  0  0
 31 32  1  0  0  0  0
 31 34  1  1  0  0  0
 32 33  1  0  0  0  0
 33 35  1  6  0  0  0
M  END
>  <CHROM.1>
-82.13406860,59.95632410,-144.03476634,158.11990721,61.59375556,171.38075141
20.03836032,-0.75782001,51.76750765,0.96109521,-1.17694930,0.08853345

>  <Name>
2oe8_lig

>  <RI>
0

>  <Rbt.Current_Directory>
/home/itssahil/PROJECTS/Mol_Feturizer/New_Systems/rnas/2oe8

>  <Rbt.Executable>
rbdock ($Id: //depot/dev/client3/rdock/2013.1/src/exe/rbdock.cxx#4 $)

>  <Rbt.Library>
libRbt.so (2013.1, Build901 2013/11/27)

>  <Rbt.Parameter_File>
/export/apps/rDock/src/rDock_2013.1_src/data/scripts/dock_solv.prm

>  <Rbt.Receptor>
prm/pocket_docking_8.prm

>  <SCORE>
-25.6895

>  <SCORE.INTER>
-25.031

>  <SCORE.INTER.CONST>
1

>  <SCORE.INTER.POLAR>
-2.66129

>  <SCORE.INTER.ROT>
6

>  <SCORE.INTER.SOLV>
16.536

>  <SCORE.INTER.VDW>
-20.9284

>  <SCORE.INTER.norm>
-0.676513

>  <SCORE.INTRA>
-0.658516

>  <SCORE.INTRA.DIHEDRAL>
-7.04974

>  <SCORE.INTRA.DIHEDRAL.0>
16.4056

>  <SCORE.INTRA.POLAR>
0

>  <SCORE.INTRA.POLAR.0>
0

>  <SCORE.INTRA.REPUL>
0

>  <SCORE.INTRA.REPUL.0>
0

>  <SCORE.INTRA.SOLV>
2.72714

>  <SCORE.INTRA.SOLV.lig_0>
-90.9627

>  <SCORE.INTRA.VDW>
1.50278

>  <SCORE.INTRA.VDW.0>
-3.28744

>  <SCORE.INTRA.norm>
-0.0177977

>  <SCORE.RESTR>
0

>  <SCORE.RESTR.CAVITY>
0

>  <SCORE.RESTR.norm>
0

>  <SCORE.SYSTEM>
0

>  <SCORE.SYSTEM.CONST>
0

>  <SCORE.SYSTEM.DIHEDRAL>
0

>  <SCORE.SYSTEM.SOLV>
0

>  <SCORE.SYSTEM.norm>
0

>  <SCORE.heavy>
37

>  <SCORE.norm>
-0.694311

>  <RMSD>
3.635

$$$$
2oe8_lig
 OpenBabel11021811463D
libRbt.so/2013.1/901 2013/11/27
 37 40  0  0  0  0  0  0  0  0999 V2000
   21.7029   -0.8542   52.8065 C   0  0  1  0  0  0  0  0  0  0  0  0
   22.8066   -0.7149   51.6903 C   0  0  1  0  0  0  0  0  0  0  0  0
   22.1250   -0.5246   50.3193 C   0  0  0  0  0  0  0  0  0  0  0  0
   21.2460   -1.7942   50.0928 C   0  0  1  0  0  0  0  0  0  0  0  0
   20.1233   -1.9617   51.2407 C   0  0  1  0  0  0  0  0  0  0  0  0
   19.2542   -3.2365   51.0328 C   0  0  1  0  0  0  0  0  0  0  0  0
   18.5845   -3.1223   49.6026 C   0  0  1  0  0  0  0  0  0  0  0  0
   19.7107   -2.9156   48.5308 C   0  0  2  0  0  0  0  0  0  0  0  0
   18.3827   -5.7219   49.2900 C   0  0  0  0  0  0  0  0  0  0  0  0
   23.6977    0.4541   51.9761 N   0  0  0  0  0  0  0  0  0  0  0  0
   17.7438   -4.3561   49.2856 N   0  0  0  0  0  0  0  0  0  0  0  0
   20.8915    0.3235   52.8990 O   0  0  0  0  0  0  0  0  0  0  0  0
   20.7995   -2.0131   52.5444 O   0  0  0  0  0  0  0  0  0  0  0  0
   20.5674   -1.7242   48.8038 O   0  0  0  0  0  0  0  0  0  0  0  0
   20.1277   -4.3621   51.1369 O   0  0  0  0  0  0  0  0  0  0  0  0
   19.1251   -2.7535   47.2907 O   0  0  0  0  0  0  0  0  0  0  0  0
   20.0547   -2.8793   46.2013 C   0  0  2  0  0  0  0  0  0  0  0  0
   19.2962   -2.9504   44.8540 C   0  0  1  0  0  0  0  0  0  0  0  0
   18.4438   -4.2511   44.7368 C   0  0  2  0  0  0  0  0  0  0  0  0
   19.3744   -5.4913   44.8816 C   0  0  1  0  0  0  0  0  0  0  0  0
   20.0533   -5.3938   46.3109 C   0  0  1  0  0  0  0  0  0  0  0  0
   21.0101   -6.5543   46.5694 C   0  0  0  0  0  0  0  0  0  0  0  0
   18.5618   -6.7362   44.7697 N   0  0  0  0  0  0  0  0  0  0  0  0
   20.8532   -4.1199   46.3799 O   0  0  0  0  0  0  0  0  0  0  0  0
   18.4853   -1.7638   44.7574 O   0  0  0  0  0  0  0  0  0  0  0  0
   17.8247   -4.2653   43.4676 O   0  0  0  0  0  0  0  0  0  0  0  0
   20.2832   -7.7527   46.6380 O   0  0  0  0  0  0  0  0  0  0  0  0
   21.5714    1.4387   53.4377 C   0  0  1  0  0  0  0  0  0  0  0  0
   20.6284    2.6803   53.3336 C   0  0  1  0  0  0  0  0  0  0  0  0
   21.3773    3.9240   53.8952 C   0  0  2  0  0  0  0  0  0  0  0  0
   21.7946    3.6956   55.3809 C   0  0  1  0  0  0  0  0  0  0  0  0
   22.7375    2.4377   55.4973 C   0  0  0  0  0  0  0  0  0  0  0  0
   21.9691    1.1727   54.9303 C   0  0  2  0  0  0  0  0  0  0  0  0
   22.5130    4.8953   55.8928 N   0  0  0  0  0  0  0  0  0  0  0  0
   22.8596   -0.0040   55.0468 N   0  0  0  0  0  0  0  0  0  0  0  0
   20.2737    2.9254   51.9598 O   0  0  0  0  0  0  0  0  0  0  0  0
   20.4987    5.0326   53.7955 O   0  0  0  0  0  0  0  0  0  0  0  0
  1  2  1  0  0  0  0
  1 12  1  6  0  0  0
  1 13  1  0  0  0  0
  2  3  1  0  0  0  0
  2 10  1  1  0  0  0
  4  3  1  1  0  0  0
  4  5  1  0  0  0  0
  4 14  1  0  0  0  0
  5  6  1  0  0  0  0
  5 13  1  1  0  0  0
  6  7  1  0  0  0  0
  6 15  1  6  0  0  0
  7  8  1  0  0  0  0
  7 11  1  6  0  0  0
  8 14  1  0  0  0  0
  8 16  1  6  0  0  0
  9 11  1  0  0  0  0
 17 16  1  1  0  0  0
 17 18  1  0  0  0  0
 17 24  1  0  0  0  0
 18 19  1  0  0  0  0
 18 25  1  1  0  0  0
 19 20  1  0  0  0  0
 19 26  1  6  0  0  0
 20 21  1  0  0  0  0
 20 23  1  1  0  0  0
 21 22  1  6  0  0  0
 21 24  1  0  0  0  0
 22 27  1  0  0  0  0
 28 12  1  1  0  0  0
 28 29  1  0  0  0  0
 28 33  1  0  0  0  0
 29 30  1  0  0  0  0
 29 36  1  6  0  0  0
 30 31  1  0  0  0  0
 30 37  1  1  0  0  0
 31 32  1  0  0  0  0
 31 34  1  6  0  0  0
 32 33  1  0  0  0  0
 33 35  1  6  0  0  0
M  END
>  <CHROM.1>
-70.44813059,-58.04854953,-165.82342225,169.47651419,-66.04746418,173.80279247
20.44440883,-1.62854042,49.98804502,-0.84900467,1.22393465,-2.99492108

>  <Name>
2oe8_lig

>  <RI>
0

>  <Rbt.Current_Directory>
/home/itssahil/PROJECTS/Mol_Feturizer/New_Systems/rnas/2oe8

>  <Rbt.Executable>
rbdock ($Id: //depot/dev/client3/rdock/2013.1/src/exe/rbdock.cxx#4 $)

>  <Rbt.Library>
libRbt.so (2013.1, Build901 2013/11/27)

>  <Rbt.Parameter_File>
/export/apps/rDock/src/rDock_2013.1_src/data/scripts/dock_solv.prm

>  <Rbt.Receptor>
prm/pocket_docking_7.prm

>  <SCORE>
-14.8855

>  <SCORE.INTER>
-12.415

>  <SCORE.INTER.CONST>
1

>  <SCORE.INTER.POLAR>
-1.36267

>  <SCORE.INTER.ROT>
6

>  <SCORE.INTER.SOLV>
10.6839

>  <SCORE.INTER.VDW>
-14.8958

>  <SCORE.INTER.norm>
-0.335542

>  <SCORE.INTRA>
-2.47046

>  <SCORE.INTRA.DIHEDRAL>
-14.0177

>  <SCORE.INTRA.DIHEDRAL.0>
16.4056

>  <SCORE.INTRA.POLAR>
0

>  <SCORE.INTRA.POLAR.0>
0

>  <SCORE.INTRA.REPUL>
0

>  <SCORE.INTRA.REPUL.0>
0

>  <SCORE.INTRA.SOLV>
3.39729

>  <SCORE.INTRA.SOLV.lig_0>
-90.9627

>  <SCORE.INTRA.VDW>
2.83976

>  <SCORE.INTRA.VDW.0>
-3.28744

>  <SCORE.INTRA.norm>
-0.0667692

>  <SCORE.RESTR>
0

>  <SCORE.RESTR.CAVITY>
0

>  <SCORE.RESTR.norm>
0

>  <SCORE.SYSTEM>
0

>  <SCORE.SYSTEM.CONST>
0

>  <SCORE.SYSTEM.DIHEDRAL>
0

>  <SCORE.SYSTEM.SOLV>
0

>  <SCORE.SYSTEM.norm>
0

>  <SCORE.heavy>
37

>  <SCORE.norm>
-0.402311

>  <RMSD>
3.714

$$$$
2oe8_lig
 OpenBabel11021811463D
libRbt.so/2013.1/901 2013/11/27
 37 40  0  0  0  0  0  0  0  0999 V2000
   21.6912    0.6802   53.0987 C   0  0  1  0  0  0  0  0  0  0  0  0
   22.9636    0.5622   52.1765 C   0  0  1  0  0  0  0  0  0  0  0  0
   22.5185    0.4647   50.7024 C   0  0  0  0  0  0  0  0  0  0  0  0
   21.6254   -0.8114   50.6032 C   0  0  1  0  0  0  0  0  0  0  0  0
   20.3279   -0.7138   51.5587 C   0  0  1  0  0  0  0  0  0  0  0  0
   19.4415   -1.9913   51.4802 C   0  0  1  0  0  0  0  0  0  0  0  0
   19.0138   -2.1758   49.9669 C   0  0  1  0  0  0  0  0  0  0  0  0
   20.3046   -2.2189   49.0771 C   0  0  2  0  0  0  0  0  0  0  0  0
   18.7623   -4.7861   50.1081 C   0  0  0  0  0  0  0  0  0  0  0  0
   23.8542    1.7525   52.3557 N   0  0  0  0  0  0  0  0  0  0  0  0
   18.1747   -3.4368   49.7794 N   0  0  0  0  0  0  0  0  0  0  0  0
   20.9341    1.8618   52.8080 O   0  0  0  0  0  0  0  0  0  0  0  0
   20.7852   -0.4950   52.9381 O   0  0  0  0  0  0  0  0  0  0  0  0
   21.1644   -1.0089   49.2337 O   0  0  0  0  0  0  0  0  0  0  0  0
   20.2311   -3.0809   51.9598 O   0  0  0  0  0  0  0  0  0  0  0  0
   19.9320   -2.3172   47.7511 O   0  0  0  0  0  0  0  0  0  0  0  0
   21.0451   -2.4940   46.8585 C   0  0  2  0  0  0  0  0  0  0  0  0
   20.5570   -3.0321   45.4919 C   0  0  1  0  0  0  0  0  0  0  0  0
   19.9738   -4.4735   45.6115 C   0  0  2  0  0  0  0  0  0  0  0  0
   21.0633   -5.4233   46.1910 C   0  0  1  0  0  0  0  0  0  0  0  0
   21.4555   -4.8579   47.6192 C   0  0  1  0  0  0  0  0  0  0  0  0
   22.5368   -5.7001   48.2901 C   0  0  0  0  0  0  0  0  0  0  0  0
   20.5082   -6.8022   46.3061 N   0  0  0  0  0  0  0  0  0  0  0  0
   22.0007   -3.4640   47.4539 O   0  0  0  0  0  0  0  0  0  0  0  0
   19.5843   -2.0970   44.9876 O   0  0  0  0  0  0  0  0  0  0  0  0
   19.5974   -4.9103   44.3223 O   0  0  0  0  0  0  0  0  0  0  0  0
   22.7862   -5.2009   49.5776 O   0  0  0  0  0  0  0  0  0  0  0  0
   19.8750    2.0930   53.7139 C   0  0  1  0  0  0  0  0  0  0  0  0
   20.4883    2.5862   55.0639 C   0  0  1  0  0  0  0  0  0  0  0  0
   19.3335    2.8149   56.0823 C   0  0  2  0  0  0  0  0  0  0  0  0
   18.3186    3.8692   55.5421 C   0  0  1  0  0  0  0  0  0  0  0  0
   17.7028    3.3851   54.1741 C   0  0  0  0  0  0  0  0  0  0  0  0
   18.8811    3.1595   53.1382 C   0  0  2  0  0  0  0  0  0  0  0  0
   17.2222    4.0660   56.5304 N   0  0  0  0  0  0  0  0  0  0  0  0
   18.2941    2.7091   51.8561 N   0  0  0  0  0  0  0  0  0  0  0  0
   21.3933    1.5990   55.5925 O   0  0  0  0  0  0  0  0  0  0  0  0
   19.9158    3.2676   57.2935 O   0  0  0  0  0  0  0  0  0  0  0  0
  1  2  1  0  0  0  0
  1 12  1  6  0  0  0
  1 13  1  0  0  0  0
  2  3  1  0  0  0  0
  2 10  1  6  0  0  0
  4  3  1  6  0  0  0
  4  5  1  0  0  0  0
  4 14  1  0  0  0  0
  5  6  1  0  0  0  0
  5 13  1  1  0  0  0
  6  7  1  0  0  0  0
  6 15  1  6  0  0  0
  7  8  1  0  0  0  0
  7 11  1  1  0  0  0
  8 14  1  0  0  0  0
  8 16  1  6  0  0  0
  9 11  1  0  0  0  0
 17 16  1  1  0  0  0
 17 18  1  0  0  0  0
 17 24  1  0  0  0  0
 18 19  1  0  0  0  0
 18 25  1  1  0  0  0
 19 20  1  0  0  0  0
 19 26  1  6  0  0  0
 20 21  1  0  0  0  0
 20 23  1  1  0  0  0
 21 22  1  6  0  0  0
 21 24  1  0  0  0  0
 22 27  1  0  0  0  0
 28 12  1  6  0  0  0
 28 29  1  0  0  0  0
 28 33  1  0  0  0  0
 29 30  1  0  0  0  0
 29 36  1  1  0  0  0
 30 31  1  0  0  0  0
 30 37  1  1  0  0  0
 31 32  1  0  0  0  0
 31 34  1  1  0  0  0
 32 33  1  0  0  0  0
 33 35  1  6  0  0  0
M  END
>  <CHROM.1>
-172.85999522,-61.15925652,-174.32210085,162.28848446,-176.55698477,73.50803762
20.39811106,-1.02426807,50.71915813,-1.67094253,0.44351511,-2.24818136

>  <Name>
2oe8_lig

>  <RI>
0

>  <Rbt.Current_Directory>
/home/itssahil/PROJECTS/Mol_Feturizer/New_Systems/rnas/2oe8

>  <Rbt.Executable>
rbdock ($Id: //depot/dev/client3/rdock/2013.1/src/exe/rbdock.cxx#4 $)

>  <Rbt.Library>
libRbt.so (2013.1, Build901 2013/11/27)

>  <Rbt.Parameter_File>
/export/apps/rDock/src/rDock_2013.1_src/data/scripts/dock_solv.prm

>  <Rbt.Receptor>
prm/pocket_docking_3.prm

>  <SCORE>
-22.2492

>  <SCORE.INTER>
-16.9054

>  <SCORE.INTER.CONST>
1

>  <SCORE.INTER.POLAR>
-1.3698

>  <SCORE.INTER.ROT>
6

>  <SCORE.INTER.SOLV>
16.4794

>  <SCORE.INTER.VDW>
-19.7974

>  <SCORE.INTER.norm>
-0.456901

>  <SCORE.INTRA>
-5.64064

>  <SCORE.INTRA.DIHEDRAL>
-13.5831

>  <SCORE.INTRA.DIHEDRAL.0>
16.4056

>  <SCORE.INTRA.POLAR>
0

>  <SCORE.INTRA.POLAR.0>
0

>  <SCORE.INTRA.REPUL>
0.00940071

>  <SCORE.INTRA.REPUL.0>
0

>  <SCORE.INTRA.SOLV>
-2.22093

>  <SCORE.INTRA.SOLV.lig_0>
-90.9627

>  <SCORE.INTRA.VDW>
2.21439

>  <SCORE.INTRA.VDW.0>
-3.28744

>  <SCORE.INTRA.norm>
-0.15245

>  <SCORE.RESTR>
0.296812

>  <SCORE.RESTR.CAVITY>
0.296812

>  <SCORE.RESTR.norm>
0.00802194

>  <SCORE.SYSTEM>
0

>  <SCORE.SYSTEM.CONST>
0

>  <SCORE.SYSTEM.DIHEDRAL>
0

>  <SCORE.SYSTEM.SOLV>
0

>  <SCORE.SYSTEM.norm>
0

>  <SCORE.heavy>
37

>  <SCORE.norm>
-0.601329

>  <RMSD>
3.736

$$$$
2oe8_lig
 OpenBabel11021811463D
libRbt.so/2013.1/901 2013/11/27
 37 40  0  0  0  0  0  0  0  0999 V2000
   21.9625    0.9402   52.2092 C   0  0  1  0  0  0  0  0  0  0  0  0
   22.8839    0.8761   50.9323 C   0  0  1  0  0  0  0  0  0  0  0  0
   22.0055    0.6888   49.6778 C   0  0  0  0  0  0  0  0  0  0  0  0
   21.2317   -0.6503   49.8871 C   0  0  1  0  0  0  0  0  0  0  0  0
   20.2988   -0.6071   51.2038 C   0  0  1  0  0  0  0  0  0  0  0  0
   19.5378   -1.9463   51.4305 C   0  0  1  0  0  0  0  0  0  0  0  0
   18.6705   -2.2207   50.1346 C   0  0  1  0  0  0  0  0  0  0  0  0
   19.6135   -2.2075   48.8815 C   0  0  2  0  0  0  0  0  0  0  0  0
   18.6486   -4.7897   50.6790 C   0  0  0  0  0  0  0  0  0  0  0  0
   23.6874    2.1328   50.8011 N   0  0  0  0  0  0  0  0  0  0  0  0
   17.9186   -3.5445   50.2427 N   0  0  0  0  0  0  0  0  0  0  0  0
   21.0606    2.0527   52.1563 O   0  0  0  0  0  0  0  0  0  0  0  0
   21.1491   -0.3017   52.3628 O   0  0  0  0  0  0  0  0  0  0  0  0
   20.3792   -0.9343   48.7382 O   0  0  0  0  0  0  0  0  0  0  0  0
   20.5229   -2.9572   51.6507 O   0  0  0  0  0  0  0  0  0  0  0  0
   18.8504   -2.3847   47.7442 O   0  0  0  0  0  0  0  0  0  0  0  0
   19.2969   -3.4774   46.9236 C   0  0  2  0  0  0  0  0  0  0  0  0
   18.6686   -3.3805   45.5124 C   0  0  1  0  0  0  0  0  0  0  0  0
   17.1227   -3.5829   45.5513 C   0  0  2  0  0  0  0  0  0  0  0  0
   16.8010   -4.9730   46.1751 C   0  0  1  0  0  0  0  0  0  0  0  0
   17.4023   -4.9704   47.6419 C   0  0  1  0  0  0  0  0  0  0  0  0
   17.1647   -6.2962   48.3593 C   0  0  0  0  0  0  0  0  0  0  0  0
   15.3236   -5.1690   46.2132 N   0  0  0  0  0  0  0  0  0  0  0  0
   18.8908   -4.7606   47.5535 O   0  0  0  0  0  0  0  0  0  0  0  0
   19.0307   -2.0957   44.9711 O   0  0  0  0  0  0  0  0  0  0  0  0
   16.6329   -3.5294   44.2278 O   0  0  0  0  0  0  0  0  0  0  0  0
   15.8020   -6.4218   48.6696 O   0  0  0  0  0  0  0  0  0  0  0  0
   20.6142    2.4809   53.4264 C   0  0  1  0  0  0  0  0  0  0  0  0
   19.5626    1.4485   53.9461 C   0  0  1  0  0  0  0  0  0  0  0  0
   19.0385    1.9250   55.3322 C   0  0  2  0  0  0  0  0  0  0  0  0
   20.2103    2.0516   56.3542 C   0  0  1  0  0  0  0  0  0  0  0  0
   21.2821    3.0831   55.8329 C   0  0  0  0  0  0  0  0  0  0  0  0
   21.8177    2.5911   54.4245 C   0  0  2  0  0  0  0  0  0  0  0  0
   19.6848    2.5134   57.6688 N   0  0  0  0  0  0  0  0  0  0  0  0
   22.8259    3.5628   53.9444 N   0  0  0  0  0  0  0  0  0  0  0  0
   18.4554    1.3580   53.0301 O   0  0  0  0  0  0  0  0  0  0  0  0
   18.0932    0.9689   55.7830 O   0  0  0  0  0  0  0  0  0  0  0  0
  1  2  1  0  0  0  0
  1 12  1  6  0  0  0
  1 13  1  0  0  0  0
  2  3  1  0  0  0  0
  2 10  1  6  0  0  0
  4  3  1  6  0  0  0
  4  5  1  0  0  0  0
  4 14  1  0  0  0  0
  5  6  1  0  0  0  0
  5 13  1  1  0  0  0
  6  7  1  0  0  0  0
  6 15  1  6  0  0  0
  7  8  1  0  0  0  0
  7 11  1  1  0  0  0
  8 14  1  0  0  0  0
  8 16  1  6  0  0  0
  9 11  1  0  0  0  0
 17 16  1  1  0  0  0
 17 18  1  0  0  0  0
 17 24  1  0  0  0  0
 18 19  1  0  0  0  0
 18 25  1  1  0  0  0
 19 20  1  0  0  0  0
 19 26  1  6  0  0  0
 20 21  1  0  0  0  0
 20 23  1  1  0  0  0
 21 22  1  6  0  0  0
 21 24  1  0  0  0  0
 22 27  1  0  0  0  0
 28 12  1  6  0  0  0
 28 29  1  0  0  0  0
 28 33  1  0  0  0  0
 29 30  1  0  0  0  0
 29 36  1  6  0  0  0
 30 31  1  0  0  0  0
 30 37  1  1  0  0  0
 31 32  1  0  0  0  0
 31 34  1  1  0  0  0
 32 33  1  0  0  0  0
 33 35  1  6  0  0  0
M  END
>  <CHROM.1>
-155.95139458,-48.13013724,-125.78495685,-164.46709091,-70.72818976,-74.92275646
19.48805026,-1.18787874,50.51230834,-1.12101583,-0.75868852,-1.95145491

>  <Name>
2oe8_lig

>  <RI>
0

>  <Rbt.Current_Directory>
/home/itssahil/PROJECTS/Mol_Feturizer/New_Systems/rnas/2oe8

>  <Rbt.Executable>
rbdock ($Id: //depot/dev/client3/rdock/2013.1/src/exe/rbdock.cxx#4 $)

>  <Rbt.Library>
libRbt.so (2013.1, Build901 2013/11/27)

>  <Rbt.Parameter_File>
/export/apps/rDock/src/rDock_2013.1_src/data/scripts/dock_solv.prm

>  <Rbt.Receptor>
prm/pocket_docking_4.prm

>  <SCORE>
-19.733

>  <SCORE.INTER>
-21.7457

>  <SCORE.INTER.CONST>
1

>  <SCORE.INTER.POLAR>
-2.43403

>  <SCORE.INTER.ROT>
6

>  <SCORE.INTER.SOLV>
19.2979

>  <SCORE.INTER.VDW>
-20.4163

>  <SCORE.INTER.norm>
-0.587721

>  <SCORE.INTRA>
2.01265

>  <SCORE.INTRA.DIHEDRAL>
-4.20494

>  <SCORE.INTRA.DIHEDRAL.0>
16.4056

>  <SCORE.INTRA.POLAR>
0

>  <SCORE.INTRA.POLAR.0>
0

>  <SCORE.INTRA.REPUL>
0

>  <SCORE.INTRA.REPUL.0>
0

>  <SCORE.INTRA.SOLV>
1.94854

>  <SCORE.INTRA.SOLV.lig_0>
-90.9627

>  <SCORE.INTRA.VDW>
3.14085

>  <SCORE.INTRA.VDW.0>
-3.28744

>  <SCORE.INTRA.norm>
0.0543959

>  <SCORE.RESTR>
0

>  <SCORE.RESTR.CAVITY>
0

>  <SCORE.RESTR.norm>
0

>  <SCORE.SYSTEM>
0

>  <SCORE.SYSTEM.CONST>
0

>  <SCORE.SYSTEM.DIHEDRAL>
0

>  <SCORE.SYSTEM.SOLV>
0

>  <SCORE.SYSTEM.norm>
0

>  <SCORE.heavy>
37

>  <SCORE.norm>
-0.533325

>  <RMSD>
3.741

$$$$
2oe8_lig
 OpenBabel11021811463D
libRbt.so/2013.1/901 2013/11/27
 37 40  0  0  0  0  0  0  0  0999 V2000
   20.4236   -0.1994   52.9571 C   0  0  1  0  0  0  0  0  0  0  0  0
   21.2163    0.5614   51.8274 C   0  0  1  0  0  0  0  0  0  0  0  0
   20.4228    0.4842   50.5064 C   0  0  0  0  0  0  0  0  0  0  0  0
   20.2801   -1.0343   50.1752 C   0  0  1  0  0  0  0  0  0  0  0  0
   19.4877   -1.8313   51.3341 C   0  0  1  0  0  0  0  0  0  0  0  0
   19.3577   -3.3507   51.0204 C   0  0  1  0  0  0  0  0  0  0  0  0
   18.6077   -3.4829   49.6323 C   0  0  1  0  0  0  0  0  0  0  0  0
   19.3897   -2.6561   48.5530 C   0  0  2  0  0  0  0  0  0  0  0  0
   17.1572   -5.6589   49.3928 C   0  0  0  0  0  0  0  0  0  0  0  0
   21.4244    1.9950   52.2065 N   0  0  0  0  0  0  0  0  0  0  0  0
   18.4729   -4.9444   49.2136 N   0  0  0  0  0  0  0  0  0  0  0  0
   19.1431    0.3970   53.1991 O   0  0  0  0  0  0  0  0  0  0  0  0
   20.2018   -1.6323   52.6029 O   0  0  0  0  0  0  0  0  0  0  0  0
   19.5559   -1.2196   48.9229 O   0  0  0  0  0  0  0  0  0  0  0  0
   20.6816   -3.8856   50.9773 O   0  0  0  0  0  0  0  0  0  0  0  0
   18.7037   -2.7190   47.3562 O   0  0  0  0  0  0  0  0  0  0  0  0
   18.7634   -4.0132   46.7331 C   0  0  2  0  0  0  0  0  0  0  0  0
   20.1022   -4.1827   45.9751 C   0  0  1  0  0  0  0  0  0  0  0  0
   20.2094   -3.2072   44.7631 C   0  0  2  0  0  0  0  0  0  0  0  0
   19.0197   -3.4613   43.7910 C   0  0  1  0  0  0  0  0  0  0  0  0
   17.6894   -3.1922   44.6102 C   0  0  1  0  0  0  0  0  0  0  0  0
   16.4405   -3.4252   43.7646 C   0  0  0  0  0  0  0  0  0  0  0  0
   19.1200   -2.5299   42.6312 N   0  0  0  0  0  0  0  0  0  0  0  0
   17.6368   -4.1470   45.7733 O   0  0  0  0  0  0  0  0  0  0  0  0
   21.1618   -3.9763   46.9288 O   0  0  0  0  0  0  0  0  0  0  0  0
   21.4300   -3.4556   44.0979 O   0  0  0  0  0  0  0  0  0  0  0  0
   15.5167   -2.3961   44.0022 O   0  0  0  0  0  0  0  0  0  0  0  0
   19.1695    1.4188   54.1742 C   0  0  1  0  0  0  0  0  0  0  0  0
   18.0376    2.4421   53.8376 C   0  0  1  0  0  0  0  0  0  0  0  0
   18.0755    3.5911   54.8870 C   0  0  2  0  0  0  0  0  0  0  0  0
   17.8754    3.0314   56.3293 C   0  0  1  0  0  0  0  0  0  0  0  0
   19.0068    1.9893   56.6738 C   0  0  0  0  0  0  0  0  0  0  0  0
   18.9608    0.8182   55.6068 C   0  0  2  0  0  0  0  0  0  0  0  0
   17.9211    4.1476   57.3140 N   0  0  0  0  0  0  0  0  0  0  0  0
   20.0233   -0.1572   55.9398 N   0  0  0  0  0  0  0  0  0  0  0  0
   18.2393    2.9973   52.5245 O   0  0  0  0  0  0  0  0  0  0  0  0
   17.0362    4.4999   54.5630 O   0  0  0  0  0  0  0  0  0  0  0  0
  1  2  1  0  0  0  0
  1 12  1  6  0  0  0
  1 13  1  0  0  0  0
  2  3  1  0  0  0  0
  2 10  1  1  0  0  0
  4  3  1  1  0  0  0
  4  5  1  0  0  0  0
  4 14  1  0  0  0  0
  5  6  1  0  0  0  0
  5 13  1  1  0  0  0
  6  7  1  0  0  0  0
  6 15  1  6  0  0  0
  7  8  1  0  0  0  0
  7 11  1  6  0  0  0
  8 14  1  0  0  0  0
  8 16  1  6  0  0  0
  9 11  1  0  0  0  0
 17 16  1  6  0  0  0
 17 18  1  0  0  0  0
 17 24  1  0  0  0  0
 18 19  1  0  0  0  0
 18 25  1  1  0  0  0
 19 20  1  0  0  0  0
 19 26  1  6  0  0  0
 20 21  1  0  0  0  0
 20 23  1  6  0  0  0
 21 22  1  6  0  0  0
 21 24  1  0  0  0  0
 22 27  1  0  0  0  0
 28 12  1  6  0  0  0
 28 29  1  0  0  0  0
 28 33  1  0  0  0  0
 29 30  1  0  0  0  0
 29 36  1  6  0  0  0
 30 31  1  0  0  0  0
 30 37  1  6  0  0  0
 31 32  1  0  0  0  0
 31 34  1  1  0  0  0
 32 33  1  0  0  0  0
 33 35  1  1  0  0  0
M  END
>  <CHROM.1>
-89.19779464,102.00998319,-70.89892128,-80.80806557,-137.03099071,150.60998535
19.06969536,-1.16682074,50.08089296,-1.56000791,1.02165423,-2.12206045

>  <Name>
2oe8_lig

>  <RI>
0

>  <Rbt.Current_Directory>
/home/itssahil/PROJECTS/Mol_Feturizer/New_Systems/rnas/2oe8

>  <Rbt.Executable>
rbdock ($Id: //depot/dev/client3/rdock/2013.1/src/exe/rbdock.cxx#4 $)

>  <Rbt.Library>
libRbt.so (2013.1, Build901 2013/11/27)

>  <Rbt.Parameter_File>
/export/apps/rDock/src/rDock_2013.1_src/data/scripts/dock_solv.prm

>  <Rbt.Receptor>
prm/pocket_docking_8.prm

>  <SCORE>
-26.3336

>  <SCORE.INTER>
-27.3488

>  <SCORE.INTER.CONST>
1

>  <SCORE.INTER.POLAR>
-2.67671

>  <SCORE.INTER.ROT>
6

>  <SCORE.INTER.SOLV>
18.7911

>  <SCORE.INTER.VDW>
-23.1739

>  <SCORE.INTER.norm>
-0.739157

>  <SCORE.INTRA>
1.01525

>  <SCORE.INTRA.DIHEDRAL>
-1.68764

>  <SCORE.INTRA.DIHEDRAL.0>
16.4056

>  <SCORE.INTRA.POLAR>
0

>  <SCORE.INTRA.POLAR.0>
0

>  <SCORE.INTRA.REPUL>
0

>  <SCORE.INTRA.REPUL.0>
0

>  <SCORE.INTRA.SOLV>
1.16152

>  <SCORE.INTRA.SOLV.lig_0>
-90.9627

>  <SCORE.INTRA.VDW>
1.2783

>  <SCORE.INTRA.VDW.0>
-3.28744

>  <SCORE.INTRA.norm>
0.0274391

>  <SCORE.RESTR>
0

>  <SCORE.RESTR.CAVITY>
0

>  <SCORE.RESTR.norm>
0

>  <SCORE.SYSTEM>
0

>  <SCORE.SYSTEM.CONST>
0

>  <SCORE.SYSTEM.DIHEDRAL>
0

>  <SCORE.SYSTEM.SOLV>
0

>  <SCORE.SYSTEM.norm>
0

>  <SCORE.heavy>
37

>  <SCORE.norm>
-0.711718

>  <RMSD>
3.762

$$$$
2oe8_lig
 OpenBabel11021811463D
libRbt.so/2013.1/901 2013/11/27
 37 40  0  0  0  0  0  0  0  0999 V2000
   19.7882    2.0020   53.0915 C   0  0  1  0  0  0  0  0  0  0  0  0
   18.5022    1.2742   53.6392 C   0  0  1  0  0  0  0  0  0  0  0  0
   18.7612   -0.2458   53.6966 C   0  0  0  0  0  0  0  0  0  0  0  0
   19.0830   -0.6857   52.2342 C   0  0  1  0  0  0  0  0  0  0  0  0
   20.3867    0.0675   51.6519 C   0  0  1  0  0  0  0  0  0  0  0  0
   20.7034   -0.3516   50.1863 C   0  0  1  0  0  0  0  0  0  0  0  0
   20.9099   -1.9214   50.1792 C   0  0  1  0  0  0  0  0  0  0  0  0
   19.6383   -2.6026   50.7948 C   0  0  2  0  0  0  0  0  0  0  0  0
   22.4139   -1.9849   48.0274 C   0  0  0  0  0  0  0  0  0  0  0  0
   18.1559    1.7778   55.0061 N   0  0  0  0  0  0  0  0  0  0  0  0
   21.1810   -2.4370   48.7685 N   0  0  0  0  0  0  0  0  0  0  0  0
   20.9177    1.7991   53.9501 O   0  0  0  0  0  0  0  0  0  0  0  0
   20.1560    1.5168   51.7289 O   0  0  0  0  0  0  0  0  0  0  0  0
   19.3261   -2.1225   52.1732 O   0  0  0  0  0  0  0  0  0  0  0  0
   19.5939    0.0554   49.3838 O   0  0  0  0  0  0  0  0  0  0  0  0
   19.8417   -3.9675   50.8469 O   0  0  0  0  0  0  0  0  0  0  0  0
   18.6386   -4.7302   50.6520 C   0  0  2  0  0  0  0  0  0  0  0  0
   18.9836   -6.2069   50.3424 C   0  0  1  0  0  0  0  0  0  0  0  0
   19.7164   -6.3561   48.9738 C   0  0  2  0  0  0  0  0  0  0  0  0
   18.8159   -5.7787   47.8421 C   0  0  1  0  0  0  0  0  0  0  0  0
   18.5714   -4.2498   48.1823 C   0  0  1  0  0  0  0  0  0  0  0  0
   17.6811   -3.5691   47.1465 C   0  0  0  0  0  0  0  0  0  0  0  0
   19.5143   -5.9204   46.5325 N   0  0  0  0  0  0  0  0  0  0  0  0
   17.8744   -4.1567   49.5138 O   0  0  0  0  0  0  0  0  0  0  0  0
   19.7807   -6.6977   51.4372 O   0  0  0  0  0  0  0  0  0  0  0  0
   19.9520   -7.7291   48.7419 O   0  0  0  0  0  0  0  0  0  0  0  0
   17.4300   -2.2467   47.5429 O   0  0  0  0  0  0  0  0  0  0  0  0
   21.9617    2.7278   53.7416 C   0  0  1  0  0  0  0  0  0  0  0  0
   21.6243    4.0270   54.5416 C   0  0  1  0  0  0  0  0  0  0  0  0
   22.7518    5.0715   54.2954 C   0  0  2  0  0  0  0  0  0  0  0  0
   24.1352    4.5112   54.7490 C   0  0  1  0  0  0  0  0  0  0  0  0
   24.4791    3.1936   53.9549 C   0  0  0  0  0  0  0  0  0  0  0  0
   23.3320    2.1308   54.2133 C   0  0  2  0  0  0  0  0  0  0  0  0
   25.1965    5.5253   54.4985 N   0  0  0  0  0  0  0  0  0  0  0  0
   23.6646    0.8961   53.4675 N   0  0  0  0  0  0  0  0  0  0  0  0
   20.3692    4.5759   54.0980 O   0  0  0  0  0  0  0  0  0  0  0  0
   22.4250    6.2354   55.0365 O   0  0  0  0  0  0  0  0  0  0  0  0
  1  2  1  0  0  0  0
  1 12  1  1  0  0  0
  1 13  1  0  0  0  0
  2  3  1  0  0  0  0
  2 10  1  1  0  0  0
  4  3  1  1  0  0  0
  4  5  1  0  0  0  0
  4 14  1  0  0  0  0
  5  6  1  0  0  0  0
  5 13  1  6  0  0  0
  6  7  1  0  0  0  0
  6 15  1  6  0  0  0
  7  8  1  0  0  0  0
  7 11  1  6  0  0  0
  8 14  1  0  0  0  0
  8 16  1  1  0  0  0
  9 11  1  0  0  0  0
 17 16  1  6  0  0  0
 17 18  1  0  0  0  0
 17 24  1  0  0  0  0
 18 19  1  0  0  0  0
 18 25  1  1  0  0  0
 19 20  1  0  0  0  0
 19 26  1  6  0  0  0
 20 21  1  0  0  0  0
 20 23  1  6  0  0  0
 21 22  1  6  0  0  0
 21 24  1  0  0  0  0
 22 27  1  0  0  0  0
 28 12  1  1  0  0  0
 28 29  1  0  0  0  0
 28 33  1  0  0  0  0
 29 30  1  0  0  0  0
 29 36  1  6  0  0  0
 30 31  1  0  0  0  0
 30 37  1  1  0  0  0
 31 32  1  0  0  0  0
 31 34  1  6  0  0  0
 32 33  1  0  0  0  0
 33 35  1  6  0  0  0
M  END
>  <CHROM.1>
-162.03838584,62.83777176,-146.83692125,164.75608012,176.25599544,83.00467715
20.41585456,-0.74113855,51.46122706,1.26731716,0.22235858,0.61355775

>  <Name>
2oe8_lig

>  <RI>
0

>  <Rbt.Current_Directory>
/home/itssahil/PROJECTS/Mol_Feturizer/New_Systems/rnas/2oe8

>  <Rbt.Executable>
rbdock ($Id: //depot/dev/client3/rdock/2013.1/src/exe/rbdock.cxx#4 $)

>  <Rbt.Library>
libRbt.so (2013.1, Build901 2013/11/27)

>  <Rbt.Parameter_File>
/export/apps/rDock/src/rDock_2013.1_src/data/scripts/dock_solv.prm

>  <Rbt.Receptor>
prm/pocket_docking_7.prm

>  <SCORE>
-29.2664

>  <SCORE.INTER>
-25.8

>  <SCORE.INTER.CONST>
1

>  <SCORE.INTER.POLAR>
-2.92622

>  <SCORE.INTER.ROT>
6

>  <SCORE.INTER.SOLV>
14.6135

>  <SCORE.INTER.VDW>
-19.9171

>  <SCORE.INTER.norm>
-0.697298

>  <SCORE.INTRA>
-3.58241

>  <SCORE.INTRA.DIHEDRAL>
-7.26357

>  <SCORE.INTRA.DIHEDRAL.0>
16.4056

>  <SCORE.INTRA.POLAR>
0

>  <SCORE.INTRA.POLAR.0>
0

>  <SCORE.INTRA.REPUL>
0.0374146

>  <SCORE.INTRA.REPUL.0>
0

>  <SCORE.INTRA.SOLV>
-0.717017

>  <SCORE.INTRA.SOLV.lig_0>
-90.9627

>  <SCORE.INTRA.VDW>
0.220807

>  <SCORE.INTRA.VDW.0>
-3.28744

>  <SCORE.INTRA.norm>
-0.096822

>  <SCORE.RESTR>
0.115996

>  <SCORE.RESTR.CAVITY>
0.115996

>  <SCORE.RESTR.norm>
0.00313503

>  <SCORE.SYSTEM>
0

>  <SCORE.SYSTEM.CONST>
0

>  <SCORE.SYSTEM.DIHEDRAL>
0

>  <SCORE.SYSTEM.SOLV>
0

>  <SCORE.SYSTEM.norm>
0

>  <SCORE.heavy>
37

>  <SCORE.norm>
-0.790985

>  <RMSD>
3.802

$$$$
2oe8_lig
 OpenBabel11021811463D
libRbt.so/2013.1/901 2013/11/27
 37 40  0  0  0  0  0  0  0  0999 V2000
   20.0905    2.0416   53.0331 C   0  0  1  0  0  0  0  0  0  0  0  0
   18.7804    1.2855   53.4753 C   0  0  1  0  0  0  0  0  0  0  0  0
   19.0334   -0.2362   53.4427 C   0  0  0  0  0  0  0  0  0  0  0  0
   19.4172   -0.5797   51.9694 C   0  0  1  0  0  0  0  0  0  0  0  0
   20.7465    0.2039   51.4951 C   0  0  1  0  0  0  0  0  0  0  0  0
   21.1254   -0.1186   50.0199 C   0  0  1  0  0  0  0  0  0  0  0  0
   21.3286   -1.6855   49.9173 C   0  0  1  0  0  0  0  0  0  0  0  0
   20.0301   -2.3996   50.4310 C   0  0  2  0  0  0  0  0  0  0  0  0
   20.5612   -2.2007   47.4591 C   0  0  0  0  0  0  0  0  0  0  0  0
   18.3764    1.6991   54.8566 N   0  0  0  0  0  0  0  0  0  0  0  0
   21.6594   -2.1078   48.4884 N   0  0  0  0  0  0  0  0  0  0  0  0
   21.1813    1.7765   53.9241 O   0  0  0  0  0  0  0  0  0  0  0  0
   20.5158    1.6460   51.6583 O   0  0  0  0  0  0  0  0  0  0  0  0
   19.6596   -2.0105   51.8235 O   0  0  0  0  0  0  0  0  0  0  0  0
   20.0525    0.3463   49.1992 O   0  0  0  0  0  0  0  0  0  0  0  0
   20.2281   -3.7660   50.4008 O   0  0  0  0  0  0  0  0  0  0  0  0
   19.0190   -4.5207   50.5893 C   0  0  2  0  0  0  0  0  0  0  0  0
   19.2772   -6.0233   50.3225 C   0  0  1  0  0  0  0  0  0  0  0  0
   19.6278   -6.2944   48.8273 C   0  0  2  0  0  0  0  0  0  0  0  0
   18.4607   -5.7940   47.9259 C   0  0  1  0  0  0  0  0  0  0  0  0
   18.3072   -4.2387   48.1917 C   0  0  1  0  0  0  0  0  0  0  0  0
   17.1746   -3.6278   47.3715 C   0  0  0  0  0  0  0  0  0  0  0  0
   18.7934   -6.0523   46.4958 N   0  0  0  0  0  0  0  0  0  0  0  0
   17.9817   -4.0270   49.6466 O   0  0  0  0  0  0  0  0  0  0  0  0
   20.3346   -6.4386   51.2082 O   0  0  0  0  0  0  0  0  0  0  0  0
   19.8003   -7.6855   48.6553 O   0  0  0  0  0  0  0  0  0  0  0  0
   17.4990   -3.6902   46.0077 O   0  0  0  0  0  0  0  0  0  0  0  0
   22.3402    2.5335   53.6415 C   0  0  1  0  0  0  0  0  0  0  0  0
   22.2652    3.8622   54.4604 C   0  0  1  0  0  0  0  0  0  0  0  0
   23.5218    4.7209   54.1341 C   0  0  2  0  0  0  0  0  0  0  0  0
   24.8291    3.9484   54.4915 C   0  0  1  0  0  0  0  0  0  0  0  0
   24.9080    2.6005   53.6781 C   0  0  0  0  0  0  0  0  0  0  0  0
   23.6301    1.7266   54.0179 C   0  0  2  0  0  0  0  0  0  0  0  0
   26.0155    4.7874   54.1656 N   0  0  0  0  0  0  0  0  0  0  0  0
   23.7141    0.4619   53.2532 N   0  0  0  0  0  0  0  0  0  0  0  0
   21.0833    4.6034   54.1042 O   0  0  0  0  0  0  0  0  0  0  0  0
   23.4322    5.9149   54.8939 O   0  0  0  0  0  0  0  0  0  0  0  0
  1  2  1  0  0  0  0
  1 12  1  1  0  0  0
  1 13  1  0  0  0  0
  2  3  1  0  0  0  0
  2 10  1  1  0  0  0
  4  3  1  1  0  0  0
  4  5  1  0  0  0  0
  4 14  1  0  0  0  0
  5  6  1  0  0  0  0
  5 13  1  6  0  0  0
  6  7  1  0  0  0  0
  6 15  1  6  0  0  0
  7  8  1  0  0  0  0
  7 11  1  6  0  0  0
  8 14  1  0  0  0  0
  8 16  1  1  0  0  0
  9 11  1  0  0  0  0
 17 16  1  6  0  0  0
 17 18  1  0  0  0  0
 17 24  1  0  0  0  0
 18 19  1  0  0  0  0
 18 25  1  1  0  0  0
 19 20  1  0  0  0  0
 19 26  1  1  0  0  0
 20 21  1  0  0  0  0
 20 23  1  6  0  0  0
 21 22  1  6  0  0  0
 21 24  1  0  0  0  0
 22 27  1  0  0  0  0
 28 12  1  1  0  0  0
 28 29  1  0  0  0  0
 28 33  1  0  0  0  0
 29 30  1  0  0  0  0
 29 36  1  6  0  0  0
 30 31  1  0  0  0  0
 30 37  1  1  0  0  0
 31 32  1  0  0  0  0
 31 34  1  6  0  0  0
 32 33  1  0  0  0  0
 33 35  1  6  0  0  0
M  END
>  <CHROM.1>
-174.24018624,-77.95143157,-168.03212905,171.09691667,-66.14403663,90.47002363
20.64612501,-0.81721320,51.26148616,1.20722690,-0.05616610,0.55389958

>  <Name>
2oe8_lig

>  <RI>
0

>  <Rbt.Current_Directory>
/home/itssahil/PROJECTS/Mol_Feturizer/New_Systems/rnas/2oe8

>  <Rbt.Executable>
rbdock ($Id: //depot/dev/client3/rdock/2013.1/src/exe/rbdock.cxx#4 $)

>  <Rbt.Library>
libRbt.so (2013.1, Build901 2013/11/27)

>  <Rbt.Parameter_File>
/export/apps/rDock/src/rDock_2013.1_src/data/scripts/dock_solv.prm

>  <Rbt.Receptor>
prm/pocket_docking_8.prm

>  <SCORE>
-24.705

>  <SCORE.INTER>
-20.4025

>  <SCORE.INTER.CONST>
1

>  <SCORE.INTER.POLAR>
-1.68449

>  <SCORE.INTER.ROT>
6

>  <SCORE.INTER.SOLV>
11.4157

>  <SCORE.INTER.VDW>
-19.3919

>  <SCORE.INTER.norm>
-0.551418

>  <SCORE.INTRA>
-4.30254

>  <SCORE.INTRA.DIHEDRAL>
-11.0438

>  <SCORE.INTRA.DIHEDRAL.0>
16.4056

>  <SCORE.INTRA.POLAR>
0

>  <SCORE.INTRA.POLAR.0>
0

>  <SCORE.INTRA.REPUL>
0

>  <SCORE.INTRA.REPUL.0>
0

>  <SCORE.INTRA.SOLV>
-0.156423

>  <SCORE.INTRA.SOLV.lig_0>
-90.9627

>  <SCORE.INTRA.VDW>
1.29758

>  <SCORE.INTRA.VDW.0>
-3.28744

>  <SCORE.INTRA.norm>
-0.116285

>  <SCORE.RESTR>
0

>  <SCORE.RESTR.CAVITY>
0

>  <SCORE.RESTR.norm>
0

>  <SCORE.SYSTEM>
0

>  <SCORE.SYSTEM.CONST>
0

>  <SCORE.SYSTEM.DIHEDRAL>
0

>  <SCORE.SYSTEM.SOLV>
0

>  <SCORE.SYSTEM.norm>
0

>  <SCORE.heavy>
37

>  <SCORE.norm>
-0.667703

>  <RMSD>
3.848

$$$$
2oe8_lig
 OpenBabel11021811463D
libRbt.so/2013.1/901 2013/11/27
 37 40  0  0  0  0  0  0  0  0999 V2000
   22.1607   -2.2157   52.8201 C   0  0  1  0  0  0  0  0  0  0  0  0
   23.3151   -2.4502   51.7732 C   0  0  1  0  0  0  0  0  0  0  0  0
   22.8055   -2.0904   50.3620 C   0  0  0  0  0  0  0  0  0  0  0  0
   21.5907   -3.0310   50.0875 C   0  0  1  0  0  0  0  0  0  0  0  0
   20.4079   -2.8167   51.1650 C   0  0  1  0  0  0  0  0  0  0  0  0
   19.1998   -3.7651   50.9096 C   0  0  1  0  0  0  0  0  0  0  0  0
   18.6813   -3.4827   49.4405 C   0  0  1  0  0  0  0  0  0  0  0  0
   19.8754   -3.6590   48.4390 C   0  0  2  0  0  0  0  0  0  0  0  0
   17.6278   -5.8857   49.3312 C   0  0  0  0  0  0  0  0  0  0  0  0
   24.5067   -1.6074   52.1081 N   0  0  0  0  0  0  0  0  0  0  0  0
   17.5192   -4.4032   49.0778 N   0  0  0  0  0  0  0  0  0  0  0  0
   21.7504   -0.8430   52.8574 O   0  0  0  0  0  0  0  0  0  0  0  0
   20.9593   -3.0444   52.5080 O   0  0  0  0  0  0  0  0  0  0  0  0
   21.0419   -2.7846   48.7589 O   0  0  0  0  0  0  0  0  0  0  0  0
   19.6741   -5.1028   51.0721 O   0  0  0  0  0  0  0  0  0  0  0  0
   19.4405   -3.3526   47.1646 O   0  0  0  0  0  0  0  0  0  0  0  0
   20.3507   -3.7760   46.1354 C   0  0  2  0  0  0  0  0  0  0  0  0
   19.7403   -3.5129   44.7376 C   0  0  1  0  0  0  0  0  0  0  0  0
   18.4837   -4.3993   44.4779 C   0  0  2  0  0  0  0  0  0  0  0  0
   18.8776   -5.9006   44.6048 C   0  0  1  0  0  0  0  0  0  0  0  0
   19.4169   -6.1126   46.0805 C   0  0  1  0  0  0  0  0  0  0  0  0
   19.8543   -7.5536   46.3276 C   0  0  0  0  0  0  0  0  0  0  0  0
   17.6780   -6.7502   44.3567 N   0  0  0  0  0  0  0  0  0  0  0  0
   20.6191   -5.2297   46.2869 O   0  0  0  0  0  0  0  0  0  0  0  0
   19.4334   -2.1075   44.6634 O   0  0  0  0  0  0  0  0  0  0  0  0
   18.0165   -4.1379   43.1711 O   0  0  0  0  0  0  0  0  0  0  0  0
   18.7219   -8.3573   46.5299 O   0  0  0  0  0  0  0  0  0  0  0  0
   20.6619   -0.6008   53.7247 C   0  0  1  0  0  0  0  0  0  0  0  0
   21.1643   -0.7681   55.1948 C   0  0  1  0  0  0  0  0  0  0  0  0
   19.9665   -0.5346   56.1611 C   0  0  2  0  0  0  0  0  0  0  0  0
   19.3644    0.8908   55.9633 C   0  0  1  0  0  0  0  0  0  0  0  0
   18.8647    1.0728   54.4793 C   0  0  0  0  0  0  0  0  0  0  0  0
   20.0885    0.8405   53.4992 C   0  0  2  0  0  0  0  0  0  0  0  0
   18.2183    1.0874   56.8936 N   0  0  0  0  0  0  0  0  0  0  0  0
   19.6117    1.0169   52.1090 N   0  0  0  0  0  0  0  0  0  0  0  0
   21.6815   -2.0963   55.3987 O   0  0  0  0  0  0  0  0  0  0  0  0
   20.4505   -0.6852   57.4854 O   0  0  0  0  0  0  0  0  0  0  0  0
  1  2  1  0  0  0  0
  1 12  1  6  0  0  0
  1 13  1  0  0  0  0
  2  3  1  0  0  0  0
  2 10  1  1  0  0  0
  4  3  1  1  0  0  0
  4  5  1  0  0  0  0
  4 14  1  0  0  0  0
  5  6  1  0  0  0  0
  5 13  1  1  0  0  0
  6  7  1  0  0  0  0
  6 15  1  6  0  0  0
  7  8  1  0  0  0  0
  7 11  1  6  0  0  0
  8 14  1  0  0  0  0
  8 16  1  6  0  0  0
  9 11  1  0  0  0  0
 17 16  1  1  0  0  0
 17 18  1  0  0  0  0
 17 24  1  0  0  0  0
 18 19  1  0  0  0  0
 18 25  1  1  0  0  0
 19 20  1  0  0  0  0
 19 26  1  6  0  0  0
 20 21  1  0  0  0  0
 20 23  1  1  0  0  0
 21 22  1  6  0  0  0
 21 24  1  0  0  0  0
 22 27  1  0  0  0  0
 28 12  1  6  0  0  0
 28 29  1  0  0  0  0
 28 33  1  0  0  0  0
 29 30  1  0  0  0  0
 29 36  1  6  0  0  0
 30 31  1  0  0  0  0
 30 37  1  1  0  0  0
 31 32  1  0  0  0  0
 31 34  1  1  0  0  0
 32 33  1  0  0  0  0
 33 35  1  6  0  0  0
M  END
>  <CHROM.1>
176.40618024,-48.51393810,-166.25820046,174.98341541,-77.55745807,70.19727791
20.04454100,-2.95826691,50.13772886,-1.22804433,-1.13093069,-1.73739502

>  <Name>
2oe8_lig

>  <RI>
0

>  <Rbt.Current_Directory>
/home/itssahil/PROJECTS/Mol_Feturizer/New_Systems/rnas/2oe8

>  <Rbt.Executable>
rbdock ($Id: //depot/dev/client3/rdock/2013.1/src/exe/rbdock.cxx#4 $)

>  <Rbt.Library>
libRbt.so (2013.1, Build901 2013/11/27)

>  <Rbt.Parameter_File>
/export/apps/rDock/src/rDock_2013.1_src/data/scripts/dock_solv.prm

>  <Rbt.Receptor>
prm/pocket_docking_4.prm

>  <SCORE>
-24.1462

>  <SCORE.INTER>
-19.4931

>  <SCORE.INTER.CONST>
1

>  <SCORE.INTER.POLAR>
-2.30481

>  <SCORE.INTER.ROT>
6

>  <SCORE.INTER.SOLV>
13.7682

>  <SCORE.INTER.VDW>
-17.5021

>  <SCORE.INTER.norm>
-0.526839

>  <SCORE.INTRA>
-4.65318

>  <SCORE.INTRA.DIHEDRAL>
-13.6151

>  <SCORE.INTRA.DIHEDRAL.0>
16.4056

>  <SCORE.INTRA.POLAR>
0

>  <SCORE.INTRA.POLAR.0>
0

>  <SCORE.INTRA.REPUL>
0

>  <SCORE.INTRA.REPUL.0>
0

>  <SCORE.INTRA.SOLV>
-1.86493

>  <SCORE.INTRA.SOLV.lig_0>
-90.9627

>  <SCORE.INTRA.VDW>
3.08685

>  <SCORE.INTRA.VDW.0>
-3.28744

>  <SCORE.INTRA.norm>
-0.125762

>  <SCORE.RESTR>
0

>  <SCORE.RESTR.CAVITY>
0

>  <SCORE.RESTR.norm>
0

>  <SCORE.SYSTEM>
0

>  <SCORE.SYSTEM.CONST>
0

>  <SCORE.SYSTEM.DIHEDRAL>
0

>  <SCORE.SYSTEM.SOLV>
0

>  <SCORE.SYSTEM.norm>
0

>  <SCORE.heavy>
37

>  <SCORE.norm>
-0.652601

>  <RMSD>
3.976

$$$$
2oe8_lig
 OpenBabel11021811463D
libRbt.so/2013.1/901 2013/11/27
 37 40  0  0  0  0  0  0  0  0999 V2000
   21.9393    1.0480   52.0323 C   0  0  1  0  0  0  0  0  0  0  0  0
   22.6187    0.9942   50.6114 C   0  0  1  0  0  0  0  0  0  0  0  0
   21.5409    0.7284   49.5398 C   0  0  0  0  0  0  0  0  0  0  0  0
   20.8907   -0.6412   49.9102 C   0  0  1  0  0  0  0  0  0  0  0  0
   20.2082   -0.6077   51.3728 C   0  0  1  0  0  0  0  0  0  0  0  0
   19.5737   -1.9763   51.7580 C   0  0  1  0  0  0  0  0  0  0  0  0
   18.5040   -2.3296   50.6454 C   0  0  1  0  0  0  0  0  0  0  0  0
   19.2048   -2.3045   49.2425 C   0  0  2  0  0  0  0  0  0  0  0  0
   18.6973   -4.9371   50.8910 C   0  0  0  0  0  0  0  0  0  0  0  0
   23.3167    2.2852   50.3139 N   0  0  0  0  0  0  0  0  0  0  0  0
   17.8563   -3.6857   50.9120 N   0  0  0  0  0  0  0  0  0  0  0  0
   20.9838    2.1123   52.1225 O   0  0  0  0  0  0  0  0  0  0  0  0
   21.2349   -0.2281   52.3532 O   0  0  0  0  0  0  0  0  0  0  0  0
   19.8625   -0.9993   48.9397 O   0  0  0  0  0  0  0  0  0  0  0  0
   20.6354   -2.9303   51.8154 O   0  0  0  0  0  0  0  0  0  0  0  0
   18.2608   -2.5512   48.2653 O   0  0  0  0  0  0  0  0  0  0  0  0
   18.6884   -3.5191   47.2920 C   0  0  2  0  0  0  0  0  0  0  0  0
   17.8713   -3.3646   45.9866 C   0  0  1  0  0  0  0  0  0  0  0  0
   16.3684   -3.7233   46.1978 C   0  0  2  0  0  0  0  0  0  0  0  0
   16.2565   -5.1871   46.7172 C   0  0  1  0  0  0  0  0  0  0  0  0
   17.0454   -5.2504   48.0908 C   0  0  1  0  0  0  0  0  0  0  0  0
   17.0233   -6.6501   48.6985 C   0  0  0  0  0  0  0  0  0  0  0  0
   14.8204   -5.5325   46.9197 N   0  0  0  0  0  0  0  0  0  0  0  0
   18.4845   -4.8859   47.8386 O   0  0  0  0  0  0  0  0  0  0  0  0
   18.0434   -2.0083   45.5332 O   0  0  0  0  0  0  0  0  0  0  0  0
   15.7036   -3.6055   44.9574 O   0  0  0  0  0  0  0  0  0  0  0  0
   15.7700   -6.8855   49.2841 O   0  0  0  0  0  0  0  0  0  0  0  0
   20.3234    2.1764   53.3698 C   0  0  1  0  0  0  0  0  0  0  0  0
   21.1887    3.0497   54.3342 C   0  0  1  0  0  0  0  0  0  0  0  0
   20.4880    3.1027   55.7231 C   0  0  2  0  0  0  0  0  0  0  0  0
   19.0553    3.7074   55.5985 C   0  0  1  0  0  0  0  0  0  0  0  0
   18.1782    2.8389   54.6182 C   0  0  0  0  0  0  0  0  0  0  0  0
   18.8919    2.7926   53.2037 C   0  0  2  0  0  0  0  0  0  0  0  0
   18.4047    3.7423   56.9375 N   0  0  0  0  0  0  0  0  0  0  0  0
   18.0601    1.9787   52.2889 N   0  0  0  0  0  0  0  0  0  0  0  0
   22.4993    2.4742   54.4901 O   0  0  0  0  0  0  0  0  0  0  0  0
   21.2886    3.9053   56.5751 O   0  0  0  0  0  0  0  0  0  0  0  0
  1  2  1  0  0  0  0
  1 12  1  6  0  0  0
  1 13  1  0  0  0  0
  2  3  1  0  0  0  0
  2 10  1  6  0  0  0
  4  3  1  6  0  0  0
  4  5  1  0  0  0  0
  4 14  1  0  0  0  0
  5  6  1  0  0  0  0
  5 13  1  1  0  0  0
  6  7  1  0  0  0  0
  6 15  1  6  0  0  0
  7  8  1  0  0  0  0
  7 11  1  1  0  0  0
  8 14  1  0  0  0  0
  8 16  1  6  0  0  0
  9 11  1  0  0  0  0
 17 16  1  1  0  0  0
 17 18  1  0  0  0  0
 17 24  1  0  0  0  0
 18 19  1  0  0  0  0
 18 25  1  1  0  0  0
 19 20  1  0  0  0  0
 19 26  1  6  0  0  0
 20 21  1  0  0  0  0
 20 23  1  1  0  0  0
 21 22  1  6  0  0  0
 21 24  1  0  0  0  0
 22 27  1  0  0  0  0
 28 12  1  6  0  0  0
 28 29  1  0  0  0  0
 28 33  1  0  0  0  0
 29 30  1  0  0  0  0
 29 36  1  1  0  0  0
 30 31  1  0  0  0  0
 30 37  1  1  0  0  0
 31 32  1  0  0  0  0
 31 34  1  1  0  0  0
 32 33  1  0  0  0  0
 33 35  1  6  0  0  0
M  END
>  <CHROM.1>
178.42532865,-63.36773513,-133.61094744,-158.72287589,-76.71251831,87.35829372
19.18330342,-1.03102020,50.66517965,-1.10460479,-0.72846008,-2.06327002

>  <Name>
2oe8_lig

>  <RI>
0

>  <Rbt.Current_Directory>
/home/itssahil/PROJECTS/Mol_Feturizer/New_Systems/rnas/2oe8

>  <Rbt.Executable>
rbdock ($Id: //depot/dev/client3/rdock/2013.1/src/exe/rbdock.cxx#4 $)

>  <Rbt.Library>
libRbt.so (2013.1, Build901 2013/11/27)

>  <Rbt.Parameter_File>
/export/apps/rDock/src/rDock_2013.1_src/data/scripts/dock_solv.prm

>  <Rbt.Receptor>
prm/pocket_docking_6.prm

>  <SCORE>
-21.2511

>  <SCORE.INTER>
-20.3834

>  <SCORE.INTER.CONST>
1

>  <SCORE.INTER.POLAR>
-2.33988

>  <SCORE.INTER.ROT>
6

>  <SCORE.INTER.SOLV>
26.9662

>  <SCORE.INTER.VDW>
-22.3781

>  <SCORE.INTER.norm>
-0.550902

>  <SCORE.INTRA>
-0.867698

>  <SCORE.INTRA.DIHEDRAL>
-3.9906

>  <SCORE.INTRA.DIHEDRAL.0>
16.4056

>  <SCORE.INTRA.POLAR>
0

>  <SCORE.INTRA.POLAR.0>
0

>  <SCORE.INTRA.REPUL>
0

>  <SCORE.INTRA.REPUL.0>
0

>  <SCORE.INTRA.SOLV>
0.0847081

>  <SCORE.INTRA.SOLV.lig_0>
-90.9627

>  <SCORE.INTRA.VDW>
1.08525

>  <SCORE.INTRA.VDW.0>
-3.28744

>  <SCORE.INTRA.norm>
-0.0234513

>  <SCORE.RESTR>
0

>  <SCORE.RESTR.CAVITY>
0

>  <SCORE.RESTR.norm>
0

>  <SCORE.SYSTEM>
0

>  <SCORE.SYSTEM.CONST>
0

>  <SCORE.SYSTEM.DIHEDRAL>
0

>  <SCORE.SYSTEM.SOLV>
0

>  <SCORE.SYSTEM.norm>
0

>  <SCORE.heavy>
37

>  <SCORE.norm>
-0.574353

>  <RMSD>
4.018

$$$$
2oe8_lig
 OpenBabel11021811463D
libRbt.so/2013.1/901 2013/11/27
 37 40  0  0  0  0  0  0  0  0999 V2000
   19.9206   -1.3851   52.6301 C   0  0  1  0  0  0  0  0  0  0  0  0
   21.2187   -0.9924   51.8275 C   0  0  1  0  0  0  0  0  0  0  0  0
   20.8645   -0.8219   50.3355 C   0  0  0  0  0  0  0  0  0  0  0  0
   20.3007   -2.1989   49.8643 C   0  0  1  0  0  0  0  0  0  0  0  0
   18.9818   -2.6245   50.6922 C   0  0  1  0  0  0  0  0  0  0  0  0
   18.4240   -4.0063   50.2412 C   0  0  1  0  0  0  0  0  0  0  0  0
   18.1086   -3.9047   48.6929 C   0  0  1  0  0  0  0  0  0  0  0  0
   19.4058   -3.4450   47.9406 C   0  0  2  0  0  0  0  0  0  0  0  0
   16.6023   -6.0417   48.9394 C   0  0  0  0  0  0  0  0  0  0  0  0
   21.7972    0.2834   52.3565 N   0  0  0  0  0  0  0  0  0  0  0  0
   17.5970   -5.2340   48.1445 N   0  0  0  0  0  0  0  0  0  0  0  0
   18.9184   -0.3638   52.5489 O   0  0  0  0  0  0  0  0  0  0  0  0
   19.3229   -2.6546   52.1212 O   0  0  0  0  0  0  0  0  0  0  0  0
   19.9505   -2.1519   48.4493 O   0  0  0  0  0  0  0  0  0  0  0  0
   19.4292   -4.9796   50.5295 O   0  0  0  0  0  0  0  0  0  0  0  0
   19.1166   -3.2957   46.5986 O   0  0  0  0  0  0  0  0  0  0  0  0
   20.1364   -3.8245   45.7342 C   0  0  2  0  0  0  0  0  0  0  0  0
   19.7136   -3.6772   44.2526 C   0  0  1  0  0  0  0  0  0  0  0  0
   18.4752   -4.5620   43.9126 C   0  0  2  0  0  0  0  0  0  0  0  0
   18.8080   -6.0524   44.2180 C   0  0  1  0  0  0  0  0  0  0  0  0
   19.1519   -6.1407   45.7630 C   0  0  1  0  0  0  0  0  0  0  0  0
   19.5143   -7.5610   46.1875 C   0  0  0  0  0  0  0  0  0  0  0  0
   17.6256   -6.9005   43.8935 N   0  0  0  0  0  0  0  0  0  0  0  0
   20.3430   -5.2632   46.0438 O   0  0  0  0  0  0  0  0  0  0  0  0
   19.4578   -2.2790   44.0186 O   0  0  0  0  0  0  0  0  0  0  0  0
   18.1830   -4.4106   42.5393 O   0  0  0  0  0  0  0  0  0  0  0  0
   18.3786   -8.3801   46.0964 O   0  0  0  0  0  0  0  0  0  0  0  0
   19.1453    0.7230   53.4225 C   0  0  1  0  0  0  0  0  0  0  0  0
   18.1641    1.8746   53.0316 C   0  0  1  0  0  0  0  0  0  0  0  0
   18.4251    3.0913   53.9668 C   0  0  2  0  0  0  0  0  0  0  0  0
   18.2145    2.6969   55.4613 C   0  0  1  0  0  0  0  0  0  0  0  0
   19.1928    1.5276   55.8618 C   0  0  0  0  0  0  0  0  0  0  0  0
   18.9196    0.2888   54.9115 C   0  0  2  0  0  0  0  0  0  0  0  0
   18.4751    3.8744   56.3349 N   0  0  0  0  0  0  0  0  0  0  0  0
   19.8393   -0.8053   55.2967 N   0  0  0  0  0  0  0  0  0  0  0  0
   18.3820    2.2755   51.6660 O   0  0  0  0  0  0  0  0  0  0  0  0
   17.5189    4.1170   53.5959 O   0  0  0  0  0  0  0  0  0  0  0  0
  1  2  1  0  0  0  0
  1 12  1  6  0  0  0
  1 13  1  0  0  0  0
  2  3  1  0  0  0  0
  2 10  1  1  0  0  0
  4  3  1  1  0  0  0
  4  5  1  0  0  0  0
  4 14  1  0  0  0  0
  5  6  1  0  0  0  0
  5 13  1  1  0  0  0
  6  7  1  0  0  0  0
  6 15  1  6  0  0  0
  7  8  1  0  0  0  0
  7 11  1  6  0  0  0
  8 14  1  0  0  0  0
  8 16  1  6  0  0  0
  9 11  1  0  0  0  0
 17 16  1  1  0  0  0
 17 18  1  0  0  0  0
 17 24  1  0  0  0  0
 18 19  1  0  0  0  0
 18 25  1  1  0  0  0
 19 20  1  0  0  0  0
 19 26  1  6  0  0  0
 20 21  1  0  0  0  0
 20 23  1  1  0  0  0
 21 22  1  6  0  0  0
 21 24  1  0  0  0  0
 22 27  1  0  0  0  0
 28 12  1  6  0  0  0
 28 29  1  0  0  0  0
 28 33  1  0  0  0  0
 29 30  1  0  0  0  0
 29 36  1  6  0  0  0
 30 31  1  0  0  0  0
 30 37  1  6  0  0  0
 31 32  1  0  0  0  0
 31 34  1  1  0  0  0
 32 33  1  0  0  0  0
 33 35  1  1  0  0  0
M  END
>  <CHROM.1>
-79.35915057,42.17454551,-137.34231115,177.50629497,-67.75640752,168.66563514
19.07139882,-2.27397332,49.62721546,0.94593923,1.55133837,1.52062250

>  <Name>
2oe8_lig

>  <RI>
0

>  <Rbt.Current_Directory>
/home/itssahil/PROJECTS/Mol_Feturizer/New_Systems/rnas/2oe8

>  <Rbt.Executable>
rbdock ($Id: //depot/dev/client3/rdock/2013.1/src/exe/rbdock.cxx#4 $)

>  <Rbt.Library>
libRbt.so (2013.1, Build901 2013/11/27)

>  <Rbt.Parameter_File>
/export/apps/rDock/src/rDock_2013.1_src/data/scripts/dock_solv.prm

>  <Rbt.Receptor>
prm/pocket_docking_6.prm

>  <SCORE>
-20.627

>  <SCORE.INTER>
-19.536

>  <SCORE.INTER.CONST>
1

>  <SCORE.INTER.POLAR>
-1.75285

>  <SCORE.INTER.ROT>
6

>  <SCORE.INTER.SOLV>
13.1434

>  <SCORE.INTER.VDW>
-19.1623

>  <SCORE.INTER.norm>
-0.528

>  <SCORE.INTRA>
-1.09102

>  <SCORE.INTRA.DIHEDRAL>
-7.79122

>  <SCORE.INTRA.DIHEDRAL.0>
16.4056

>  <SCORE.INTRA.POLAR>
0

>  <SCORE.INTRA.POLAR.0>
0

>  <SCORE.INTRA.REPUL>
0

>  <SCORE.INTRA.REPUL.0>
0

>  <SCORE.INTRA.SOLV>
3.30678

>  <SCORE.INTRA.SOLV.lig_0>
-90.9627

>  <SCORE.INTRA.VDW>
1.1512

>  <SCORE.INTRA.VDW.0>
-3.28744

>  <SCORE.INTRA.norm>
-0.0294871

>  <SCORE.RESTR>
0

>  <SCORE.RESTR.CAVITY>
0

>  <SCORE.RESTR.norm>
0

>  <SCORE.SYSTEM>
0

>  <SCORE.SYSTEM.CONST>
0

>  <SCORE.SYSTEM.DIHEDRAL>
0

>  <SCORE.SYSTEM.SOLV>
0

>  <SCORE.SYSTEM.norm>
0

>  <SCORE.heavy>
37

>  <SCORE.norm>
-0.557487

>  <RMSD>
4.020

$$$$
2oe8_lig
 OpenBabel11021811463D
libRbt.so/2013.1/901 2013/11/27
 37 40  0  0  0  0  0  0  0  0999 V2000
   19.9240   -1.3750   52.6043 C   0  0  1  0  0  0  0  0  0  0  0  0
   21.2168   -0.9937   51.7879 C   0  0  1  0  0  0  0  0  0  0  0  0
   20.8515   -0.8371   50.2970 C   0  0  0  0  0  0  0  0  0  0  0  0
   20.2806   -2.2172   49.8439 C   0  0  1  0  0  0  0  0  0  0  0  0
   18.9671   -2.6311   50.6861 C   0  0  1  0  0  0  0  0  0  0  0  0
   18.4023   -4.0159   50.2532 C   0  0  1  0  0  0  0  0  0  0  0  0
   18.0752   -3.9288   48.7065 C   0  0  1  0  0  0  0  0  0  0  0  0
   19.3677   -3.4800   47.9397 C   0  0  2  0  0  0  0  0  0  0  0  0
   16.5718   -6.0634   48.9896 C   0  0  0  0  0  0  0  0  0  0  0  0
   21.8026    0.2858   52.2997 N   0  0  0  0  0  0  0  0  0  0  0  0
   17.5560   -5.2621   48.1753 N   0  0  0  0  0  0  0  0  0  0  0  0
   18.9238   -0.3520   52.5207 O   0  0  0  0  0  0  0  0  0  0  0  0
   19.3192   -2.6479   52.1127 O   0  0  0  0  0  0  0  0  0  0  0  0
   19.9196   -2.1833   48.4312 O   0  0  0  0  0  0  0  0  0  0  0  0
   19.4072   -4.9889   50.5435 O   0  0  0  0  0  0  0  0  0  0  0  0
   19.0684   -3.3433   46.5985 O   0  0  0  0  0  0  0  0  0  0  0  0
   20.0912   -3.8617   45.7313 C   0  0  2  0  0  0  0  0  0  0  0  0
   19.6678   -3.7085   44.2504 C   0  0  1  0  0  0  0  0  0  0  0  0
   18.4343   -4.5982   43.9054 C   0  0  2  0  0  0  0  0  0  0  0  0
   18.7751   -6.0884   44.2026 C   0  0  1  0  0  0  0  0  0  0  0  0
   19.1193   -6.1833   45.7472 C   0  0  1  0  0  0  0  0  0  0  0  0
   19.4895   -7.6040   46.1638 C   0  0  0  0  0  0  0  0  0  0  0  0
   17.5974   -6.9411   43.8733 N   0  0  0  0  0  0  0  0  0  0  0  0
   20.3056   -5.3010   46.0329 O   0  0  0  0  0  0  0  0  0  0  0  0
   19.4044   -2.3105   44.0242 O   0  0  0  0  0  0  0  0  0  0  0  0
   18.1413   -4.4407   42.5329 O   0  0  0  0  0  0  0  0  0  0  0  0
   19.8109   -7.6215   47.5297 O   0  0  0  0  0  0  0  0  0  0  0  0
   19.1437    0.7285   53.4038 C   0  0  1  0  0  0  0  0  0  0  0  0
   18.1540    1.8765   53.0242 C   0  0  1  0  0  0  0  0  0  0  0  0
   18.4071    3.0866   53.9700 C   0  0  2  0  0  0  0  0  0  0  0  0
   18.2008    2.6773   55.4611 C   0  0  1  0  0  0  0  0  0  0  0  0
   19.1878    1.5115   55.8502 C   0  0  0  0  0  0  0  0  0  0  0  0
   18.9226    0.2794   54.8891 C   0  0  2  0  0  0  0  0  0  0  0  0
   18.4537    3.8488   56.3450 N   0  0  0  0  0  0  0  0  0  0  0  0
   19.8505   -0.8115   55.2636 N   0  0  0  0  0  0  0  0  0  0  0  0
   18.3676    2.2912   51.6620 O   0  0  0  0  0  0  0  0  0  0  0  0
   17.4932    4.1091   53.6092 O   0  0  0  0  0  0  0  0  0  0  0  0
  1  2  1  0  0  0  0
  1 12  1  6  0  0  0
  1 13  1  0  0  0  0
  2  3  1  0  0  0  0
  2 10  1  1  0  0  0
  4  3  1  1  0  0  0
  4  5  1  0  0  0  0
  4 14  1  0  0  0  0
  5  6  1  0  0  0  0
  5 13  1  1  0  0  0
  6  7  1  0  0  0  0
  6 15  1  6  0  0  0
  7  8  1  0  0  0  0
  7 11  1  6  0  0  0
  8 14  1  0  0  0  0
  8 16  1  6  0  0  0
  9 11  1  0  0  0  0
 17 16  1  1  0  0  0
 17 18  1  0  0  0  0
 17 24  1  0  0  0  0
 18 19  1  0  0  0  0
 18 25  1  1  0  0  0
 19 20  1  0  0  0  0
 19 26  1  6  0  0  0
 20 21  1  0  0  0  0
 20 23  1  1  0  0  0
 21 22  1  6  0  0  0
 21 24  1  0  0  0  0
 22 27  1  0  0  0  0
 28 12  1  6  0  0  0
 28 29  1  0  0  0  0
 28 33  1  0  0  0  0
 29 30  1  0  0  0  0
 29 36  1  6  0  0  0
 30 31  1  0  0  0  0
 30 37  1  6  0  0  0
 31 32  1  0  0  0  0
 31 34  1  1  0  0  0
 32 33  1  0  0  0  0
 33 35  1  1  0  0  0
M  END
>  <CHROM.1>
-80.73571104,41.80266053,-138.39369442,178.43884147,178.74066373,169.43762433
19.09376788,-2.26828010,49.66336695,-1.53769358,1.50737333,-2.27724439

>  <Name>
2oe8_lig

>  <RI>
0

>  <Rbt.Current_Directory>
/home/itssahil/PROJECTS/Mol_Feturizer/New_Systems/rnas/2oe8

>  <Rbt.Executable>
rbdock ($Id: //depot/dev/client3/rdock/2013.1/src/exe/rbdock.cxx#4 $)

>  <Rbt.Library>
libRbt.so (2013.1, Build901 2013/11/27)

>  <Rbt.Parameter_File>
/export/apps/rDock/src/rDock_2013.1_src/data/scripts/dock_solv.prm

>  <Rbt.Receptor>
prm/pocket_docking_4.prm

>  <SCORE>
-21.5824

>  <SCORE.INTER>
-19.7056

>  <SCORE.INTER.CONST>
1

>  <SCORE.INTER.POLAR>
-1.7613

>  <SCORE.INTER.ROT>
6

>  <SCORE.INTER.SOLV>
13.1749

>  <SCORE.INTER.VDW>
-19.2577

>  <SCORE.INTER.norm>
-0.532583

>  <SCORE.INTRA>
-1.87684

>  <SCORE.INTRA.DIHEDRAL>
-8.02403

>  <SCORE.INTRA.DIHEDRAL.0>
16.4056

>  <SCORE.INTRA.POLAR>
0

>  <SCORE.INTRA.POLAR.0>
0

>  <SCORE.INTRA.REPUL>
0

>  <SCORE.INTRA.REPUL.0>
0

>  <SCORE.INTRA.SOLV>
2.46568

>  <SCORE.INTRA.SOLV.lig_0>
-90.9627

>  <SCORE.INTRA.VDW>
0.902337

>  <SCORE.INTRA.VDW.0>
-3.28744

>  <SCORE.INTRA.norm>
-0.0507254

>  <SCORE.RESTR>
0

>  <SCORE.RESTR.CAVITY>
0

>  <SCORE.RESTR.norm>
0

>  <SCORE.SYSTEM>
0

>  <SCORE.SYSTEM.CONST>
0

>  <SCORE.SYSTEM.DIHEDRAL>
0

>  <SCORE.SYSTEM.SOLV>
0

>  <SCORE.SYSTEM.norm>
0

>  <SCORE.heavy>
37

>  <SCORE.norm>
-0.583309

>  <RMSD>
4.022

$$$$
2oe8_lig
 OpenBabel11021811463D
libRbt.so/2013.1/901 2013/11/27
 37 40  0  0  0  0  0  0  0  0999 V2000
   22.2806   -0.0370   52.5253 C   0  0  1  0  0  0  0  0  0  0  0  0
   23.4272   -0.4282   51.5175 C   0  0  1  0  0  0  0  0  0  0  0  0
   22.8224   -0.6434   50.1145 C   0  0  0  0  0  0  0  0  0  0  0  0
   21.7808   -1.7960   50.2643 C   0  0  1  0  0  0  0  0  0  0  0  0
   20.6105   -1.4176   51.3098 C   0  0  1  0  0  0  0  0  0  0  0  0
   19.5773   -2.5699   51.4795 C   0  0  1  0  0  0  0  0  0  0  0  0
   18.9754   -2.8778   50.0478 C   0  0  1  0  0  0  0  0  0  0  0  0
   20.1524   -3.1937   49.0605 C   0  0  2  0  0  0  0  0  0  0  0  0
   18.4788   -5.4560   50.1031 C   0  0  0  0  0  0  0  0  0  0  0  0
   24.4648    0.6499   51.4584 N   0  0  0  0  0  0  0  0  0  0  0  0
   17.9796   -4.0331   50.1034 N   0  0  0  0  0  0  0  0  0  0  0  0
   21.6408    1.1892   52.1495 O   0  0  0  0  0  0  0  0  0  0  0  0
   21.2316   -1.0959   52.6022 O   0  0  0  0  0  0  0  0  0  0  0  0
   21.1594   -2.0951   48.9791 O   0  0  0  0  0  0  0  0  0  0  0  0
   20.2798   -3.6870   52.0267 O   0  0  0  0  0  0  0  0  0  0  0  0
   19.6344   -3.4015   47.7973 O   0  0  0  0  0  0  0  0  0  0  0  0
   20.6099   -3.8736   46.8526 C   0  0  2  0  0  0  0  0  0  0  0  0
   20.4515   -3.1336   45.5024 C   0  0  1  0  0  0  0  0  0  0  0  0
   19.0984   -3.4784   44.8080 C   0  0  2  0  0  0  0  0  0  0  0  0
   19.0156   -5.0163   44.5768 C   0  0  1  0  0  0  0  0  0  0  0  0
   19.1034   -5.7022   46.0034 C   0  0  1  0  0  0  0  0  0  0  0  0
   19.0489   -7.2244   45.9099 C   0  0  0  0  0  0  0  0  0  0  0  0
   17.7228   -5.3485   43.9128 N   0  0  0  0  0  0  0  0  0  0  0  0
   20.4178   -5.3314   46.6376 O   0  0  0  0  0  0  0  0  0  0  0  0
   20.5758   -1.7239   45.7710 O   0  0  0  0  0  0  0  0  0  0  0  0
   19.0507   -2.8066   43.5667 O   0  0  0  0  0  0  0  0  0  0  0  0
   19.4169   -7.7818   47.1440 O   0  0  0  0  0  0  0  0  0  0  0  0
   20.6521    1.6155   53.0641 C   0  0  1  0  0  0  0  0  0  0  0  0
   21.2897    2.6874   54.0055 C   0  0  1  0  0  0  0  0  0  0  0  0
   20.2193    3.1433   55.0395 C   0  0  2  0  0  0  0  0  0  0  0  0
   18.9721    3.7422   54.3187 C   0  0  1  0  0  0  0  0  0  0  0  0
   18.3285    2.6711   53.3579 C   0  0  0  0  0  0  0  0  0  0  0  0
   19.4196    2.2142   52.3030 C   0  0  2  0  0  0  0  0  0  0  0  0
   17.9617    4.1653   55.3276 N   0  0  0  0  0  0  0  0  0  0  0  0
   18.8061    1.2118   51.4029 N   0  0  0  0  0  0  0  0  0  0  0  0
   22.4155    2.1295   54.7086 O   0  0  0  0  0  0  0  0  0  0  0  0
   20.8206    4.1187   55.8749 O   0  0  0  0  0  0  0  0  0  0  0  0
  1  2  1  0  0  0  0
  1 12  1  6  0  0  0
  1 13  1  0  0  0  0
  2  3  1  0  0  0  0
  2 10  1  6  0  0  0
  4  3  1  6  0  0  0
  4  5  1  0  0  0  0
  4 14  1  0  0  0  0
  5  6  1  0  0  0  0
  5 13  1  1  0  0  0
  6  7  1  0  0  0  0
  6 15  1  6  0  0  0
  7  8  1  0  0  0  0
  7 11  1  1  0  0  0
  8 14  1  0  0  0  0
  8 16  1  6  0  0  0
  9 11  1  0  0  0  0
 17 16  1  1  0  0  0
 17 18  1  0  0  0  0
 17 24  1  0  0  0  0
 18 19  1  0  0  0  0
 18 25  1  1  0  0  0
 19 20  1  0  0  0  0
 19 26  1  6  0  0  0
 20 21  1  0  0  0  0
 20 23  1  1  0  0  0
 21 22  1  6  0  0  0
 21 24  1  0  0  0  0
 22 27  1  0  0  0  0
 28 12  1  6  0  0  0
 28 29  1  0  0  0  0
 28 33  1  0  0  0  0
 29 30  1  0  0  0  0
 29 36  1  1  0  0  0
 30 31  1  0  0  0  0
 30 37  1  1  0  0  0
 31 32  1  0  0  0  0
 31 34  1  1  0  0  0
 32 33  1  0  0  0  0
 33 35  1  6  0  0  0
M  END
>  <CHROM.1>
-176.86850770,-81.26922498,-172.16851273,-136.72706909,167.34215573,98.04832944
20.22244408,-1.50940784,50.02815855,-1.44521736,-0.40717477,-2.26592502

>  <Name>
2oe8_lig

>  <RI>
0

>  <Rbt.Current_Directory>
/home/itssahil/PROJECTS/Mol_Feturizer/New_Systems/rnas/2oe8

>  <Rbt.Executable>
rbdock ($Id: //depot/dev/client3/rdock/2013.1/src/exe/rbdock.cxx#4 $)

>  <Rbt.Library>
libRbt.so (2013.1, Build901 2013/11/27)

>  <Rbt.Parameter_File>
/export/apps/rDock/src/rDock_2013.1_src/data/scripts/dock_solv.prm

>  <Rbt.Receptor>
prm/pocket_docking_5.prm

>  <SCORE>
-14.2492

>  <SCORE.INTER>
-12.3219

>  <SCORE.INTER.CONST>
1

>  <SCORE.INTER.POLAR>
-1.43412

>  <SCORE.INTER.ROT>
6

>  <SCORE.INTER.SOLV>
15.2969

>  <SCORE.INTER.VDW>
-16.1332

>  <SCORE.INTER.norm>
-0.333024

>  <SCORE.INTRA>
-1.9273

>  <SCORE.INTRA.DIHEDRAL>
-4.12191

>  <SCORE.INTRA.DIHEDRAL.0>
16.4056

>  <SCORE.INTRA.POLAR>
0

>  <SCORE.INTRA.POLAR.0>
0

>  <SCORE.INTRA.REPUL>
0

>  <SCORE.INTRA.REPUL.0>
0

>  <SCORE.INTRA.SOLV>
-0.954443

>  <SCORE.INTRA.SOLV.lig_0>
-90.9627

>  <SCORE.INTRA.VDW>
0.61088

>  <SCORE.INTRA.VDW.0>
-3.28744

>  <SCORE.INTRA.norm>
-0.0520891

>  <SCORE.RESTR>
0

>  <SCORE.RESTR.CAVITY>
0

>  <SCORE.RESTR.norm>
0

>  <SCORE.SYSTEM>
0

>  <SCORE.SYSTEM.CONST>
0

>  <SCORE.SYSTEM.DIHEDRAL>
0

>  <SCORE.SYSTEM.SOLV>
0

>  <SCORE.SYSTEM.norm>
0

>  <SCORE.heavy>
37

>  <SCORE.norm>
-0.385113

>  <RMSD>
4.039

$$$$
2oe8_lig
 OpenBabel11021811463D
libRbt.so/2013.1/901 2013/11/27
 37 40  0  0  0  0  0  0  0  0999 V2000
   22.5523   -2.4991   52.2078 C   0  0  1  0  0  0  0  0  0  0  0  0
   23.5909   -2.3345   51.0340 C   0  0  1  0  0  0  0  0  0  0  0  0
   22.8346   -2.0546   49.7186 C   0  0  0  0  0  0  0  0  0  0  0  0
   21.9036   -3.2852   49.4842 C   0  0  1  0  0  0  0  0  0  0  0  0
   20.8471   -3.4789   50.6893 C   0  0  1  0  0  0  0  0  0  0  0  0
   19.9270   -4.7160   50.4725 C   0  0  1  0  0  0  0  0  0  0  0  0
   19.1767   -4.5093   49.0937 C   0  0  1  0  0  0  0  0  0  0  0  0
   20.2425   -4.2804   47.9661 C   0  0  2  0  0  0  0  0  0  0  0  0
   16.7808   -5.5353   48.7716 C   0  0  0  0  0  0  0  0  0  0  0  0
   24.5342   -1.2078   51.3218 N   0  0  0  0  0  0  0  0  0  0  0  0
   18.2797   -5.7005   48.7684 N   0  0  0  0  0  0  0  0  0  0  0  0
   21.7858   -1.3048   52.4081 O   0  0  0  0  0  0  0  0  0  0  0  0
   21.5984   -3.6166   51.9448 O   0  0  0  0  0  0  0  0  0  0  0  0
   21.1514   -3.1296   48.2444 O   0  0  0  0  0  0  0  0  0  0  0  0
   20.7689   -5.8701   50.4668 O   0  0  0  0  0  0  0  0  0  0  0  0
   19.5889   -4.0381   46.7739 O   0  0  0  0  0  0  0  0  0  0  0  0
   20.3255   -4.4798   45.6210 C   0  0  2  0  0  0  0  0  0  0  0  0
   19.6113   -4.0306   44.3234 C   0  0  1  0  0  0  0  0  0  0  0  0
   18.2318   -4.7364   44.1471 C   0  0  2  0  0  0  0  0  0  0  0  0
   18.4423   -6.2793   44.1236 C   0  0  1  0  0  0  0  0  0  0  0  0
   19.1009   -6.6758   45.5100 C   0  0  1  0  0  0  0  0  0  0  0  0
   19.3745   -8.1742   45.6049 C   0  0  0  0  0  0  0  0  0  0  0  0
   17.1249   -6.9564   43.9549 N   0  0  0  0  0  0  0  0  0  0  0  0
   20.4208   -5.9627   45.6394 O   0  0  0  0  0  0  0  0  0  0  0  0
   19.4799   -2.5973   44.3826 O   0  0  0  0  0  0  0  0  0  0  0  0
   17.6681   -4.3135   42.9233 O   0  0  0  0  0  0  0  0  0  0  0  0
   19.8555   -8.4811   46.8869 O   0  0  0  0  0  0  0  0  0  0  0  0
   21.0479   -1.3009   53.6128 C   0  0  1  0  0  0  0  0  0  0  0  0
   22.0559   -1.4144   54.8014 C   0  0  1  0  0  0  0  0  0  0  0  0
   21.2537   -1.4431   56.1350 C   0  0  2  0  0  0  0  0  0  0  0  0
   20.3905   -0.1530   56.2904 C   0  0  1  0  0  0  0  0  0  0  0  0
   19.3778   -0.0241   55.0894 C   0  0  0  0  0  0  0  0  0  0  0  0
   20.1988    0.0110   53.7341 C   0  0  2  0  0  0  0  0  0  0  0  0
   19.6295   -0.2067   57.5693 N   0  0  0  0  0  0  0  0  0  0  0  0
   19.2410    0.1359   52.6124 N   0  0  0  0  0  0  0  0  0  0  0  0
   22.8267   -2.6255   54.6898 O   0  0  0  0  0  0  0  0  0  0  0  0
   22.1907   -1.5392   57.1950 O   0  0  0  0  0  0  0  0  0  0  0  0
  1  2  1  0  0  0  0
  1 12  1  6  0  0  0
  1 13  1  0  0  0  0
  2  3  1  0  0  0  0
  2 10  1  1  0  0  0
  4  3  1  1  0  0  0
  4  5  1  0  0  0  0
  4 14  1  0  0  0  0
  5  6  1  0  0  0  0
  5 13  1  1  0  0  0
  6  7  1  0  0  0  0
  6 15  1  6  0  0  0
  7  8  1  0  0  0  0
  7 11  1  6  0  0  0
  8 14  1  0  0  0  0
  8 16  1  6  0  0  0
  9 11  1  0  0  0  0
 17 16  1  1  0  0  0
 17 18  1  0  0  0  0
 17 24  1  0  0  0  0
 18 19  1  0  0  0  0
 18 25  1  1  0  0  0
 19 20  1  0  0  0  0
 19 26  1  6  0  0  0
 20 21  1  0  0  0  0
 20 23  1  1  0  0  0
 21 22  1  6  0  0  0
 21 24  1  0  0  0  0
 22 27  1  0  0  0  0
 28 12  1  6  0  0  0
 28 29  1  0  0  0  0
 28 33  1  0  0  0  0
 29 30  1  0  0  0  0
 29 36  1  6  0  0  0
 30 31  1  0  0  0  0
 30 37  1  1  0  0  0
 31 32  1  0  0  0  0
 31 34  1  1  0  0  0
 32 33  1  0  0  0  0
 33 35  1  6  0  0  0
M  END
>  <CHROM.1>
-167.44978239,112.02012122,-149.89067370,-173.48371010,-175.31972229,60.85083903
20.36302135,-3.51175352,49.81237507,-1.27787072,-0.68861071,-1.81884368

>  <Name>
2oe8_lig

>  <RI>
0

>  <Rbt.Current_Directory>
/home/itssahil/PROJECTS/Mol_Feturizer/New_Systems/rnas/2oe8

>  <Rbt.Executable>
rbdock ($Id: //depot/dev/client3/rdock/2013.1/src/exe/rbdock.cxx#4 $)

>  <Rbt.Library>
libRbt.so (2013.1, Build901 2013/11/27)

>  <Rbt.Parameter_File>
/export/apps/rDock/src/rDock_2013.1_src/data/scripts/dock_solv.prm

>  <Rbt.Receptor>
prm/pocket_docking_5.prm

>  <SCORE>
-17.2384

>  <SCORE.INTER>
-13.0958

>  <SCORE.INTER.CONST>
1

>  <SCORE.INTER.POLAR>
-0.995935

>  <SCORE.INTER.ROT>
6

>  <SCORE.INTER.SOLV>
12.372

>  <SCORE.INTER.VDW>
-17.1348

>  <SCORE.INTER.norm>
-0.353941

>  <SCORE.INTRA>
-4.14261

>  <SCORE.INTRA.DIHEDRAL>
-10.5704

>  <SCORE.INTRA.DIHEDRAL.0>
16.4056

>  <SCORE.INTRA.POLAR>
0

>  <SCORE.INTRA.POLAR.0>
0

>  <SCORE.INTRA.REPUL>
0

>  <SCORE.INTRA.REPUL.0>
0

>  <SCORE.INTRA.SOLV>
-2.24106

>  <SCORE.INTRA.SOLV.lig_0>
-90.9627

>  <SCORE.INTRA.VDW>
2.26311

>  <SCORE.INTRA.VDW.0>
-3.28744

>  <SCORE.INTRA.norm>
-0.111962

>  <SCORE.RESTR>
0

>  <SCORE.RESTR.CAVITY>
0

>  <SCORE.RESTR.norm>
0

>  <SCORE.SYSTEM>
0

>  <SCORE.SYSTEM.CONST>
0

>  <SCORE.SYSTEM.DIHEDRAL>
0

>  <SCORE.SYSTEM.SOLV>
0

>  <SCORE.SYSTEM.norm>
0

>  <SCORE.heavy>
37

>  <SCORE.norm>
-0.465903

>  <RMSD>
4.244

$$$$
2oe8_lig
 OpenBabel11021811463D
libRbt.so/2013.1/901 2013/11/27
 37 40  0  0  0  0  0  0  0  0999 V2000
   19.9285    3.3588   56.3095 C   0  0  1  0  0  0  0  0  0  0  0  0
   18.9769    3.7308   55.1097 C   0  0  1  0  0  0  0  0  0  0  0  0
   18.7177    2.4730   54.2545 C   0  0  0  0  0  0  0  0  0  0  0  0
   20.1152    2.0004   53.7450 C   0  0  1  0  0  0  0  0  0  0  0  0
   21.1085    1.6353   54.9641 C   0  0  1  0  0  0  0  0  0  0  0  0
   22.5115    1.1811   54.4647 C   0  0  1  0  0  0  0  0  0  0  0  0
   22.2931   -0.0718   53.5216 C   0  0  1  0  0  0  0  0  0  0  0  0
   21.2880    0.3199   52.3831 C   0  0  2  0  0  0  0  0  0  0  0  0
   24.3793    0.3013   51.9706 C   0  0  0  0  0  0  0  0  0  0  0  0
   17.6760    4.2700   55.6189 N   0  0  0  0  0  0  0  0  0  0  0  0
   23.6161   -0.5643   52.9413 N   0  0  0  0  0  0  0  0  0  0  0  0
   19.3363    2.3783   57.1707 O   0  0  0  0  0  0  0  0  0  0  0  0
   21.2334    2.8173   55.8283 O   0  0  0  0  0  0  0  0  0  0  0  0
   19.9802    0.8178   52.9023 O   0  0  0  0  0  0  0  0  0  0  0  0
   23.0903    2.2891   53.7731 O   0  0  0  0  0  0  0  0  0  0  0  0
   21.0480   -0.7890   51.5958 O   0  0  0  0  0  0  0  0  0  0  0  0
   20.2133   -0.5102   50.4590 C   0  0  2  0  0  0  0  0  0  0  0  0
   18.9454   -1.3973   50.4937 C   0  0  1  0  0  0  0  0  0  0  0  0
   19.2896   -2.9074   50.3114 C   0  0  2  0  0  0  0  0  0  0  0  0
   20.0328   -3.1063   48.9574 C   0  0  1  0  0  0  0  0  0  0  0  0
   21.3554   -2.2349   49.0252 C   0  0  1  0  0  0  0  0  0  0  0  0
   22.1710   -2.3332   47.7391 C   0  0  0  0  0  0  0  0  0  0  0  0
   20.3627   -4.5494   48.7807 N   0  0  0  0  0  0  0  0  0  0  0  0
   20.9733   -0.7906   49.2131 O   0  0  0  0  0  0  0  0  0  0  0  0
   18.2807   -1.1431   51.7460 O   0  0  0  0  0  0  0  0  0  0  0  0
   18.0833   -3.6417   50.3055 O   0  0  0  0  0  0  0  0  0  0  0  0
   21.4120   -1.8422   46.6658 O   0  0  0  0  0  0  0  0  0  0  0  0
   18.2273    2.8613   57.9005 C   0  0  1  0  0  0  0  0  0  0  0  0
   17.4504    1.6332   58.4749 C   0  0  1  0  0  0  0  0  0  0  0  0
   16.2070    2.1501   59.2556 C   0  0  2  0  0  0  0  0  0  0  0  0
   16.6366    3.0988   60.4170 C   0  0  1  0  0  0  0  0  0  0  0  0
   17.4311    4.3356   59.8479 C   0  0  0  0  0  0  0  0  0  0  0  0
   18.6995    3.8053   59.0592 C   0  0  2  0  0  0  0  0  0  0  0  0
   15.4309    3.5836   61.1442 N   0  0  0  0  0  0  0  0  0  0  0  0
   19.4415    4.9726   58.5317 N   0  0  0  0  0  0  0  0  0  0  0  0
   17.0113    0.7744   57.4059 O   0  0  0  0  0  0  0  0  0  0  0  0
   15.5254    1.0184   59.7710 O   0  0  0  0  0  0  0  0  0  0  0  0
  1  2  1  0  0  0  0
  1 12  1  1  0  0  0
  1 13  1  0  0  0  0
  2  3  1  0  0  0  0
  2 10  1  1  0  0  0
  4  3  1  1  0  0  0
  4  5  1  0  0  0  0
  4 14  1  0  0  0  0
  5  6  1  0  0  0  0
  5 13  1  1  0  0  0
  6  7  1  0  0  0  0
  6 15  1  6  0  0  0
  7  8  1  0  0  0  0
  7 11  1  6  0  0  0
  8 14  1  0  0  0  0
  8 16  1  6  0  0  0
  9 11  1  0  0  0  0
 17 16  1  1  0  0  0
 17 18  1  0  0  0  0
 17 24  1  0  0  0  0
 18 19  1  0  0  0  0
 18 25  1  1  0  0  0
 19 20  1  0  0  0  0
 19 26  1  6  0  0  0
 20 21  1  0  0  0  0
 20 23  1  1  0  0  0
 21 22  1  6  0  0  0
 21 24  1  0  0  0  0
 22 27  1  0  0  0  0
 28 12  1  1  0  0  0
 28 29  1  0  0  0  0
 28 33  1  0  0  0  0
 29 30  1  0  0  0  0
 29 36  1  6  0  0  0
 30 31  1  0  0  0  0
 30 37  1  1  0  0  0
 31 32  1  0  0  0  0
 31 34  1  6  0  0  0
 32 33  1  0  0  0  0
 33 35  1  6  0  0  0
M  END
>  <CHROM.1>
-68.67169279,-66.59082042,-175.60517871,-121.69138441,61.56677322,164.57630668
19.69821380,0.77784524,54.06252169,-1.91574890,-0.43593132,-2.22014201

>  <Name>
2oe8_lig

>  <RI>
0

>  <Rbt.Current_Directory>
/home/itssahil/PROJECTS/Mol_Feturizer/New_Systems/rnas/2oe8

>  <Rbt.Executable>
rbdock ($Id: //depot/dev/client3/rdock/2013.1/src/exe/rbdock.cxx#4 $)

>  <Rbt.Library>
libRbt.so (2013.1, Build901 2013/11/27)

>  <Rbt.Parameter_File>
/export/apps/rDock/src/rDock_2013.1_src/data/scripts/dock_solv.prm

>  <Rbt.Receptor>
prm/pocket_docking_7.prm

>  <SCORE>
-14.8837

>  <SCORE.INTER>
-14.261

>  <SCORE.INTER.CONST>
1

>  <SCORE.INTER.POLAR>
-2.08275

>  <SCORE.INTER.ROT>
6

>  <SCORE.INTER.SOLV>
8.62313

>  <SCORE.INTER.VDW>
-13.0392

>  <SCORE.INTER.norm>
-0.385431

>  <SCORE.INTRA>
-0.622693

>  <SCORE.INTRA.DIHEDRAL>
-7.53638

>  <SCORE.INTRA.DIHEDRAL.0>
16.4056

>  <SCORE.INTRA.POLAR>
0

>  <SCORE.INTRA.POLAR.0>
0

>  <SCORE.INTRA.REPUL>
0

>  <SCORE.INTRA.REPUL.0>
0

>  <SCORE.INTRA.SOLV>
2.42048

>  <SCORE.INTRA.SOLV.lig_0>
-90.9627

>  <SCORE.INTRA.VDW>
1.93526

>  <SCORE.INTRA.VDW.0>
-3.28744

>  <SCORE.INTRA.norm>
-0.0168295

>  <SCORE.RESTR>
0

>  <SCORE.RESTR.CAVITY>
0

>  <SCORE.RESTR.norm>
0

>  <SCORE.SYSTEM>
0

>  <SCORE.SYSTEM.CONST>
0

>  <SCORE.SYSTEM.DIHEDRAL>
0

>  <SCORE.SYSTEM.SOLV>
0

>  <SCORE.SYSTEM.norm>
0

>  <SCORE.heavy>
37

>  <SCORE.norm>
-0.402261

>  <RMSD>
4.335

$$$$
2oe8_lig
 OpenBabel11021811463D
libRbt.so/2013.1/901 2013/11/27
 37 40  0  0  0  0  0  0  0  0999 V2000
   20.6244   -1.6365   52.3961 C   0  0  1  0  0  0  0  0  0  0  0  0
   21.7227   -1.3623   51.2998 C   0  0  1  0  0  0  0  0  0  0  0  0
   21.0872   -1.4824   49.8990 C   0  0  0  0  0  0  0  0  0  0  0  0
   20.5351   -2.9387   49.7975 C   0  0  1  0  0  0  0  0  0  0  0  0
   19.4231   -3.2411   50.9280 C   0  0  1  0  0  0  0  0  0  0  0  0
   18.8809   -4.6982   50.8458 C   0  0  1  0  0  0  0  0  0  0  0  0
   18.2773   -4.8953   49.3954 C   0  0  1  0  0  0  0  0  0  0  0  0
   19.3799   -4.5461   48.3359 C   0  0  2  0  0  0  0  0  0  0  0  0
   16.2921   -6.5540   48.9435 C   0  0  0  0  0  0  0  0  0  0  0  0
   22.3065    0.0058   51.4720 N   0  0  0  0  0  0  0  0  0  0  0  0
   17.7590   -6.3176   49.2008 N   0  0  0  0  0  0  0  0  0  0  0  0
   19.5612   -0.6775   52.3320 O   0  0  0  0  0  0  0  0  0  0  0  0
   20.0251   -2.9951   52.2458 O   0  0  0  0  0  0  0  0  0  0  0  0
   19.9257   -3.1657   48.4920 O   0  0  0  0  0  0  0  0  0  0  0  0
   19.9824   -5.5714   51.1006 O   0  0  0  0  0  0  0  0  0  0  0  0
   18.8372   -4.6572   47.0709 O   0  0  0  0  0  0  0  0  0  0  0  0
   19.8052   -4.9988   46.0643 C   0  0  2  0  0  0  0  0  0  0  0  0
   19.1433   -5.0101   44.6652 C   0  0  1  0  0  0  0  0  0  0  0  0
   18.0865   -6.1494   44.5333 C   0  0  2  0  0  0  0  0  0  0  0  0
   18.7726   -7.5216   44.8008 C   0  0  1  0  0  0  0  0  0  0  0  0
   19.3551   -7.4662   46.2742 C   0  0  1  0  0  0  0  0  0  0  0  0
   20.0728   -8.7584   46.6538 C   0  0  0  0  0  0  0  0  0  0  0  0
   17.7642   -8.6124   44.6751 N   0  0  0  0  0  0  0  0  0  0  0  0
   20.3590   -6.3468   46.3550 O   0  0  0  0  0  0  0  0  0  0  0  0
   18.5620   -3.7087   44.4573 O   0  0  0  0  0  0  0  0  0  0  0  0
   17.5660   -6.1245   43.2208 O   0  0  0  0  0  0  0  0  0  0  0  0
   20.5566   -8.6556   47.9670 O   0  0  0  0  0  0  0  0  0  0  0  0
   19.7994    0.4842   53.0998 C   0  0  1  0  0  0  0  0  0  0  0  0
   19.4010    1.7263   52.2394 C   0  0  1  0  0  0  0  0  0  0  0  0
   19.6882    3.0160   53.0622 C   0  0  2  0  0  0  0  0  0  0  0  0
   18.8817    3.0126   54.3976 C   0  0  1  0  0  0  0  0  0  0  0  0
   19.2690    1.7565   55.2676 C   0  0  0  0  0  0  0  0  0  0  0  0
   18.9693    0.4456   54.4287 C   0  0  2  0  0  0  0  0  0  0  0  0
   19.1773    4.2522   55.1681 N   0  0  0  0  0  0  0  0  0  0  0  0
   19.3320   -0.7285   55.2541 N   0  0  0  0  0  0  0  0  0  0  0  0
   20.1728    1.7617   51.0244 O   0  0  0  0  0  0  0  0  0  0  0  0
   19.3121    4.1252   52.2628 O   0  0  0  0  0  0  0  0  0  0  0  0
  1  2  1  0  0  0  0
  1 12  1  6  0  0  0
  1 13  1  0  0  0  0
  2  3  1  0  0  0  0
  2 10  1  1  0  0  0
  4  3  1  6  0  0  0
  4  5  1  0  0  0  0
  4 14  1  0  0  0  0
  5  6  1  0  0  0  0
  5 13  1  1  0  0  0
  6  7  1  0  0  0  0
  6 15  1  6  0  0  0
  7  8  1  0  0  0  0
  7 11  1  1  0  0  0
  8 14  1  0  0  0  0
  8 16  1  6  0  0  0
  9 11  1  0  0  0  0
 17 16  1  1  0  0  0
 17 18  1  0  0  0  0
 17 24  1  0  0  0  0
 18 19  1  0  0  0  0
 18 25  1  1  0  0  0
 19 20  1  0  0  0  0
 19 26  1  6  0  0  0
 20 21  1  0  0  0  0
 20 23  1  1  0  0  0
 21 22  1  6  0  0  0
 21 24  1  0  0  0  0
 22 27  1  0  0  0  0
 28 12  1  6  0  0  0
 28 29  1  0  0  0  0
 28 33  1  0  0  0  0
 29 30  1  0  0  0  0
 29 36  1  6  0  0  0
 30 31  1  0  0  0  0
 30 37  1  6  0  0  0
 31 32  1  0  0  0  0
 31 34  1  1  0  0  0
 32 33  1  0  0  0  0
 33 35  1  1  0  0  0
M  END
>  <CHROM.1>
-87.93852000,116.94241872,-151.71122107,-176.14821739,-179.55044573,135.48372709
19.42088604,-2.95438154,49.67623951,-0.68994910,1.47226112,2.99517546

>  <Name>
2oe8_lig

>  <RI>
0

>  <Rbt.Current_Directory>
/home/itssahil/PROJECTS/Mol_Feturizer/New_Systems/rnas/2oe8

>  <Rbt.Executable>
rbdock ($Id: //depot/dev/client3/rdock/2013.1/src/exe/rbdock.cxx#4 $)

>  <Rbt.Library>
libRbt.so (2013.1, Build901 2013/11/27)

>  <Rbt.Parameter_File>
/export/apps/rDock/src/rDock_2013.1_src/data/scripts/dock_solv.prm

>  <Rbt.Receptor>
prm/pocket_docking_4.prm

>  <SCORE>
-13.3267

>  <SCORE.INTER>
-11.3352

>  <SCORE.INTER.CONST>
1

>  <SCORE.INTER.POLAR>
-0.337982

>  <SCORE.INTER.ROT>
6

>  <SCORE.INTER.SOLV>
13.697

>  <SCORE.INTER.VDW>
-18.5959

>  <SCORE.INTER.norm>
-0.306358

>  <SCORE.INTRA>
-1.99208

>  <SCORE.INTRA.DIHEDRAL>
-2.56626

>  <SCORE.INTRA.DIHEDRAL.0>
16.4056

>  <SCORE.INTRA.POLAR>
0

>  <SCORE.INTRA.POLAR.0>
0

>  <SCORE.INTRA.REPUL>
0

>  <SCORE.INTRA.REPUL.0>
0

>  <SCORE.INTRA.SOLV>
0.605483

>  <SCORE.INTRA.SOLV.lig_0>
-90.9627

>  <SCORE.INTRA.VDW>
-1.01169

>  <SCORE.INTRA.VDW.0>
-3.28744

>  <SCORE.INTRA.norm>
-0.0538401

>  <SCORE.RESTR>
0.000631892

>  <SCORE.RESTR.CAVITY>
0.000631892

>  <SCORE.RESTR.norm>
1.70782e-05

>  <SCORE.SYSTEM>
0

>  <SCORE.SYSTEM.CONST>
0

>  <SCORE.SYSTEM.DIHEDRAL>
0

>  <SCORE.SYSTEM.SOLV>
0

>  <SCORE.SYSTEM.norm>
0

>  <SCORE.heavy>
37

>  <SCORE.norm>
-0.360181

>  <RMSD>
4.343

$$$$
2oe8_lig
 OpenBabel11021811463D
libRbt.so/2013.1/901 2013/11/27
 37 40  0  0  0  0  0  0  0  0999 V2000
   20.2597   -1.6815   52.5020 C   0  0  1  0  0  0  0  0  0  0  0  0
   21.5375   -1.6184   51.5819 C   0  0  1  0  0  0  0  0  0  0  0  0
   21.1034   -1.6582   50.1018 C   0  0  0  0  0  0  0  0  0  0  0  0
   20.3335   -3.0026   49.9124 C   0  0  1  0  0  0  0  0  0  0  0  0
   19.0326   -3.0905   50.8643 C   0  0  1  0  0  0  0  0  0  0  0  0
   18.2694   -4.4370   50.6954 C   0  0  1  0  0  0  0  0  0  0  0  0
   17.8608   -4.5590   49.1706 C   0  0  1  0  0  0  0  0  0  0  0  0
   19.1500   -4.4219   48.2879 C   0  0  2  0  0  0  0  0  0  0  0  0
   16.2537   -6.0094   47.6838 C   0  0  0  0  0  0  0  0  0  0  0  0
   22.3130   -0.3649   51.8455 N   0  0  0  0  0  0  0  0  0  0  0  0
   17.1432   -5.8774   48.8943 N   0  0  0  0  0  0  0  0  0  0  0  0
   19.3955   -0.5588   52.2859 O   0  0  0  0  0  0  0  0  0  0  0  0
   19.4675   -2.9227   52.2579 O   0  0  0  0  0  0  0  0  0  0  0  0
   19.8929   -3.1502   48.5300 O   0  0  0  0  0  0  0  0  0  0  0  0
   19.1575   -5.4778   51.1062 O   0  0  0  0  0  0  0  0  0  0  0  0
   18.7881   -4.4657   46.9559 O   0  0  0  0  0  0  0  0  0  0  0  0
   19.9025   -4.6636   46.0694 C   0  0  2  0  0  0  0  0  0  0  0  0
   19.9910   -3.5015   45.0509 C   0  0  1  0  0  0  0  0  0  0  0  0
   18.7710   -3.4882   44.0795 C   0  0  2  0  0  0  0  0  0  0  0  0
   18.7016   -4.8467   43.3215 C   0  0  1  0  0  0  0  0  0  0  0  0
   18.5314   -5.9785   44.4184 C   0  0  1  0  0  0  0  0  0  0  0  0
   18.4666   -7.3710   43.7975 C   0  0  0  0  0  0  0  0  0  0  0  0
   17.5361   -4.8363   42.3919 N   0  0  0  0  0  0  0  0  0  0  0  0
   19.7240   -5.9443   45.3370 O   0  0  0  0  0  0  0  0  0  0  0  0
   20.0926   -2.2790   45.8059 O   0  0  0  0  0  0  0  0  0  0  0  0
   18.9488   -2.4352   43.1554 O   0  0  0  0  0  0  0  0  0  0  0  0
   17.3241   -7.4692   42.9887 O   0  0  0  0  0  0  0  0  0  0  0  0
   19.7200    0.5660   53.0766 C   0  0  1  0  0  0  0  0  0  0  0  0
   19.3670    1.8518   52.2618 C   0  0  1  0  0  0  0  0  0  0  0  0
   19.7491    3.1002   53.1094 C   0  0  2  0  0  0  0  0  0  0  0  0
   18.9823    3.1036   54.4679 C   0  0  1  0  0  0  0  0  0  0  0  0
   19.3237    1.8042   55.2924 C   0  0  0  0  0  0  0  0  0  0  0  0
   18.9274    0.5358   54.4285 C   0  0  2  0  0  0  0  0  0  0  0  0
   19.3685    4.3030   55.2617 N   0  0  0  0  0  0  0  0  0  0  0  0
   19.2476   -0.6792   55.2112 N   0  0  0  0  0  0  0  0  0  0  0  0
   20.1045    1.8788   51.0254 O   0  0  0  0  0  0  0  0  0  0  0  0
   19.4127    4.2504   52.3513 O   0  0  0  0  0  0  0  0  0  0  0  0
  1  2  1  0  0  0  0
  1 12  1  6  0  0  0
  1 13  1  0  0  0  0
  2  3  1  0  0  0  0
  2 10  1  6  0  0  0
  4  3  1  6  0  0  0
  4  5  1  0  0  0  0
  4 14  1  0  0  0  0
  5  6  1  0  0  0  0
  5 13  1  1  0  0  0
  6  7  1  0  0  0  0
  6 15  1  6  0  0  0
  7  8  1  0  0  0  0
  7 11  1  1  0  0  0
  8 14  1  0  0  0  0
  8 16  1  6  0  0  0
  9 11  1  0  0  0  0
 17 16  1  1  0  0  0
 17 18  1  0  0  0  0
 17 24  1  0  0  0  0
 18 19  1  0  0  0  0
 18 25  1  1  0  0  0
 19 20  1  0  0  0  0
 19 26  1  6  0  0  0
 20 21  1  0  0  0  0
 20 23  1  6  0  0  0
 21 22  1  6  0  0  0
 21 24  1  0  0  0  0
 22 27  1  0  0  0  0
 28 12  1  6  0  0  0
 28 29  1  0  0  0  0
 28 33  1  0  0  0  0
 29 30  1  0  0  0  0
 29 36  1  6  0  0  0
 30 31  1  0  0  0  0
 30 37  1  6  0  0  0
 31 32  1  0  0  0  0
 31 34  1  1  0  0  0
 32 33  1  0  0  0  0
 33 35  1  1  0  0  0
M  END
>  <CHROM.1>
-87.34256137,158.43271797,-166.23285750,-122.16995964,-63.79720344,147.54198105
19.24017985,-2.33319308,49.28665868,0.99759397,1.37605152,1.47400687

>  <Name>
2oe8_lig

>  <RI>
0

>  <Rbt.Current_Directory>
/home/itssahil/PROJECTS/Mol_Feturizer/New_Systems/rnas/2oe8

>  <Rbt.Executable>
rbdock ($Id: //depot/dev/client3/rdock/2013.1/src/exe/rbdock.cxx#4 $)

>  <Rbt.Library>
libRbt.so (2013.1, Build901 2013/11/27)

>  <Rbt.Parameter_File>
/export/apps/rDock/src/rDock_2013.1_src/data/scripts/dock_solv.prm

>  <Rbt.Receptor>
prm/pocket_docking_4.prm

>  <SCORE>
-15.3835

>  <SCORE.INTER>
-15.2753

>  <SCORE.INTER.CONST>
1

>  <SCORE.INTER.POLAR>
-1.42173

>  <SCORE.INTER.ROT>
6

>  <SCORE.INTER.SOLV>
15.8809

>  <SCORE.INTER.VDW>
-18.3381

>  <SCORE.INTER.norm>
-0.412846

>  <SCORE.INTRA>
-0.18946

>  <SCORE.INTRA.DIHEDRAL>
-0.741112

>  <SCORE.INTRA.DIHEDRAL.0>
16.4056

>  <SCORE.INTRA.POLAR>
0

>  <SCORE.INTRA.POLAR.0>
0

>  <SCORE.INTRA.REPUL>
0

>  <SCORE.INTRA.REPUL.0>
0

>  <SCORE.INTRA.SOLV>
0.905177

>  <SCORE.INTRA.SOLV.lig_0>
-90.9627

>  <SCORE.INTRA.VDW>
-0.271492

>  <SCORE.INTRA.VDW.0>
-3.28744

>  <SCORE.INTRA.norm>
-0.00512054

>  <SCORE.RESTR>
0.0812599

>  <SCORE.RESTR.CAVITY>
0.0812599

>  <SCORE.RESTR.norm>
0.00219621

>  <SCORE.SYSTEM>
0

>  <SCORE.SYSTEM.CONST>
0

>  <SCORE.SYSTEM.DIHEDRAL>
0

>  <SCORE.SYSTEM.SOLV>
0

>  <SCORE.SYSTEM.norm>
0

>  <SCORE.heavy>
37

>  <SCORE.norm>
-0.41577

>  <RMSD>
4.443

$$$$
2oe8_lig
 OpenBabel11021811463D
libRbt.so/2013.1/901 2013/11/27
 37 40  0  0  0  0  0  0  0  0999 V2000
   22.6618   -3.0252   52.4245 C   0  0  1  0  0  0  0  0  0  0  0  0
   23.7072   -3.2922   51.2758 C   0  0  1  0  0  0  0  0  0  0  0  0
   23.0079   -3.1557   49.9072 C   0  0  0  0  0  0  0  0  0  0  0  0
   21.8674   -4.2210   49.8956 C   0  0  1  0  0  0  0  0  0  0  0  0
   20.7994   -3.9725   51.0803 C   0  0  1  0  0  0  0  0  0  0  0  0
   19.6684   -5.0425   51.0875 C   0  0  1  0  0  0  0  0  0  0  0  0
   18.9614   -4.9904   49.6718 C   0  0  1  0  0  0  0  0  0  0  0  0
   20.0454   -5.1910   48.5562 C   0  0  2  0  0  0  0  0  0  0  0  0
   16.7434   -5.8619   48.5683 C   0  0  0  0  0  0  0  0  0  0  0  0
   24.8412   -2.3180   51.3611 N   0  0  0  0  0  0  0  0  0  0  0  0
   17.8610   -6.0426   49.5643 N   0  0  0  0  0  0  0  0  0  0  0  0
   22.1265   -1.6976   52.3553 O   0  0  0  0  0  0  0  0  0  0  0  0
   21.5193   -3.9834   52.3613 O   0  0  0  0  0  0  0  0  0  0  0  0
   21.1499   -4.1895   48.6262 O   0  0  0  0  0  0  0  0  0  0  0  0
   20.2863   -6.3052   51.3416 O   0  0  0  0  0  0  0  0  0  0  0  0
   19.4409   -5.0839   47.3192 O   0  0  0  0  0  0  0  0  0  0  0  0
   20.3306   -5.3624   46.2248 C   0  0  2  0  0  0  0  0  0  0  0  0
   20.5632   -4.0841   45.3837 C   0  0  1  0  0  0  0  0  0  0  0  0
   19.2603   -3.6189   44.6639 C   0  0  2  0  0  0  0  0  0  0  0  0
   18.7424   -4.7649   43.7454 C   0  0  1  0  0  0  0  0  0  0  0  0
   18.4504   -6.0102   44.6821 C   0  0  1  0  0  0  0  0  0  0  0  0
   17.9480   -7.2147   43.8913 C   0  0  0  0  0  0  0  0  0  0  0  0
   17.4968   -4.3226   43.0560 N   0  0  0  0  0  0  0  0  0  0  0  0
   19.7317   -6.4140   45.3623 O   0  0  0  0  0  0  0  0  0  0  0  0
   21.0771   -3.0749   46.2738 O   0  0  0  0  0  0  0  0  0  0  0  0
   19.5642   -2.4824   43.8827 O   0  0  0  0  0  0  0  0  0  0  0  0
   16.6525   -6.9558   43.4184 O   0  0  0  0  0  0  0  0  0  0  0  0
   21.1184   -1.4429   53.3117 C   0  0  1  0  0  0  0  0  0  0  0  0
   21.8098   -1.1631   54.6848 C   0  0  1  0  0  0  0  0  0  0  0  0
   20.7086   -0.9117   55.7558 C   0  0  2  0  0  0  0  0  0  0  0  0
   19.8116    0.3000   55.3547 C   0  0  1  0  0  0  0  0  0  0  0  0
   19.1184    0.0314   53.9647 C   0  0  0  0  0  0  0  0  0  0  0  0
   20.2430   -0.2179   52.8760 C   0  0  2  0  0  0  0  0  0  0  0  0
   18.7641    0.5165   56.3909 N   0  0  0  0  0  0  0  0  0  0  0  0
   19.5839   -0.4653   51.5739 N   0  0  0  0  0  0  0  0  0  0  0  0
   22.6051   -2.2949   55.0843 O   0  0  0  0  0  0  0  0  0  0  0  0
   21.3619   -0.6541   56.9878 O   0  0  0  0  0  0  0  0  0  0  0  0
  1  2  1  0  0  0  0
  1 12  1  6  0  0  0
  1 13  1  0  0  0  0
  2  3  1  0  0  0  0
  2 10  1  6  0  0  0
  4  3  1  6  0  0  0
  4  5  1  0  0  0  0
  4 14  1  0  0  0  0
  5  6  1  0  0  0  0
  5 13  1  1  0  0  0
  6  7  1  0  0  0  0
  6 15  1  6  0  0  0
  7  8  1  0  0  0  0
  7 11  1  1  0  0  0
  8 14  1  0  0  0  0
  8 16  1  6  0  0  0
  9 11  1  0  0  0  0
 17 16  1  1  0  0  0
 17 18  1  0  0  0  0
 17 24  1  0  0  0  0
 18 19  1  0  0  0  0
 18 25  1  1  0  0  0
 19 20  1  0  0  0  0
 19 26  1  6  0  0  0
 20 21  1  0  0  0  0
 20 23  1  1  0  0  0
 21 22  1  6  0  0  0
 21 24  1  0  0  0  0
 22 27  1  0  0  0  0
 28 12  1  6  0  0  0
 28 29  1  0  0  0  0
 28 33  1  0  0  0  0
 29 30  1  0  0  0  0
 29 36  1  1  0  0  0
 30 31  1  0  0  0  0
 30 37  1  1  0  0  0
 31 32  1  0  0  0  0
 31 34  1  1  0  0  0
 32 33  1  0  0  0  0
 33 35  1  6  0  0  0
M  END
>  <CHROM.1>
175.98234050,157.20926765,-175.15281597,-113.81171182,-70.02022583,78.96211790
20.25525951,-3.51302889,49.75470524,-1.33981095,-0.08570592,-1.95973895

>  <Name>
2oe8_lig

>  <RI>
0

>  <Rbt.Current_Directory>
/home/itssahil/PROJECTS/Mol_Feturizer/New_Systems/rnas/2oe8

>  <Rbt.Executable>
rbdock ($Id: //depot/dev/client3/rdock/2013.1/src/exe/rbdock.cxx#4 $)

>  <Rbt.Library>
libRbt.so (2013.1, Build901 2013/11/27)

>  <Rbt.Parameter_File>
/export/apps/rDock/src/rDock_2013.1_src/data/scripts/dock_solv.prm

>  <Rbt.Receptor>
prm/pocket_docking_6.prm

>  <SCORE>
-20.7325

>  <SCORE.INTER>
-17.4813

>  <SCORE.INTER.CONST>
1

>  <SCORE.INTER.POLAR>
-1.35365

>  <SCORE.INTER.ROT>
6

>  <SCORE.INTER.SOLV>
13.8591

>  <SCORE.INTER.VDW>
-19.3617

>  <SCORE.INTER.norm>
-0.472467

>  <SCORE.INTRA>
-3.25128

>  <SCORE.INTRA.DIHEDRAL>
-6.76027

>  <SCORE.INTRA.DIHEDRAL.0>
16.4056

>  <SCORE.INTRA.POLAR>
0

>  <SCORE.INTRA.POLAR.0>
0

>  <SCORE.INTRA.REPUL>
0

>  <SCORE.INTRA.REPUL.0>
0

>  <SCORE.INTRA.SOLV>
-1.61935

>  <SCORE.INTRA.SOLV.lig_0>
-90.9627

>  <SCORE.INTRA.VDW>
0.938528

>  <SCORE.INTRA.VDW.0>
-3.28744

>  <SCORE.INTRA.norm>
-0.0878725

>  <SCORE.RESTR>
0

>  <SCORE.RESTR.CAVITY>
0

>  <SCORE.RESTR.norm>
0

>  <SCORE.SYSTEM>
0

>  <SCORE.SYSTEM.CONST>
0

>  <SCORE.SYSTEM.DIHEDRAL>
0

>  <SCORE.SYSTEM.SOLV>
0

>  <SCORE.SYSTEM.norm>
0

>  <SCORE.heavy>
37

>  <SCORE.norm>
-0.560339

>  <RMSD>
4.576

$$$$
2oe8_lig
 OpenBabel11021811463D
libRbt.so/2013.1/901 2013/11/27
 37 40  0  0  0  0  0  0  0  0999 V2000
   22.0631   -1.4192   51.8077 C   0  0  1  0  0  0  0  0  0  0  0  0
   23.2074   -1.9047   50.8391 C   0  0  1  0  0  0  0  0  0  0  0  0
   22.7298   -1.7727   49.3779 C   0  0  0  0  0  0  0  0  0  0  0  0
   21.4613   -2.6735   49.2541 C   0  0  1  0  0  0  0  0  0  0  0  0
   20.2871   -2.2007   50.2559 C   0  0  1  0  0  0  0  0  0  0  0  0
   19.0247   -3.1060   50.1523 C   0  0  1  0  0  0  0  0  0  0  0  0
   18.5338   -3.0598   48.6477 C   0  0  1  0  0  0  0  0  0  0  0  0
   19.7211   -3.4825   47.7141 C   0  0  2  0  0  0  0  0  0  0  0  0
   16.7082   -4.0836   47.0616 C   0  0  0  0  0  0  0  0  0  0  0  0
   24.4465   -1.0880   51.0393 N   0  0  0  0  0  0  0  0  0  0  0  0
   17.3196   -3.9597   48.4344 N   0  0  0  0  0  0  0  0  0  0  0  0
   21.7376   -0.0400   51.5936 O   0  0  0  0  0  0  0  0  0  0  0  0
   20.8149   -2.2175   51.6272 O   0  0  0  0  0  0  0  0  0  0  0  0
   20.9371   -2.6359   47.8936 O   0  0  0  0  0  0  0  0  0  0  0  0
   19.4148   -4.4190   50.5579 O   0  0  0  0  0  0  0  0  0  0  0  0
   19.3140   -3.3830   46.3982 O   0  0  0  0  0  0  0  0  0  0  0  0
   20.2143   -4.0176   45.4743 C   0  0  2  0  0  0  0  0  0  0  0  0
   19.7102   -3.8348   44.0224 C   0  0  1  0  0  0  0  0  0  0  0  0
   18.3682   -4.5899   43.7756 C   0  0  2  0  0  0  0  0  0  0  0  0
   18.5673   -6.1050   44.0755 C   0  0  1  0  0  0  0  0  0  0  0  0
   19.0033   -6.2206   45.5953 C   0  0  1  0  0  0  0  0  0  0  0  0
   19.2470   -7.6686   46.0113 C   0  0  0  0  0  0  0  0  0  0  0  0
   17.2856   -6.8292   43.8400 N   0  0  0  0  0  0  0  0  0  0  0  0
   20.2937   -5.4684   45.7862 O   0  0  0  0  0  0  0  0  0  0  0  0
   19.5829   -2.4190   43.7897 O   0  0  0  0  0  0  0  0  0  0  0  0
   18.0013   -4.4159   42.4230 O   0  0  0  0  0  0  0  0  0  0  0  0
   19.5656   -7.7150   47.3771 O   0  0  0  0  0  0  0  0  0  0  0  0
   21.7663    0.7382   52.7723 C   0  0  1  0  0  0  0  0  0  0  0  0
   22.9349    1.7680   52.6472 C   0  0  1  0  0  0  0  0  0  0  0  0
   22.9981    2.6119   53.9536 C   0  0  2  0  0  0  0  0  0  0  0  0
   21.6515    3.3617   54.1949 C   0  0  1  0  0  0  0  0  0  0  0  0
   20.4645    2.3310   54.3112 C   0  0  0  0  0  0  0  0  0  0  0  0
   20.3998    1.4781   52.9768 C   0  0  2  0  0  0  0  0  0  0  0  0
   21.7352    4.1564   55.4516 N   0  0  0  0  0  0  0  0  0  0  0  0
   19.2807    0.5161   53.0929 N   0  0  0  0  0  0  0  0  0  0  0  0
   24.1886    1.0827   52.4686 O   0  0  0  0  0  0  0  0  0  0  0  0
   24.0601    3.5408   53.8111 O   0  0  0  0  0  0  0  0  0  0  0  0
  1  2  1  0  0  0  0
  1 12  1  6  0  0  0
  1 13  1  0  0  0  0
  2  3  1  0  0  0  0
  2 10  1  6  0  0  0
  4  3  1  6  0  0  0
  4  5  1  0  0  0  0
  4 14  1  0  0  0  0
  5  6  1  0  0  0  0
  5 13  1  1  0  0  0
  6  7  1  0  0  0  0
  6 15  1  6  0  0  0
  7  8  1  0  0  0  0
  7 11  1  1  0  0  0
  8 14  1  0  0  0  0
  8 16  1  6  0  0  0
  9 11  1  0  0  0  0
 17 16  1  1  0  0  0
 17 18  1  0  0  0  0
 17 24  1  0  0  0  0
 18 19  1  0  0  0  0
 18 25  1  1  0  0  0
 19 20  1  0  0  0  0
 19 26  1  6  0  0  0
 20 21  1  0  0  0  0
 20 23  1  1  0  0  0
 21 22  1  6  0  0  0
 21 24  1  0  0  0  0
 22 27  1  0  0  0  0
 28 12  1  6  0  0  0
 28 29  1  0  0  0  0
 28 33  1  0  0  0  0
 29 30  1  0  0  0  0
 29 36  1  1  0  0  0
 30 31  1  0  0  0  0
 30 37  1  6  0  0  0
 31 32  1  0  0  0  0
 31 34  1  1  0  0  0
 32 33  1  0  0  0  0
 33 35  1  1  0  0  0
M  END
>  <CHROM.1>
-127.62029884,-178.77895864,-167.21943535,-178.63286180,-177.16192658,113.81039354
20.46011121,-2.16719684,49.16698053,1.20078700,0.55511980,1.06502723

>  <Name>
2oe8_lig

>  <RI>
0

>  <Rbt.Current_Directory>
/home/itssahil/PROJECTS/Mol_Feturizer/New_Systems/rnas/2oe8

>  <Rbt.Executable>
rbdock ($Id: //depot/dev/client3/rdock/2013.1/src/exe/rbdock.cxx#4 $)

>  <Rbt.Library>
libRbt.so (2013.1, Build901 2013/11/27)

>  <Rbt.Parameter_File>
/export/apps/rDock/src/rDock_2013.1_src/data/scripts/dock_solv.prm

>  <Rbt.Receptor>
prm/pocket_docking_5.prm

>  <SCORE>
-16.4139

>  <SCORE.INTER>
-16.4239

>  <SCORE.INTER.CONST>
1

>  <SCORE.INTER.POLAR>
-1.96091

>  <SCORE.INTER.ROT>
6

>  <SCORE.INTER.SOLV>
8.41106

>  <SCORE.INTER.VDW>
-14.8166

>  <SCORE.INTER.norm>
-0.44389

>  <SCORE.INTRA>
0.00996913

>  <SCORE.INTRA.DIHEDRAL>
-1.6602

>  <SCORE.INTRA.DIHEDRAL.0>
16.4056

>  <SCORE.INTRA.POLAR>
0

>  <SCORE.INTRA.POLAR.0>
0

>  <SCORE.INTRA.REPUL>
0

>  <SCORE.INTRA.REPUL.0>
0

>  <SCORE.INTRA.SOLV>
0.149219

>  <SCORE.INTRA.SOLV.lig_0>
-90.9627

>  <SCORE.INTRA.VDW>
0.76546

>  <SCORE.INTRA.VDW.0>
-3.28744

>  <SCORE.INTRA.norm>
0.000269436

>  <SCORE.RESTR>
0

>  <SCORE.RESTR.CAVITY>
0

>  <SCORE.RESTR.norm>
0

>  <SCORE.SYSTEM>
0

>  <SCORE.SYSTEM.CONST>
0

>  <SCORE.SYSTEM.DIHEDRAL>
0

>  <SCORE.SYSTEM.SOLV>
0

>  <SCORE.SYSTEM.norm>
0

>  <SCORE.heavy>
37

>  <SCORE.norm>
-0.44362

>  <RMSD>
4.589

$$$$
2oe8_lig
 OpenBabel11021811463D
libRbt.so/2013.1/901 2013/11/27
 37 40  0  0  0  0  0  0  0  0999 V2000
   21.7772   -1.8670   51.6776 C   0  0  1  0  0  0  0  0  0  0  0  0
   22.9207   -2.3895   50.7275 C   0  0  1  0  0  0  0  0  0  0  0  0
   22.4780   -2.2270   49.2584 C   0  0  0  0  0  0  0  0  0  0  0  0
   21.1778   -3.0760   49.1017 C   0  0  1  0  0  0  0  0  0  0  0  0
   20.0032   -2.5653   50.0843 C   0  0  1  0  0  0  0  0  0  0  0  0
   18.7085   -3.4192   49.9480 C   0  0  1  0  0  0  0  0  0  0  0  0
   18.2500   -3.3416   48.4345 C   0  0  1  0  0  0  0  0  0  0  0  0
   19.4382   -3.8032   47.5207 C   0  0  2  0  0  0  0  0  0  0  0  0
   16.4477   -4.3210   46.7946 C   0  0  0  0  0  0  0  0  0  0  0  0
   24.1866   -1.6239   50.9593 N   0  0  0  0  0  0  0  0  0  0  0  0
   17.0060   -4.1911   48.1894 N   0  0  0  0  0  0  0  0  0  0  0  0
   21.5105   -0.4743   51.4693 O   0  0  0  0  0  0  0  0  0  0  0  0
   20.5025   -2.6139   51.4656 O   0  0  0  0  0  0  0  0  0  0  0  0
   20.6828   -3.0068   47.7315 O   0  0  0  0  0  0  0  0  0  0  0  0
   19.0386   -4.7498   50.3495 O   0  0  0  0  0  0  0  0  0  0  0  0
   19.0617   -3.6772   46.1980 O   0  0  0  0  0  0  0  0  0  0  0  0
   19.9913   -4.2798   45.2817 C   0  0  2  0  0  0  0  0  0  0  0  0
   19.6149   -3.9233   43.8233 C   0  0  1  0  0  0  0  0  0  0  0  0
   18.2527   -4.5570   43.4050 C   0  0  2  0  0  0  0  0  0  0  0  0
   18.3345   -6.1041   43.5630 C   0  0  1  0  0  0  0  0  0  0  0  0
   18.6420   -6.3958   45.0906 C   0  0  1  0  0  0  0  0  0  0  0  0
   18.7632   -7.8905   45.3738 C   0  0  0  0  0  0  0  0  0  0  0  0
   17.0334   -6.7123   43.1634 N   0  0  0  0  0  0  0  0  0  0  0  0
   19.9570   -5.7560   45.4495 O   0  0  0  0  0  0  0  0  0  0  0  0
   19.5932   -2.4862   43.7272 O   0  0  0  0  0  0  0  0  0  0  0  0
   18.0045   -4.2282   42.0542 O   0  0  0  0  0  0  0  0  0  0  0  0
   18.8680   -8.0968   46.7578 O   0  0  0  0  0  0  0  0  0  0  0  0
   21.0653    0.1968   52.6300 C   0  0  1  0  0  0  0  0  0  0  0  0
   21.5557    1.6785   52.5537 C   0  0  1  0  0  0  0  0  0  0  0  0
   21.0987    2.4223   53.8424 C   0  0  2  0  0  0  0  0  0  0  0  0
   19.5457    2.3823   53.9842 C   0  0  1  0  0  0  0  0  0  0  0  0
   19.0405    0.8906   54.0507 C   0  0  0  0  0  0  0  0  0  0  0  0
   19.5024    0.1386   52.7342 C   0  0  2  0  0  0  0  0  0  0  0  0
   19.1344    3.0946   55.2257 N   0  0  0  0  0  0  0  0  0  0  0  0
   19.0209   -1.2594   52.8031 N   0  0  0  0  0  0  0  0  0  0  0  0
   22.9922    1.7262   52.4672 O   0  0  0  0  0  0  0  0  0  0  0  0
   21.5497    3.7631   53.7443 O   0  0  0  0  0  0  0  0  0  0  0  0
  1  2  1  0  0  0  0
  1 12  1  6  0  0  0
  1 13  1  0  0  0  0
  2  3  1  0  0  0  0
  2 10  1  6  0  0  0
  4  3  1  6  0  0  0
  4  5  1  0  0  0  0
  4 14  1  0  0  0  0
  5  6  1  0  0  0  0
  5 13  1  1  0  0  0
  6  7  1  0  0  0  0
  6 15  1  6  0  0  0
  7  8  1  0  0  0  0
  7 11  1  1  0  0  0
  8 14  1  0  0  0  0
  8 16  1  6  0  0  0
  9 11  1  0  0  0  0
 17 16  1  1  0  0  0
 17 18  1  0  0  0  0
 17 24  1  0  0  0  0
 18 19  1  0  0  0  0
 18 25  1  1  0  0  0
 19 20  1  0  0  0  0
 19 26  1  6  0  0  0
 20 21  1  0  0  0  0
 20 23  1  1  0  0  0
 21 22  1  6  0  0  0
 21 24  1  0  0  0  0
 22 27  1  0  0  0  0
 28 12  1  6  0  0  0
 28 29  1  0  0  0  0
 28 33  1  0  0  0  0
 29 30  1  0  0  0  0
 29 36  1  1  0  0  0
 30 31  1  0  0  0  0
 30 37  1  6  0  0  0
 31 32  1  0  0  0  0
 31 34  1  1  0  0  0
 32 33  1  0  0  0  0
 33 35  1  1  0  0  0
M  END
>  <CHROM.1>
-149.48884644,-176.50332923,-170.25993394,-171.79143061,-172.70891034,148.87670911
19.85976383,-2.52488664,48.92782069,-1.32034057,-0.52268640,-2.10695386

>  <Name>
2oe8_lig

>  <RI>
0

>  <Rbt.Current_Directory>
/home/itssahil/PROJECTS/Mol_Feturizer/New_Systems/rnas/2oe8

>  <Rbt.Executable>
rbdock ($Id: //depot/dev/client3/rdock/2013.1/src/exe/rbdock.cxx#4 $)

>  <Rbt.Library>
libRbt.so (2013.1, Build901 2013/11/27)

>  <Rbt.Parameter_File>
/export/apps/rDock/src/rDock_2013.1_src/data/scripts/dock_solv.prm

>  <Rbt.Receptor>
prm/pocket_docking_4.prm

>  <SCORE>
-18.0197

>  <SCORE.INTER>
-16.0637

>  <SCORE.INTER.CONST>
1

>  <SCORE.INTER.POLAR>
-2.11131

>  <SCORE.INTER.ROT>
6

>  <SCORE.INTER.SOLV>
11.5755

>  <SCORE.INTER.VDW>
-15.1299

>  <SCORE.INTER.norm>
-0.434153

>  <SCORE.INTRA>
-1.95605

>  <SCORE.INTRA.DIHEDRAL>
-7.87959

>  <SCORE.INTRA.DIHEDRAL.0>
16.4056

>  <SCORE.INTRA.POLAR>
0

>  <SCORE.INTRA.POLAR.0>
0

>  <SCORE.INTRA.REPUL>
0

>  <SCORE.INTRA.REPUL.0>
0

>  <SCORE.INTRA.SOLV>
0.353446

>  <SCORE.INTRA.SOLV.lig_0>
-90.9627

>  <SCORE.INTRA.VDW>
1.80703

>  <SCORE.INTRA.VDW.0>
-3.28744

>  <SCORE.INTRA.norm>
-0.0528661

>  <SCORE.RESTR>
0

>  <SCORE.RESTR.CAVITY>
0

>  <SCORE.RESTR.norm>
0

>  <SCORE.SYSTEM>
0

>  <SCORE.SYSTEM.CONST>
0

>  <SCORE.SYSTEM.DIHEDRAL>
0

>  <SCORE.SYSTEM.SOLV>
0

>  <SCORE.SYSTEM.norm>
0

>  <SCORE.heavy>
37

>  <SCORE.norm>
-0.487019

>  <RMSD>
4.629

$$$$
2oe8_lig
 OpenBabel11021811463D
libRbt.so/2013.1/901 2013/11/27
 37 40  0  0  0  0  0  0  0  0999 V2000
   21.7776    0.4368   53.6200 C   0  0  1  0  0  0  0  0  0  0  0  0
   21.2480   -0.8207   54.4086 C   0  0  1  0  0  0  0  0  0  0  0  0
   21.6520   -2.1042   53.6536 C   0  0  0  0  0  0  0  0  0  0  0  0
   20.9944   -2.0012   52.2420 C   0  0  1  0  0  0  0  0  0  0  0  0
   21.5119   -0.7057   51.4298 C   0  0  1  0  0  0  0  0  0  0  0  0
   20.8461   -0.5851   50.0276 C   0  0  1  0  0  0  0  0  0  0  0  0
   21.1743   -1.9153   49.2341 C   0  0  1  0  0  0  0  0  0  0  0  0
   20.6944   -3.1435   50.0833 C   0  0  2  0  0  0  0  0  0  0  0  0
   21.2312   -2.5452   46.6852 C   0  0  0  0  0  0  0  0  0  0  0  0
   21.8180   -0.8505   55.7930 N   0  0  0  0  0  0  0  0  0  0  0  0
   20.5207   -1.9118   47.8548 N   0  0  0  0  0  0  0  0  0  0  0  0
   23.2075    0.4374   53.5228 O   0  0  0  0  0  0  0  0  0  0  0  0
   21.2245    0.4897   52.2348 O   0  0  0  0  0  0  0  0  0  0  0  0
   21.3001   -3.1850   51.4468 O   0  0  0  0  0  0  0  0  0  0  0  0
   19.4445   -0.4102   50.2416 O   0  0  0  0  0  0  0  0  0  0  0  0
   21.0355   -4.3067   49.4218 O   0  0  0  0  0  0  0  0  0  0  0  0
   20.5270   -5.4924   50.0561 C   0  0  2  0  0  0  0  0  0  0  0  0
   21.0492   -6.7556   49.3300 C   0  0  1  0  0  0  0  0  0  0  0  0
   20.4841   -6.8660   47.8806 C   0  0  2  0  0  0  0  0  0  0  0  0
   18.9281   -6.8975   47.9357 C   0  0  1  0  0  0  0  0  0  0  0  0
   18.4635   -5.5430   48.6160 C   0  0  1  0  0  0  0  0  0  0  0  0
   16.9451   -5.4592   48.7437 C   0  0  0  0  0  0  0  0  0  0  0  0
   18.3854   -7.0033   46.5512 N   0  0  0  0  0  0  0  0  0  0  0  0
   19.0419   -5.4766   50.0047 O   0  0  0  0  0  0  0  0  0  0  0  0
   22.4881   -6.6921   49.3443 O   0  0  0  0  0  0  0  0  0  0  0  0
   20.9650   -8.0625   47.3049 O   0  0  0  0  0  0  0  0  0  0  0  0
   16.4816   -6.5324   49.5200 O   0  0  0  0  0  0  0  0  0  0  0  0
   23.7411    1.6491   53.0302 C   0  0  1  0  0  0  0  0  0  0  0  0
   23.6614    2.7149   54.1701 C   0  0  1  0  0  0  0  0  0  0  0  0
   24.2176    4.0650   53.6307 C   0  0  2  0  0  0  0  0  0  0  0  0
   25.6943    3.9051   53.1536 C   0  0  1  0  0  0  0  0  0  0  0  0
   25.7861    2.8233   52.0109 C   0  0  0  0  0  0  0  0  0  0  0  0
   25.2248    1.4489   52.5661 C   0  0  2  0  0  0  0  0  0  0  0  0
   26.2010    5.2069   52.6377 N   0  0  0  0  0  0  0  0  0  0  0  0
   25.3182    0.4384   51.4885 N   0  0  0  0  0  0  0  0  0  0  0  0
   22.2956    2.9013   54.5862 O   0  0  0  0  0  0  0  0  0  0  0  0
   24.1404    5.0104   54.6847 O   0  0  0  0  0  0  0  0  0  0  0  0
  1  2  1  0  0  0  0
  1 12  1  6  0  0  0
  1 13  1  0  0  0  0
  2  3  1  0  0  0  0
  2 10  1  1  0  0  0
  4  3  1  1  0  0  0
  4  5  1  0  0  0  0
  4 14  1  0  0  0  0
  5  6  1  0  0  0  0
  5 13  1  1  0  0  0
  6  7  1  0  0  0  0
  6 15  1  1  0  0  0
  7  8  1  0  0  0  0
  7 11  1  6  0  0  0
  8 14  1  0  0  0  0
  8 16  1  6  0  0  0
  9 11  1  0  0  0  0
 17 16  1  6  0  0  0
 17 18  1  0  0  0  0
 17 24  1  0  0  0  0
 18 19  1  0  0  0  0
 18 25  1  6  0  0  0
 19 20  1  0  0  0  0
 19 26  1  1  0  0  0
 20 21  1  0  0  0  0
 20 23  1  6  0  0  0
 21 22  1  1  0  0  0
 21 24  1  0  0  0  0
 22 27  1  0  0  0  0
 28 12  1  1  0  0  0
 28 29  1  0  0  0  0
 28 33  1  0  0  0  0
 29 30  1  0  0  0  0
 29 36  1  6  0  0  0
 30 31  1  0  0  0  0
 30 37  1  1  0  0  0
 31 32  1  0  0  0  0
 31 34  1  6  0  0  0
 32 33  1  0  0  0  0
 33 35  1  6  0  0  0
M  END
>  <CHROM.1>
-169.74637473,144.60184427,-174.42238043,-175.15999070,59.48968411,75.02523541
21.58472547,-1.75562407,51.04557777,1.00762825,0.67855378,0.89265604

>  <Name>
2oe8_lig

>  <RI>
0

>  <Rbt.Current_Directory>
/home/itssahil/PROJECTS/Mol_Feturizer/New_Systems/rnas/2oe8

>  <Rbt.Executable>
rbdock ($Id: //depot/dev/client3/rdock/2013.1/src/exe/rbdock.cxx#4 $)

>  <Rbt.Library>
libRbt.so (2013.1, Build901 2013/11/27)

>  <Rbt.Parameter_File>
/export/apps/rDock/src/rDock_2013.1_src/data/scripts/dock_solv.prm

>  <Rbt.Receptor>
prm/pocket_docking_8.prm

>  <SCORE>
-23.7091

>  <SCORE.INTER>
-16.7712

>  <SCORE.INTER.CONST>
1

>  <SCORE.INTER.POLAR>
-1.0198

>  <SCORE.INTER.ROT>
6

>  <SCORE.INTER.SOLV>
11.1644

>  <SCORE.INTER.VDW>
-19.1029

>  <SCORE.INTER.norm>
-0.453277

>  <SCORE.INTRA>
-6.9379

>  <SCORE.INTRA.DIHEDRAL>
-13.7404

>  <SCORE.INTRA.DIHEDRAL.0>
16.4056

>  <SCORE.INTRA.POLAR>
0

>  <SCORE.INTRA.POLAR.0>
0

>  <SCORE.INTRA.REPUL>
0

>  <SCORE.INTRA.REPUL.0>
0

>  <SCORE.INTRA.SOLV>
-2.06573

>  <SCORE.INTRA.SOLV.lig_0>
-90.9627

>  <SCORE.INTRA.VDW>
0.965143

>  <SCORE.INTRA.VDW.0>
-3.28744

>  <SCORE.INTRA.norm>
-0.187511

>  <SCORE.RESTR>
0

>  <SCORE.RESTR.CAVITY>
0

>  <SCORE.RESTR.norm>
0

>  <SCORE.SYSTEM>
0

>  <SCORE.SYSTEM.CONST>
0

>  <SCORE.SYSTEM.DIHEDRAL>
0

>  <SCORE.SYSTEM.SOLV>
0

>  <SCORE.SYSTEM.norm>
0

>  <SCORE.heavy>
37

>  <SCORE.norm>
-0.640787

>  <RMSD>
4.780

$$$$
2oe8_lig
 OpenBabel11021811463D
libRbt.so/2013.1/901 2013/11/27
 37 40  0  0  0  0  0  0  0  0999 V2000
   22.5931   -1.7731   51.5875 C   0  0  1  0  0  0  0  0  0  0  0  0
   23.5771   -2.5231   50.6113 C   0  0  1  0  0  0  0  0  0  0  0  0
   22.9055   -2.6808   49.2312 C   0  0  0  0  0  0  0  0  0  0  0  0
   21.6058   -3.5100   49.4744 C   0  0  1  0  0  0  0  0  0  0  0  0
   20.5965   -2.7635   50.4893 C   0  0  1  0  0  0  0  0  0  0  0  0
   19.3056   -3.5931   50.7523 C   0  0  1  0  0  0  0  0  0  0  0  0
   18.6123   -3.8430   49.3510 C   0  0  1  0  0  0  0  0  0  0  0  0
   19.6455   -4.5267   48.3892 C   0  0  2  0  0  0  0  0  0  0  0  0
   16.9842   -5.6836   48.4247 C   0  0  0  0  0  0  0  0  0  0  0  0
   24.8556   -1.7576   50.4644 N   0  0  0  0  0  0  0  0  0  0  0  0
   17.3541   -4.6938   49.5005 N   0  0  0  0  0  0  0  0  0  0  0  0
   22.2823   -0.4556   51.1169 O   0  0  0  0  0  0  0  0  0  0  0  0
   21.3088   -2.5158   51.7506 O   0  0  0  0  0  0  0  0  0  0  0  0
   20.8993   -3.7352   48.2185 O   0  0  0  0  0  0  0  0  0  0  0  0
   19.7090   -4.8087   51.3849 O   0  0  0  0  0  0  0  0  0  0  0  0
   19.0629   -4.6890   47.1477 O   0  0  0  0  0  0  0  0  0  0  0  0
   20.0196   -4.8469   46.0862 C   0  0  2  0  0  0  0  0  0  0  0  0
   20.0068   -3.6046   45.1630 C   0  0  1  0  0  0  0  0  0  0  0  0
   18.6556   -3.4660   44.3967 C   0  0  2  0  0  0  0  0  0  0  0  0
   18.4088   -4.7507   43.5518 C   0  0  1  0  0  0  0  0  0  0  0  0
   18.3542   -5.9669   44.5674 C   0  0  1  0  0  0  0  0  0  0  0  0
   18.1312   -7.2974   43.8540 C   0  0  0  0  0  0  0  0  0  0  0  0
   17.1176   -4.6206   42.8180 N   0  0  0  0  0  0  0  0  0  0  0  0
   19.6726   -6.0526   45.2898 O   0  0  0  0  0  0  0  0  0  0  0  0
   20.2785   -2.4561   45.9889 O   0  0  0  0  0  0  0  0  0  0  0  0
   18.7401   -2.3436   43.5439 O   0  0  0  0  0  0  0  0  0  0  0  0
   18.0337   -8.3260   44.8036 O   0  0  0  0  0  0  0  0  0  0  0  0
   21.3836    0.2463   51.9509 C   0  0  1  0  0  0  0  0  0  0  0  0
   22.2170    1.1722   52.8941 C   0  0  1  0  0  0  0  0  0  0  0  0
   21.2403    1.9288   53.8409 C   0  0  2  0  0  0  0  0  0  0  0  0
   20.2227    2.7812   53.0214 C   0  0  1  0  0  0  0  0  0  0  0  0
   19.3847    1.8565   52.0584 C   0  0  0  0  0  0  0  0  0  0  0  0
   20.3823    1.0928   51.0921 C   0  0  2  0  0  0  0  0  0  0  0  0
   19.2972    3.4899   53.9482 N   0  0  0  0  0  0  0  0  0  0  0  0
   19.5874    0.2302   50.1892 N   0  0  0  0  0  0  0  0  0  0  0  0
   23.1284    0.3886   53.6869 O   0  0  0  0  0  0  0  0  0  0  0  0
   22.0202    2.7652   54.6795 O   0  0  0  0  0  0  0  0  0  0  0  0
  1  2  1  0  0  0  0
  1 12  1  6  0  0  0
  1 13  1  0  0  0  0
  2  3  1  0  0  0  0
  2 10  1  6  0  0  0
  4  3  1  6  0  0  0
  4  5  1  0  0  0  0
  4 14  1  0  0  0  0
  5  6  1  0  0  0  0
  5 13  1  1  0  0  0
  6  7  1  0  0  0  0
  6 15  1  6  0  0  0
  7  8  1  0  0  0  0
  7 11  1  1  0  0  0
  8 14  1  0  0  0  0
  8 16  1  6  0  0  0
  9 11  1  0  0  0  0
 17 16  1  1  0  0  0
 17 18  1  0  0  0  0
 17 24  1  0  0  0  0
 18 19  1  0  0  0  0
 18 25  1  1  0  0  0
 19 20  1  0  0  0  0
 19 26  1  6  0  0  0
 20 21  1  0  0  0  0
 20 23  1  1  0  0  0
 21 22  1  6  0  0  0
 21 24  1  0  0  0  0
 22 27  1  0  0  0  0
 28 12  1  6  0  0  0
 28 29  1  0  0  0  0
 28 33  1  0  0  0  0
 29 30  1  0  0  0  0
 29 36  1  1  0  0  0
 30 31  1  0  0  0  0
 30 37  1  1  0  0  0
 31 32  1  0  0  0  0
 31 34  1  1  0  0  0
 32 33  1  0  0  0  0
 33 35  1  6  0  0  0
M  END
>  <CHROM.1>
178.98079144,-144.99696953,158.92284580,-110.95794904,-177.45331829,96.99896438
20.20320580,-2.50162239,49.04751895,-1.13073820,0.86150195,-2.60188475

>  <Name>
2oe8_lig

>  <RI>
0

>  <Rbt.Current_Directory>
/home/itssahil/PROJECTS/Mol_Feturizer/New_Systems/rnas/2oe8

>  <Rbt.Executable>
rbdock ($Id: //depot/dev/client3/rdock/2013.1/src/exe/rbdock.cxx#4 $)

>  <Rbt.Library>
libRbt.so (2013.1, Build901 2013/11/27)

>  <Rbt.Parameter_File>
/export/apps/rDock/src/rDock_2013.1_src/data/scripts/dock_solv.prm

>  <Rbt.Receptor>
prm/pocket_docking_7.prm

>  <SCORE>
-19.5892

>  <SCORE.INTER>
-23.0487

>  <SCORE.INTER.CONST>
1

>  <SCORE.INTER.POLAR>
-2.9996

>  <SCORE.INTER.ROT>
6

>  <SCORE.INTER.SOLV>
11.8209

>  <SCORE.INTER.VDW>
-16.9074

>  <SCORE.INTER.norm>
-0.622937

>  <SCORE.INTRA>
3.45947

>  <SCORE.INTRA.DIHEDRAL>
-1.90446

>  <SCORE.INTRA.DIHEDRAL.0>
16.4056

>  <SCORE.INTRA.POLAR>
0

>  <SCORE.INTRA.POLAR.0>
0

>  <SCORE.INTRA.REPUL>
0

>  <SCORE.INTRA.REPUL.0>
0

>  <SCORE.INTRA.SOLV>
-0.834649

>  <SCORE.INTRA.SOLV.lig_0>
-90.9627

>  <SCORE.INTRA.VDW>
4.82902

>  <SCORE.INTRA.VDW.0>
-3.28744

>  <SCORE.INTRA.norm>
0.0934991

>  <SCORE.RESTR>
0

>  <SCORE.RESTR.CAVITY>
0

>  <SCORE.RESTR.norm>
0

>  <SCORE.SYSTEM>
0

>  <SCORE.SYSTEM.CONST>
0

>  <SCORE.SYSTEM.DIHEDRAL>
0

>  <SCORE.SYSTEM.SOLV>
0

>  <SCORE.SYSTEM.norm>
0

>  <SCORE.heavy>
37

>  <SCORE.norm>
-0.529437

>  <RMSD>
4.813

$$$$
2oe8_lig
 OpenBabel11021811463D
libRbt.so/2013.1/901 2013/11/27
 37 40  0  0  0  0  0  0  0  0999 V2000
   20.1180   -2.7558   52.1407 C   0  0  1  0  0  0  0  0  0  0  0  0
   21.3092   -2.4351   51.1601 C   0  0  1  0  0  0  0  0  0  0  0  0
   20.7616   -2.2756   49.7265 C   0  0  0  0  0  0  0  0  0  0  0  0
   20.0823   -3.6345   49.3689 C   0  0  1  0  0  0  0  0  0  0  0  0
   18.8726   -3.9868   50.3781 C   0  0  1  0  0  0  0  0  0  0  0  0
   18.2018   -5.3505   50.0399 C   0  0  1  0  0  0  0  0  0  0  0  0
   17.6820   -5.2625   48.5469 C   0  0  1  0  0  0  0  0  0  0  0  0
   18.8820   -4.8740   47.6146 C   0  0  2  0  0  0  0  0  0  0  0  0
   16.2519   -6.6346   46.8238 C   0  0  0  0  0  0  0  0  0  0  0  0
   22.0067   -1.1768   51.5753 N   0  0  0  0  0  0  0  0  0  0  0  0
   17.0458   -6.5775   48.1045 N   0  0  0  0  0  0  0  0  0  0  0  0
   19.1571   -1.6929   52.1723 O   0  0  0  0  0  0  0  0  0  0  0  0
   19.4044   -4.0065   51.7479 O   0  0  0  0  0  0  0  0  0  0  0  0
   19.5441   -3.5973   48.0138 O   0  0  0  0  0  0  0  0  0  0  0  0
   19.1958   -6.3619   50.2119 O   0  0  0  0  0  0  0  0  0  0  0  0
   18.4183   -4.7359   46.3211 O   0  0  0  0  0  0  0  0  0  0  0  0
   19.4647   -4.7612   45.3356 C   0  0  2  0  0  0  0  0  0  0  0  0
   19.4695   -3.4434   44.5239 C   0  0  1  0  0  0  0  0  0  0  0  0
   18.1803   -3.2904   43.6597 C   0  0  2  0  0  0  0  0  0  0  0  0
   18.0633   -4.5038   42.6905 C   0  0  1  0  0  0  0  0  0  0  0  0
   17.9828   -5.8064   43.5903 C   0  0  1  0  0  0  0  0  0  0  0  0
   17.8808   -7.0761   42.7498 C   0  0  0  0  0  0  0  0  0  0  0  0
   16.8317   -4.3598   41.8629 N   0  0  0  0  0  0  0  0  0  0  0  0
   19.2404   -5.9041   44.4126 O   0  0  0  0  0  0  0  0  0  0  0  0
   19.6192   -2.3630   45.4647 O   0  0  0  0  0  0  0  0  0  0  0  0
   18.2818   -2.0943   42.9159 O   0  0  0  0  0  0  0  0  0  0  0  0
   17.7651   -8.1890   43.5967 O   0  0  0  0  0  0  0  0  0  0  0  0
   19.7080   -0.4420   52.5296 C   0  0  1  0  0  0  0  0  0  0  0  0
   18.7162    0.6752   52.0712 C   0  0  1  0  0  0  0  0  0  0  0  0
   19.3259    2.0616   52.4307 C   0  0  2  0  0  0  0  0  0  0  0  0
   19.5815    2.1736   53.9655 C   0  0  1  0  0  0  0  0  0  0  0  0
   20.5726    1.0431   54.4392 C   0  0  0  0  0  0  0  0  0  0  0  0
   19.9454   -0.3668   54.0770 C   0  0  2  0  0  0  0  0  0  0  0  0
   20.1690    3.5047   54.2828 N   0  0  0  0  0  0  0  0  0  0  0  0
   20.8802   -1.4221   54.5284 N   0  0  0  0  0  0  0  0  0  0  0  0
   18.5089    0.6070   50.6480 O   0  0  0  0  0  0  0  0  0  0  0  0
   18.4048    3.0548   52.0112 O   0  0  0  0  0  0  0  0  0  0  0  0
  1  2  1  0  0  0  0
  1 12  1  6  0  0  0
  1 13  1  0  0  0  0
  2  3  1  0  0  0  0
  2 10  1  1  0  0  0
  4  3  1  1  0  0  0
  4  5  1  0  0  0  0
  4 14  1  0  0  0  0
  5  6  1  0  0  0  0
  5 13  1  1  0  0  0
  6  7  1  0  0  0  0
  6 15  1  6  0  0  0
  7  8  1  0  0  0  0
  7 11  1  6  0  0  0
  8 14  1  0  0  0  0
  8 16  1  6  0  0  0
  9 11  1  0  0  0  0
 17 16  1  1  0  0  0
 17 18  1  0  0  0  0
 17 24  1  0  0  0  0
 18 19  1  0  0  0  0
 18 25  1  1  0  0  0
 19 20  1  0  0  0  0
 19 26  1  6  0  0  0
 20 21  1  0  0  0  0
 20 23  1  1  0  0  0
 21 22  1  6  0  0  0
 21 24  1  0  0  0  0
 22 27  1  0  0  0  0
 28 12  1  1  0  0  0
 28 29  1  0  0  0  0
 28 33  1  0  0  0  0
 29 30  1  0  0  0  0
 29 36  1  6  0  0  0
 30 31  1  0  0  0  0
 30 37  1  1  0  0  0
 31 32  1  0  0  0  0
 31 34  1  6  0  0  0
 32 33  1  0  0  0  0
 33 35  1  6  0  0  0
M  END
>  <CHROM.1>
-56.83087555,168.21796313,-163.18575997,-120.56837776,-177.92704940,161.26168269
19.05172718,-2.89860679,48.75588856,-0.23450979,1.39998033,2.78719660

>  <Name>
2oe8_lig

>  <RI>
0

>  <Rbt.Current_Directory>
/home/itssahil/PROJECTS/Mol_Feturizer/New_Systems/rnas/2oe8

>  <Rbt.Executable>
rbdock ($Id: //depot/dev/client3/rdock/2013.1/src/exe/rbdock.cxx#4 $)

>  <Rbt.Library>
libRbt.so (2013.1, Build901 2013/11/27)

>  <Rbt.Parameter_File>
/export/apps/rDock/src/rDock_2013.1_src/data/scripts/dock_solv.prm

>  <Rbt.Receptor>
prm/pocket_docking_5.prm

>  <SCORE>
-20.1718

>  <SCORE.INTER>
-20.1428

>  <SCORE.INTER.CONST>
1

>  <SCORE.INTER.POLAR>
-1.93072

>  <SCORE.INTER.ROT>
6

>  <SCORE.INTER.SOLV>
12.6652

>  <SCORE.INTER.VDW>
-18.8145

>  <SCORE.INTER.norm>
-0.544399

>  <SCORE.INTRA>
-0.0290768

>  <SCORE.INTRA.DIHEDRAL>
-6.06926

>  <SCORE.INTRA.DIHEDRAL.0>
16.4056

>  <SCORE.INTRA.POLAR>
0

>  <SCORE.INTRA.POLAR.0>
0

>  <SCORE.INTRA.REPUL>
0

>  <SCORE.INTRA.REPUL.0>
0

>  <SCORE.INTRA.SOLV>
2.60425

>  <SCORE.INTRA.SOLV.lig_0>
-90.9627

>  <SCORE.INTRA.VDW>
1.70343

>  <SCORE.INTRA.VDW.0>
-3.28744

>  <SCORE.INTRA.norm>
-0.000785859

>  <SCORE.RESTR>
0

>  <SCORE.RESTR.CAVITY>
0

>  <SCORE.RESTR.norm>
0

>  <SCORE.SYSTEM>
0

>  <SCORE.SYSTEM.CONST>
0

>  <SCORE.SYSTEM.DIHEDRAL>
0

>  <SCORE.SYSTEM.SOLV>
0

>  <SCORE.SYSTEM.norm>
0

>  <SCORE.heavy>
37

>  <SCORE.norm>
-0.545185

>  <RMSD>
4.868

$$$$
2oe8_lig
 OpenBabel11021811463D
libRbt.so/2013.1/901 2013/11/27
 37 40  0  0  0  0  0  0  0  0999 V2000
   22.5429   -1.6677   51.3373 C   0  0  1  0  0  0  0  0  0  0  0  0
   23.5874   -2.3349   50.3639 C   0  0  1  0  0  0  0  0  0  0  0  0
   23.0599   -2.2547   48.9162 C   0  0  0  0  0  0  0  0  0  0  0  0
   21.7026   -3.0251   48.9067 C   0  0  1  0  0  0  0  0  0  0  0  0
   20.6286   -2.3651   49.9152 C   0  0  1  0  0  0  0  0  0  0  0  0
   19.2779   -3.1392   49.9259 C   0  0  1  0  0  0  0  0  0  0  0  0
   18.7266   -3.1457   48.4417 C   0  0  1  0  0  0  0  0  0  0  0  0
   19.8216   -3.7526   47.4970 C   0  0  2  0  0  0  0  0  0  0  0  0
   16.6850   -3.9962   47.0257 C   0  0  0  0  0  0  0  0  0  0  0  0
   24.9103   -1.6396   50.4569 N   0  0  0  0  0  0  0  0  0  0  0  0
   17.4194   -3.9270   48.3409 N   0  0  0  0  0  0  0  0  0  0  0  0
   22.3491   -0.2801   51.0356 O   0  0  0  0  0  0  0  0  0  0  0  0
   21.2136   -2.3424   51.2630 O   0  0  0  0  0  0  0  0  0  0  0  0
   21.1238   -3.0267   47.5679 O   0  0  0  0  0  0  0  0  0  0  0  0
   19.5514   -4.4547   50.4111 O   0  0  0  0  0  0  0  0  0  0  0  0
   19.3675   -3.7020   46.1938 O   0  0  0  0  0  0  0  0  0  0  0  0
   20.2141   -4.4045   45.2683 C   0  0  2  0  0  0  0  0  0  0  0  0
   19.6667   -4.2643   43.8274 C   0  0  1  0  0  0  0  0  0  0  0  0
   18.2928   -4.9822   43.6570 C   0  0  2  0  0  0  0  0  0  0  0  0
   18.4519   -6.4897   44.0139 C   0  0  1  0  0  0  0  0  0  0  0  0
   18.9359   -6.5578   45.5220 C   0  0  1  0  0  0  0  0  0  0  0  0
   19.1458   -7.9949   45.9904 C   0  0  0  0  0  0  0  0  0  0  0  0
   17.1397   -7.1784   43.8516 N   0  0  0  0  0  0  0  0  0  0  0  0
   20.2562   -5.8432   45.6384 O   0  0  0  0  0  0  0  0  0  0  0  0
   19.5783   -2.8556   43.5395 O   0  0  0  0  0  0  0  0  0  0  0  0
   17.8855   -4.8513   42.3111 O   0  0  0  0  0  0  0  0  0  0  0  0
   17.9013   -8.6294   46.1237 O   0  0  0  0  0  0  0  0  0  0  0  0
   21.4447    0.3678   51.9063 C   0  0  1  0  0  0  0  0  0  0  0  0
   22.2622    1.3233   52.8339 C   0  0  1  0  0  0  0  0  0  0  0  0
   21.2810    2.0208   53.8206 C   0  0  2  0  0  0  0  0  0  0  0  0
   20.1971    2.8310   53.0445 C   0  0  1  0  0  0  0  0  0  0  0  0
   19.3744    1.8768   52.0973 C   0  0  0  0  0  0  0  0  0  0  0  0
   20.3762    1.1734   51.0903 C   0  0  2  0  0  0  0  0  0  0  0  0
   19.2687    3.4835   54.0089 N   0  0  0  0  0  0  0  0  0  0  0  0
   19.5953    0.2827   50.2026 N   0  0  0  0  0  0  0  0  0  0  0  0
   23.2359    0.5768   53.5876 O   0  0  0  0  0  0  0  0  0  0  0  0
   22.0461    2.8853   54.6442 O   0  0  0  0  0  0  0  0  0  0  0  0
  1  2  1  0  0  0  0
  1 12  1  6  0  0  0
  1 13  1  0  0  0  0
  2  3  1  0  0  0  0
  2 10  1  6  0  0  0
  4  3  1  6  0  0  0
  4  5  1  0  0  0  0
  4 14  1  0  0  0  0
  5  6  1  0  0  0  0
  5 13  1  1  0  0  0
  6  7  1  0  0  0  0
  6 15  1  6  0  0  0
  7  8  1  0  0  0  0
  7 11  1  1  0  0  0
  8 14  1  0  0  0  0
  8 16  1  6  0  0  0
  9 11  1  0  0  0  0
 17 16  1  1  0  0  0
 17 18  1  0  0  0  0
 17 24  1  0  0  0  0
 18 19  1  0  0  0  0
 18 25  1  1  0  0  0
 19 20  1  0  0  0  0
 19 26  1  6  0  0  0
 20 21  1  0  0  0  0
 20 23  1  1  0  0  0
 21 22  1  6  0  0  0
 21 24  1  0  0  0  0
 22 27  1  0  0  0  0
 28 12  1  6  0  0  0
 28 29  1  0  0  0  0
 28 33  1  0  0  0  0
 29 30  1  0  0  0  0
 29 36  1  1  0  0  0
 30 31  1  0  0  0  0
 30 37  1  1  0  0  0
 31 32  1  0  0  0  0
 31 34  1  1  0  0  0
 32 33  1  0  0  0  0
 33 35  1  6  0  0  0
M  END
>  <CHROM.1>
-178.47364467,176.78218739,-171.70596996,-178.16296384,-70.92861444,108.16944007
20.22420933,-2.52397411,48.74887747,-1.28126506,0.37601705,-2.40341251

>  <Name>
2oe8_lig

>  <RI>
0

>  <Rbt.Current_Directory>
/home/itssahil/PROJECTS/Mol_Feturizer/New_Systems/rnas/2oe8

>  <Rbt.Executable>
rbdock ($Id: //depot/dev/client3/rdock/2013.1/src/exe/rbdock.cxx#4 $)

>  <Rbt.Library>
libRbt.so (2013.1, Build901 2013/11/27)

>  <Rbt.Parameter_File>
/export/apps/rDock/src/rDock_2013.1_src/data/scripts/dock_solv.prm

>  <Rbt.Receptor>
prm/pocket_docking_8.prm

>  <SCORE>
-26.5123

>  <SCORE.INTER>
-23.1112

>  <SCORE.INTER.CONST>
1

>  <SCORE.INTER.POLAR>
-2.99526

>  <SCORE.INTER.ROT>
6

>  <SCORE.INTER.SOLV>
10.7728

>  <SCORE.INTER.VDW>
-16.6142

>  <SCORE.INTER.norm>
-0.624628

>  <SCORE.INTRA>
-3.40103

>  <SCORE.INTRA.DIHEDRAL>
-9.01966

>  <SCORE.INTRA.DIHEDRAL.0>
16.4056

>  <SCORE.INTRA.POLAR>
0

>  <SCORE.INTRA.POLAR.0>
0

>  <SCORE.INTRA.REPUL>
0

>  <SCORE.INTRA.REPUL.0>
0

>  <SCORE.INTRA.SOLV>
0.923446

>  <SCORE.INTRA.SOLV.lig_0>
-90.9627

>  <SCORE.INTRA.VDW>
0.647074

>  <SCORE.INTRA.VDW.0>
-3.28744

>  <SCORE.INTRA.norm>
-0.0919198

>  <SCORE.RESTR>
0

>  <SCORE.RESTR.CAVITY>
0

>  <SCORE.RESTR.norm>
0

>  <SCORE.SYSTEM>
0

>  <SCORE.SYSTEM.CONST>
0

>  <SCORE.SYSTEM.DIHEDRAL>
0

>  <SCORE.SYSTEM.SOLV>
0

>  <SCORE.SYSTEM.norm>
0

>  <SCORE.heavy>
37

>  <SCORE.norm>
-0.716547

>  <RMSD>
4.876

$$$$
2oe8_lig
 OpenBabel11021811463D
libRbt.so/2013.1/901 2013/11/27
 37 40  0  0  0  0  0  0  0  0999 V2000
   22.5569   -1.6873   51.3016 C   0  0  1  0  0  0  0  0  0  0  0  0
   23.5955   -2.3491   50.3185 C   0  0  1  0  0  0  0  0  0  0  0  0
   23.0579   -2.2640   48.8748 C   0  0  0  0  0  0  0  0  0  0  0  0
   21.7017   -3.0363   48.8716 C   0  0  1  0  0  0  0  0  0  0  0  0
   20.6338   -2.3818   49.8901 C   0  0  1  0  0  0  0  0  0  0  0  0
   19.2843   -3.1579   49.9072 C   0  0  1  0  0  0  0  0  0  0  0  0
   18.7227   -3.1594   48.4268 C   0  0  1  0  0  0  0  0  0  0  0  0
   19.8120   -3.7610   47.4722 C   0  0  2  0  0  0  0  0  0  0  0  0
   16.6695   -4.0025   47.0231 C   0  0  0  0  0  0  0  0  0  0  0  0
   24.9181   -1.6523   50.4050 N   0  0  0  0  0  0  0  0  0  0  0  0
   17.4159   -3.9422   48.3319 N   0  0  0  0  0  0  0  0  0  0  0  0
   22.3590   -0.2988   51.0067 O   0  0  0  0  0  0  0  0  0  0  0  0
   21.2281   -2.3636   51.2340 O   0  0  0  0  0  0  0  0  0  0  0  0
   21.1137   -3.0336   47.5369 O   0  0  0  0  0  0  0  0  0  0  0  0
   19.5630   -4.4749   50.3853 O   0  0  0  0  0  0  0  0  0  0  0  0
   19.3488   -3.7060   46.1723 O   0  0  0  0  0  0  0  0  0  0  0  0
   20.1998   -4.3880   45.2355 C   0  0  2  0  0  0  0  0  0  0  0  0
   19.6706   -4.1984   43.7933 C   0  0  1  0  0  0  0  0  0  0  0  0
   18.2923   -4.8976   43.5852 C   0  0  2  0  0  0  0  0  0  0  0  0
   18.4333   -6.4167   43.8974 C   0  0  1  0  0  0  0  0  0  0  0  0
   18.8988   -6.5356   45.4081 C   0  0  1  0  0  0  0  0  0  0  0  0
   19.0900   -7.9884   45.8345 C   0  0  0  0  0  0  0  0  0  0  0  0
   17.1168   -7.0875   43.6989 N   0  0  0  0  0  0  0  0  0  0  0  0
   20.2242   -5.8376   45.5616 O   0  0  0  0  0  0  0  0  0  0  0  0
   19.5987   -2.7808   43.5479 O   0  0  0  0  0  0  0  0  0  0  0  0
   17.9021   -4.7217   42.2394 O   0  0  0  0  0  0  0  0  0  0  0  0
   19.4461   -8.0342   47.1911 O   0  0  0  0  0  0  0  0  0  0  0  0
   21.4582    0.3439   51.8849 C   0  0  1  0  0  0  0  0  0  0  0  0
   22.2836    1.2625   52.8423 C   0  0  1  0  0  0  0  0  0  0  0  0
   21.3057    1.9534   53.8369 C   0  0  2  0  0  0  0  0  0  0  0  0
   20.2431    2.8008   53.0711 C   0  0  1  0  0  0  0  0  0  0  0  0
   19.4126    1.8840   52.0941 C   0  0  0  0  0  0  0  0  0  0  0  0
   20.4112    1.1874   51.0793 C   0  0  2  0  0  0  0  0  0  0  0  0
   19.3174    3.4462   54.0428 N   0  0  0  0  0  0  0  0  0  0  0  0
   19.6231    0.3319   50.1637 N   0  0  0  0  0  0  0  0  0  0  0  0
   23.2373    0.4813   53.5862 O   0  0  0  0  0  0  0  0  0  0  0  0
   22.0782    2.7844   54.6875 O   0  0  0  0  0  0  0  0  0  0  0  0
  1  2  1  0  0  0  0
  1 12  1  6  0  0  0
  1 13  1  0  0  0  0
  2  3  1  0  0  0  0
  2 10  1  6  0  0  0
  4  3  1  6  0  0  0
  4  5  1  0  0  0  0
  4 14  1  0  0  0  0
  5  6  1  0  0  0  0
  5 13  1  1  0  0  0
  6  7  1  0  0  0  0
  6 15  1  6  0  0  0
  7  8  1  0  0  0  0
  7 11  1  1  0  0  0
  8 14  1  0  0  0  0
  8 16  1  6  0  0  0
  9 11  1  0  0  0  0
 17 16  1  1  0  0  0
 17 18  1  0  0  0  0
 17 24  1  0  0  0  0
 18 19  1  0  0  0  0
 18 25  1  1  0  0  0
 19 20  1  0  0  0  0
 19 26  1  6  0  0  0
 20 21  1  0  0  0  0
 20 23  1  1  0  0  0
 21 22  1  6  0  0  0
 21 24  1  0  0  0  0
 22 27  1  0  0  0  0
 28 12  1  6  0  0  0
 28 29  1  0  0  0  0
 28 33  1  0  0  0  0
 29 30  1  0  0  0  0
 29 36  1  1  0  0  0
 30 31  1  0  0  0  0
 30 37  1  1  0  0  0
 31 32  1  0  0  0  0
 31 34  1  1  0  0  0
 32 33  1  0  0  0  0
 33 35  1  6  0  0  0
M  END
>  <CHROM.1>
-178.56907900,176.52217073,-172.52022775,-176.02134181,-177.54149740,106.39267024
20.27562242,-2.50584454,48.74936991,-1.27417543,0.49022317,-2.42180231

>  <Name>
2oe8_lig

>  <RI>
0

>  <Rbt.Current_Directory>
/home/itssahil/PROJECTS/Mol_Feturizer/New_Systems/rnas/2oe8

>  <Rbt.Executable>
rbdock ($Id: //depot/dev/client3/rdock/2013.1/src/exe/rbdock.cxx#4 $)

>  <Rbt.Library>
libRbt.so (2013.1, Build901 2013/11/27)

>  <Rbt.Parameter_File>
/export/apps/rDock/src/rDock_2013.1_src/data/scripts/dock_solv.prm

>  <Rbt.Receptor>
prm/pocket_docking_5.prm

>  <SCORE>
-27.4609

>  <SCORE.INTER>
-22.9973

>  <SCORE.INTER.CONST>
1

>  <SCORE.INTER.POLAR>
-2.9996

>  <SCORE.INTER.ROT>
6

>  <SCORE.INTER.SOLV>
11.071

>  <SCORE.INTER.VDW>
-16.6232

>  <SCORE.INTER.norm>
-0.621548

>  <SCORE.INTRA>
-4.46367

>  <SCORE.INTRA.DIHEDRAL>
-9.62696

>  <SCORE.INTRA.DIHEDRAL.0>
16.4056

>  <SCORE.INTRA.POLAR>
0

>  <SCORE.INTRA.POLAR.0>
0

>  <SCORE.INTRA.REPUL>
0

>  <SCORE.INTRA.REPUL.0>
0

>  <SCORE.INTRA.SOLV>
-0.256446

>  <SCORE.INTRA.SOLV.lig_0>
-90.9627

>  <SCORE.INTRA.VDW>
0.478034

>  <SCORE.INTRA.VDW.0>
-3.28744

>  <SCORE.INTRA.norm>
-0.12064

>  <SCORE.RESTR>
0

>  <SCORE.RESTR.CAVITY>
0

>  <SCORE.RESTR.norm>
0

>  <SCORE.SYSTEM>
0

>  <SCORE.SYSTEM.CONST>
0

>  <SCORE.SYSTEM.DIHEDRAL>
0

>  <SCORE.SYSTEM.SOLV>
0

>  <SCORE.SYSTEM.norm>
0

>  <SCORE.heavy>
37

>  <SCORE.norm>
-0.742187

>  <RMSD>
4.877

$$$$
2oe8_lig
 OpenBabel11021811463D
libRbt.so/2013.1/901 2013/11/27
 37 40  0  0  0  0  0  0  0  0999 V2000
   19.3345    3.8906   55.4315 C   0  0  1  0  0  0  0  0  0  0  0  0
   18.5357    3.9224   54.0735 C   0  0  1  0  0  0  0  0  0  0  0  0
   18.6490    2.5478   53.3821 C   0  0  0  0  0  0  0  0  0  0  0  0
   20.1722    2.3095   53.1391 C   0  0  1  0  0  0  0  0  0  0  0  0
   21.0071    2.2949   54.5207 C   0  0  1  0  0  0  0  0  0  0  0  0
   22.5306    2.0769   54.2857 C   0  0  1  0  0  0  0  0  0  0  0  0
   22.6967    0.7050   53.5129 C   0  0  1  0  0  0  0  0  0  0  0  0
   21.8325    0.7524   52.2048 C   0  0  2  0  0  0  0  0  0  0  0  0
   24.5637   -0.9106   52.6179 C   0  0  0  0  0  0  0  0  0  0  0  0
   17.0943    4.2448   54.3196 N   0  0  0  0  0  0  0  0  0  0  0  0
   24.1625    0.4242   53.1933 N   0  0  0  0  0  0  0  0  0  0  0  0
   18.7997    2.9176   56.3378 O   0  0  0  0  0  0  0  0  0  0  0  0
   20.7759    3.5699   55.2139 O   0  0  0  0  0  0  0  0  0  0  0  0
   20.3902    1.0343   52.4657 O   0  0  0  0  0  0  0  0  0  0  0  0
   23.0022    3.1907   53.5256 O   0  0  0  0  0  0  0  0  0  0  0  0
   21.9266   -0.4657   51.5610 O   0  0  0  0  0  0  0  0  0  0  0  0
   22.0762   -0.3465   50.1362 C   0  0  2  0  0  0  0  0  0  0  0  0
   20.7988   -0.8455   49.4187 C   0  0  1  0  0  0  0  0  0  0  0  0
   20.5822   -2.3768   49.6195 C   0  0  2  0  0  0  0  0  0  0  0  0
   21.8229   -3.1475   49.0792 C   0  0  1  0  0  0  0  0  0  0  0  0
   23.0755   -2.6455   49.9112 C   0  0  1  0  0  0  0  0  0  0  0  0
   24.3681   -3.3206   49.4614 C   0  0  0  0  0  0  0  0  0  0  0  0
   21.6181   -4.6118   49.2698 N   0  0  0  0  0  0  0  0  0  0  0  0
   23.2364   -1.1639   49.6956 O   0  0  0  0  0  0  0  0  0  0  0  0
   19.6942   -0.0735   49.9274 O   0  0  0  0  0  0  0  0  0  0  0  0
   19.4306   -2.7622   48.8985 O   0  0  0  0  0  0  0  0  0  0  0  0
   25.4370   -2.8475   50.2377 O   0  0  0  0  0  0  0  0  0  0  0  0
   17.5965    3.3222   56.9577 C   0  0  1  0  0  0  0  0  0  0  0  0
   17.0297    2.1069   57.7598 C   0  0  1  0  0  0  0  0  0  0  0  0
   15.6863    2.5295   58.4228 C   0  0  2  0  0  0  0  0  0  0  0  0
   15.8975    3.7453   59.3772 C   0  0  1  0  0  0  0  0  0  0  0  0
   16.4799    4.9732   58.5785 C   0  0  0  0  0  0  0  0  0  0  0  0
   17.8505    4.5406   57.9103 C   0  0  2  0  0  0  0  0  0  0  0  0
   14.5989    4.1335   59.9940 N   0  0  0  0  0  0  0  0  0  0  0  0
   18.3921    5.6999   57.1661 N   0  0  0  0  0  0  0  0  0  0  0  0
   16.7897    0.9938   56.8785 O   0  0  0  0  0  0  0  0  0  0  0  0
   15.1982    1.4131   59.1483 O   0  0  0  0  0  0  0  0  0  0  0  0
  1  2  1  0  0  0  0
  1 12  1  1  0  0  0
  1 13  1  0  0  0  0
  2  3  1  0  0  0  0
  2 10  1  1  0  0  0
  4  3  1  1  0  0  0
  4  5  1  0  0  0  0
  4 14  1  0  0  0  0
  5  6  1  0  0  0  0
  5 13  1  6  0  0  0
  6  7  1  0  0  0  0
  6 15  1  6  0  0  0
  7  8  1  0  0  0  0
  7 11  1  6  0  0  0
  8 14  1  0  0  0  0
  8 16  1  1  0  0  0
  9 11  1  0  0  0  0
 17 16  1  1  0  0  0
 17 18  1  0  0  0  0
 17 24  1  0  0  0  0
 18 19  1  0  0  0  0
 18 25  1  1  0  0  0
 19 20  1  0  0  0  0
 19 26  1  6  0  0  0
 20 21  1  0  0  0  0
 20 23  1  1  0  0  0
 21 22  1  6  0  0  0
 21 24  1  0  0  0  0
 22 27  1  0  0  0  0
 28 12  1  1  0  0  0
 28 29  1  0  0  0  0
 28 33  1  0  0  0  0
 29 30  1  0  0  0  0
 29 36  1  6  0  0  0
 30 31  1  0  0  0  0
 30 37  1  1  0  0  0
 31 32  1  0  0  0  0
 31 34  1  6  0  0  0
 32 33  1  0  0  0  0
 33 35  1  6  0  0  0
M  END
>  <CHROM.1>
-75.88677668,172.20058456,-137.77564006,-110.88259531,-179.50326691,172.49984340
20.11315815,1.09434842,53.68620989,-2.14878965,-0.30169396,-2.38601054

>  <Name>
2oe8_lig

>  <RI>
0

>  <Rbt.Current_Directory>
/home/itssahil/PROJECTS/Mol_Feturizer/New_Systems/rnas/2oe8

>  <Rbt.Executable>
rbdock ($Id: //depot/dev/client3/rdock/2013.1/src/exe/rbdock.cxx#4 $)

>  <Rbt.Library>
libRbt.so (2013.1, Build901 2013/11/27)

>  <Rbt.Parameter_File>
/export/apps/rDock/src/rDock_2013.1_src/data/scripts/dock_solv.prm

>  <Rbt.Receptor>
prm/pocket_docking_6.prm

>  <SCORE>
-14.9149

>  <SCORE.INTER>
-16.1417

>  <SCORE.INTER.CONST>
1

>  <SCORE.INTER.POLAR>
-1.99483

>  <SCORE.INTER.ROT>
6

>  <SCORE.INTER.SOLV>
11.4387

>  <SCORE.INTER.VDW>
-15.5246

>  <SCORE.INTER.norm>
-0.436263

>  <SCORE.INTRA>
1.22097

>  <SCORE.INTRA.DIHEDRAL>
-2.35512

>  <SCORE.INTRA.DIHEDRAL.0>
16.4056

>  <SCORE.INTRA.POLAR>
0

>  <SCORE.INTRA.POLAR.0>
0

>  <SCORE.INTRA.REPUL>
0

>  <SCORE.INTRA.REPUL.0>
0

>  <SCORE.INTRA.SOLV>
1.89973

>  <SCORE.INTRA.SOLV.lig_0>
-90.9627

>  <SCORE.INTRA.VDW>
1.44867

>  <SCORE.INTRA.VDW.0>
-3.28744

>  <SCORE.INTRA.norm>
0.0329992

>  <SCORE.RESTR>
0.00585277

>  <SCORE.RESTR.CAVITY>
0.00585277

>  <SCORE.RESTR.norm>
0.000158183

>  <SCORE.SYSTEM>
0

>  <SCORE.SYSTEM.CONST>
0

>  <SCORE.SYSTEM.DIHEDRAL>
0

>  <SCORE.SYSTEM.SOLV>
0

>  <SCORE.SYSTEM.norm>
0

>  <SCORE.heavy>
37

>  <SCORE.norm>
-0.403105

>  <RMSD>
4.880

$$$$
2oe8_lig
 OpenBabel11021811463D
libRbt.so/2013.1/901 2013/11/27
 37 40  0  0  0  0  0  0  0  0999 V2000
   21.5571   -2.7021   52.1581 C   0  0  1  0  0  0  0  0  0  0  0  0
   22.6737   -3.4415   51.3275 C   0  0  1  0  0  0  0  0  0  0  0  0
   22.3015   -3.4102   49.8304 C   0  0  0  0  0  0  0  0  0  0  0  0
   20.9275   -4.1407   49.7106 C   0  0  1  0  0  0  0  0  0  0  0  0
   19.7777   -3.4060   50.5733 C   0  0  1  0  0  0  0  0  0  0  0  0
   18.4081   -4.1395   50.4744 C   0  0  1  0  0  0  0  0  0  0  0  0
   18.0131   -4.1957   48.9422 C   0  0  1  0  0  0  0  0  0  0  0  0
   19.1790   -4.8751   48.1429 C   0  0  2  0  0  0  0  0  0  0  0  0
   16.5883   -6.3934   49.1333 C   0  0  0  0  0  0  0  0  0  0  0  0
   24.0024   -2.7813   51.5297 N   0  0  0  0  0  0  0  0  0  0  0  0
   16.6979   -4.9426   48.7373 N   0  0  0  0  0  0  0  0  0  0  0  0
   21.4418   -1.3241   51.7812 O   0  0  0  0  0  0  0  0  0  0  0  0
   20.2209   -3.3407   51.9729 O   0  0  0  0  0  0  0  0  0  0  0  0
   20.4904   -4.1847   48.3198 O   0  0  0  0  0  0  0  0  0  0  0  0
   18.5860   -5.4396   51.0390 O   0  0  0  0  0  0  0  0  0  0  0  0
   18.8638   -4.8691   46.7984 O   0  0  0  0  0  0  0  0  0  0  0  0
   19.7739   -5.6412   45.9969 C   0  0  2  0  0  0  0  0  0  0  0  0
   19.5541   -5.3402   44.4946 C   0  0  1  0  0  0  0  0  0  0  0  0
   18.1568   -5.8291   44.0041 C   0  0  2  0  0  0  0  0  0  0  0  0
   18.0291   -7.3604   44.2570 C   0  0  1  0  0  0  0  0  0  0  0  0
   18.1839   -7.5841   45.8188 C   0  0  1  0  0  0  0  0  0  0  0  0
   18.0928   -9.0599   46.1965 C   0  0  0  0  0  0  0  0  0  0  0  0
   16.6941   -7.8302   43.7886 N   0  0  0  0  0  0  0  0  0  0  0  0
   19.5397   -7.0874   46.2460 O   0  0  0  0  0  0  0  0  0  0  0  0
   19.7226   -3.9210   44.3144 O   0  0  0  0  0  0  0  0  0  0  0  0
   18.0523   -5.5640   42.6209 O   0  0  0  0  0  0  0  0  0  0  0  0
   16.8143   -9.3336   46.7061 O   0  0  0  0  0  0  0  0  0  0  0  0
   20.4137   -0.6349   52.4622 C   0  0  1  0  0  0  0  0  0  0  0  0
   20.9377   -0.2632   53.8866 C   0  0  1  0  0  0  0  0  0  0  0  0
   19.8030    0.4697   54.6600 C   0  0  2  0  0  0  0  0  0  0  0  0
   19.3594    1.7594   53.9027 C   0  0  1  0  0  0  0  0  0  0  0  0
   18.8395    1.3953   52.4599 C   0  0  0  0  0  0  0  0  0  0  0  0
   19.9997    0.6549   51.6737 C   0  0  2  0  0  0  0  0  0  0  0  0
   18.2709    2.4387   54.6587 N   0  0  0  0  0  0  0  0  0  0  0  0
   19.5046    0.3203   50.3194 N   0  0  0  0  0  0  0  0  0  0  0  0
   21.3079   -1.4521   54.6095 O   0  0  0  0  0  0  0  0  0  0  0  0
   20.3061    0.8011   55.9438 O   0  0  0  0  0  0  0  0  0  0  0  0
  1  2  1  0  0  0  0
  1 12  1  6  0  0  0
  1 13  1  0  0  0  0
  2  3  1  0  0  0  0
  2 10  1  6  0  0  0
  4  3  1  6  0  0  0
  4  5  1  0  0  0  0
  4 14  1  0  0  0  0
  5  6  1  0  0  0  0
  5 13  1  1  0  0  0
  6  7  1  0  0  0  0
  6 15  1  6  0  0  0
  7  8  1  0  0  0  0
  7 11  1  1  0  0  0
  8 14  1  0  0  0  0
  8 16  1  6  0  0  0
  9 11  1  0  0  0  0
 17 16  1  1  0  0  0
 17 18  1  0  0  0  0
 17 24  1  0  0  0  0
 18 19  1  0  0  0  0
 18 25  1  1  0  0  0
 19 20  1  0  0  0  0
 19 26  1  6  0  0  0
 20 21  1  0  0  0  0
 20 23  1  1  0  0  0
 21 22  1  6  0  0  0
 21 24  1  0  0  0  0
 22 27  1  0  0  0  0
 28 12  1  6  0  0  0
 28 29  1  0  0  0  0
 28 33  1  0  0  0  0
 29 30  1  0  0  0  0
 29 36  1  1  0  0  0
 30 31  1  0  0  0  0
 30 37  1  1  0  0  0
 31 32  1  0  0  0  0
 31 34  1  1  0  0  0
 32 33  1  0  0  0  0
 33 35  1  6  0  0  0
M  END
>  <CHROM.1>
177.52109444,-61.75824311,-171.42851662,-167.51072381,-101.32785784,79.21924704
19.48033879,-3.62251251,49.42802229,-1.24101508,-0.90950945,-1.99533287

>  <Name>
2oe8_lig

>  <RI>
0

>  <Rbt.Current_Directory>
/home/itssahil/PROJECTS/Mol_Feturizer/New_Systems/rnas/2oe8

>  <Rbt.Executable>
rbdock ($Id: //depot/dev/client3/rdock/2013.1/src/exe/rbdock.cxx#4 $)

>  <Rbt.Library>
libRbt.so (2013.1, Build901 2013/11/27)

>  <Rbt.Parameter_File>
/export/apps/rDock/src/rDock_2013.1_src/data/scripts/dock_solv.prm

>  <Rbt.Receptor>
prm/pocket_docking_7.prm

>  <SCORE>
-17.4645

>  <SCORE.INTER>
-13.2276

>  <SCORE.INTER.CONST>
1

>  <SCORE.INTER.POLAR>
-1.40388

>  <SCORE.INTER.ROT>
6

>  <SCORE.INTER.SOLV>
14.4232

>  <SCORE.INTER.VDW>
-16.5466

>  <SCORE.INTER.norm>
-0.357504

>  <SCORE.INTRA>
-4.23683

>  <SCORE.INTRA.DIHEDRAL>
-9.41454

>  <SCORE.INTRA.DIHEDRAL.0>
16.4056

>  <SCORE.INTRA.POLAR>
0

>  <SCORE.INTRA.POLAR.0>
0

>  <SCORE.INTRA.REPUL>
0

>  <SCORE.INTRA.REPUL.0>
0

>  <SCORE.INTRA.SOLV>
-1.98699

>  <SCORE.INTRA.SOLV.lig_0>
-90.9627

>  <SCORE.INTRA.VDW>
1.46394

>  <SCORE.INTRA.VDW.0>
-3.28744

>  <SCORE.INTRA.norm>
-0.114509

>  <SCORE.RESTR>
0

>  <SCORE.RESTR.CAVITY>
0

>  <SCORE.RESTR.norm>
0

>  <SCORE.SYSTEM>
0

>  <SCORE.SYSTEM.CONST>
0

>  <SCORE.SYSTEM.DIHEDRAL>
0

>  <SCORE.SYSTEM.SOLV>
0

>  <SCORE.SYSTEM.norm>
0

>  <SCORE.heavy>
37

>  <SCORE.norm>
-0.472012

>  <RMSD>
4.889

$$$$
2oe8_lig
 OpenBabel11021811463D
libRbt.so/2013.1/901 2013/11/27
 37 40  0  0  0  0  0  0  0  0999 V2000
   20.1936   -1.0595   50.2478 C   0  0  1  0  0  0  0  0  0  0  0  0
   19.1449   -2.0213   50.9251 C   0  0  1  0  0  0  0  0  0  0  0  0
   19.5765   -3.4857   50.7020 C   0  0  0  0  0  0  0  0  0  0  0  0
   19.6209   -3.6931   49.1557 C   0  0  1  0  0  0  0  0  0  0  0  0
   20.6765   -2.6997   48.4452 C   0  0  1  0  0  0  0  0  0  0  0  0
   20.7131   -2.8870   46.9000 C   0  0  1  0  0  0  0  0  0  0  0  0
   21.0853   -4.3998   46.6173 C   0  0  1  0  0  0  0  0  0  0  0  0
   20.0601   -5.3220   47.3646 C   0  0  2  0  0  0  0  0  0  0  0  0
   22.0364   -3.9358   44.2138 C   0  0  0  0  0  0  0  0  0  0  0  0
   19.0489   -1.7430   52.3933 N   0  0  0  0  0  0  0  0  0  0  0  0
   21.1002   -4.6950   45.1199 N   0  0  0  0  0  0  0  0  0  0  0  0
   21.4973   -1.2072   50.8244 O   0  0  0  0  0  0  0  0  0  0  0  0
   20.3093   -1.3174   48.7823 O   0  0  0  0  0  0  0  0  0  0  0  0
   20.0024   -5.0635   48.8335 O   0  0  0  0  0  0  0  0  0  0  0  0
   19.4183   -2.5429   46.4043 O   0  0  0  0  0  0  0  0  0  0  0  0
   20.4195   -6.6412   47.1705 O   0  0  0  0  0  0  0  0  0  0  0  0
   19.3660   -7.5695   47.4791 C   0  0  2  0  0  0  0  0  0  0  0  0
   19.8326   -9.0203   47.2082 C   0  0  1  0  0  0  0  0  0  0  0  0
   20.0867   -9.2734   45.6905 C   0  0  2  0  0  0  0  0  0  0  0  0
   18.7796   -8.9849   44.8945 C   0  0  1  0  0  0  0  0  0  0  0  0
   18.4076   -7.4658   45.1541 C   0  0  1  0  0  0  0  0  0  0  0  0
   17.1243   -7.0607   44.4344 C   0  0  0  0  0  0  0  0  0  0  0  0
   19.0199   -9.2264   43.4431 N   0  0  0  0  0  0  0  0  0  0  0  0
   18.1840   -7.2686   46.6301 O   0  0  0  0  0  0  0  0  0  0  0  0
   21.0169   -9.2422   47.9975 O   0  0  0  0  0  0  0  0  0  0  0  0
   20.4598  -10.6248   45.5205 O   0  0  0  0  0  0  0  0  0  0  0  0
   17.3193   -7.1469   43.0475 O   0  0  0  0  0  0  0  0  0  0  0  0
   21.6797   -0.4619   52.0106 C   0  0  1  0  0  0  0  0  0  0  0  0
   22.9283   -1.0326   52.7568 C   0  0  1  0  0  0  0  0  0  0  0  0
   23.1224   -0.2404   54.0826 C   0  0  2  0  0  0  0  0  0  0  0  0
   23.3226    1.2799   53.7957 C   0  0  1  0  0  0  0  0  0  0  0  0
   22.0722    1.8621   53.0327 C   0  0  0  0  0  0  0  0  0  0  0  0
   21.8818    1.0570   51.6808 C   0  0  2  0  0  0  0  0  0  0  0  0
   23.5004    2.0158   55.0781 N   0  0  0  0  0  0  0  0  0  0  0  0
   20.7085    1.6124   50.9693 N   0  0  0  0  0  0  0  0  0  0  0  0
   22.7335   -2.4255   53.0652 O   0  0  0  0  0  0  0  0  0  0  0  0
   24.2634   -0.7727   54.7350 O   0  0  0  0  0  0  0  0  0  0  0  0
  1  2  1  0  0  0  0
  1 12  1  1  0  0  0
  1 13  1  0  0  0  0
  2  3  1  0  0  0  0
  2 10  1  1  0  0  0
  4  3  1  1  0  0  0
  4  5  1  0  0  0  0
  4 14  1  0  0  0  0
  5  6  1  0  0  0  0
  5 13  1  6  0  0  0
  6  7  1  0  0  0  0
  6 15  1  1  0  0  0
  7  8  1  0  0  0  0
  7 11  1  6  0  0  0
  8 14  1  0  0  0  0
  8 16  1  1  0  0  0
  9 11  1  0  0  0  0
 17 16  1  6  0  0  0
 17 18  1  0  0  0  0
 17 24  1  0  0  0  0
 18 19  1  0  0  0  0
 18 25  1  1  0  0  0
 19 20  1  0  0  0  0
 19 26  1  1  0  0  0
 20 21  1  0  0  0  0
 20 23  1  6  0  0  0
 21 22  1  6  0  0  0
 21 24  1  0  0  0  0
 22 27  1  0  0  0  0
 28 12  1  6  0  0  0
 28 29  1  0  0  0  0
 28 33  1  0  0  0  0
 29 30  1  0  0  0  0
 29 36  1  1  0  0  0
 30 31  1  0  0  0  0
 30 37  1  6  0  0  0
 31 32  1  0  0  0  0
 31 34  1  1  0  0  0
 32 33  1  0  0  0  0
 33 35  1  1  0  0  0
M  END
>  <CHROM.1>
-83.17758556,59.65409661,-163.41180514,178.76724325,-64.38769904,162.84318953
20.55795416,-3.90517355,48.79982710,0.92011838,-1.12827681,0.15044609

>  <Name>
2oe8_lig

>  <RI>
0

>  <Rbt.Current_Directory>
/home/itssahil/PROJECTS/Mol_Feturizer/New_Systems/rnas/2oe8

>  <Rbt.Executable>
rbdock ($Id: //depot/dev/client3/rdock/2013.1/src/exe/rbdock.cxx#4 $)

>  <Rbt.Library>
libRbt.so (2013.1, Build901 2013/11/27)

>  <Rbt.Parameter_File>
/export/apps/rDock/src/rDock_2013.1_src/data/scripts/dock_solv.prm

>  <Rbt.Receptor>
prm/blind_docking_80.prm

>  <SCORE>
-12.7065

>  <SCORE.INTER>
-8.81091

>  <SCORE.INTER.CONST>
1

>  <SCORE.INTER.POLAR>
-0.315751

>  <SCORE.INTER.ROT>
6

>  <SCORE.INTER.SOLV>
17.2754

>  <SCORE.INTER.VDW>
-18.1799

>  <SCORE.INTER.norm>
-0.238133

>  <SCORE.INTRA>
-3.92035

>  <SCORE.INTRA.DIHEDRAL>
-11.315

>  <SCORE.INTRA.DIHEDRAL.0>
16.4056

>  <SCORE.INTRA.POLAR>
0

>  <SCORE.INTRA.POLAR.0>
0

>  <SCORE.INTRA.REPUL>
0

>  <SCORE.INTRA.REPUL.0>
0

>  <SCORE.INTRA.SOLV>
1.37173

>  <SCORE.INTRA.SOLV.lig_0>
-90.9627

>  <SCORE.INTRA.VDW>
1.05126

>  <SCORE.INTRA.VDW.0>
-3.28744

>  <SCORE.INTRA.norm>
-0.105956

>  <SCORE.RESTR>
0.0247558

>  <SCORE.RESTR.CAVITY>
0.0247558

>  <SCORE.RESTR.norm>
0.000669075

>  <SCORE.SYSTEM>
0

>  <SCORE.SYSTEM.CONST>
0

>  <SCORE.SYSTEM.DIHEDRAL>
0

>  <SCORE.SYSTEM.SOLV>
0

>  <SCORE.SYSTEM.norm>
0

>  <SCORE.heavy>
37

>  <SCORE.norm>
-0.343419

>  <RMSD>
4.932

$$$$
2oe8_lig
 OpenBabel11021811463D
libRbt.so/2013.1/901 2013/11/27
 37 40  0  0  0  0  0  0  0  0999 V2000
   19.0875    0.0853   51.8794 C   0  0  1  0  0  0  0  0  0  0  0  0
   19.4549   -1.0176   52.9434 C   0  0  1  0  0  0  0  0  0  0  0  0
   20.6441   -1.8521   52.4239 C   0  0  0  0  0  0  0  0  0  0  0  0
   20.1698   -2.4934   51.0824 C   0  0  1  0  0  0  0  0  0  0  0  0
   19.7701   -1.3752   49.9888 C   0  0  1  0  0  0  0  0  0  0  0  0
   19.2775   -2.0068   48.6538 C   0  0  1  0  0  0  0  0  0  0  0  0
   20.4423   -2.9327   48.1125 C   0  0  1  0  0  0  0  0  0  0  0  0
   20.8243   -3.9694   49.2257 C   0  0  2  0  0  0  0  0  0  0  0  0
   21.0461   -3.8378   45.7224 C   0  0  0  0  0  0  0  0  0  0  0  0
   19.8170   -0.3852   54.2515 N   0  0  0  0  0  0  0  0  0  0  0  0
   20.0337   -3.6375   46.8219 N   0  0  0  0  0  0  0  0  0  0  0  0
   20.1751    0.9925   51.6598 O   0  0  0  0  0  0  0  0  0  0  0  0
   18.7232   -0.5194   50.5644 O   0  0  0  0  0  0  0  0  0  0  0  0
   21.2224   -3.3268   50.5126 O   0  0  0  0  0  0  0  0  0  0  0  0
   18.0897   -2.7430   48.9503 O   0  0  0  0  0  0  0  0  0  0  0  0
   21.8817   -4.7373   48.7792 O   0  0  0  0  0  0  0  0  0  0  0  0
   22.4148   -5.6130   49.7872 C   0  0  2  0  0  0  0  0  0  0  0  0
   23.9369   -5.8041   49.5817 C   0  0  1  0  0  0  0  0  0  0  0  0
   24.2518   -6.5647   48.2571 C   0  0  2  0  0  0  0  0  0  0  0  0
   23.5467   -7.9530   48.2806 C   0  0  1  0  0  0  0  0  0  0  0  0
   21.9910   -7.6778   48.4117 C   0  0  1  0  0  0  0  0  0  0  0  0
   21.1839   -8.9720   48.4620 C   0  0  0  0  0  0  0  0  0  0  0  0
   23.8465   -8.6823   47.0153 N   0  0  0  0  0  0  0  0  0  0  0  0
   21.7387   -6.9332   49.6960 O   0  0  0  0  0  0  0  0  0  0  0  0
   24.5389   -4.4957   49.6083 O   0  0  0  0  0  0  0  0  0  0  0  0
   25.6500   -6.7416   48.1666 O   0  0  0  0  0  0  0  0  0  0  0  0
   21.5471   -9.7050   49.6021 O   0  0  0  0  0  0  0  0  0  0  0  0
   20.4749    1.7989   52.7804 C   0  0  1  0  0  0  0  0  0  0  0  0
   22.0289    1.8674   52.9287 C   0  0  1  0  0  0  0  0  0  0  0  0
   22.3733    2.7278   54.1794 C   0  0  2  0  0  0  0  0  0  0  0  0
   21.7878    4.1671   54.0404 C   0  0  1  0  0  0  0  0  0  0  0  0
   20.2209    4.1073   53.8788 C   0  0  0  0  0  0  0  0  0  0  0  0
   19.8749    3.2358   52.6010 C   0  0  2  0  0  0  0  0  0  0  0  0
   22.1254    4.9676   55.2498 N   0  0  0  0  0  0  0  0  0  0  0  0
   18.4026    3.1880   52.4547 N   0  0  0  0  0  0  0  0  0  0  0  0
   22.5737    0.5460   53.1022 O   0  0  0  0  0  0  0  0  0  0  0  0
   23.7863    2.7793   54.2865 O   0  0  0  0  0  0  0  0  0  0  0  0
  1  2  1  0  0  0  0
  1 12  1  6  0  0  0
  1 13  1  0  0  0  0
  2  3  1  0  0  0  0
  2 10  1  1  0  0  0
  4  3  1  1  0  0  0
  4  5  1  0  0  0  0
  4 14  1  0  0  0  0
  5  6  1  0  0  0  0
  5 13  1  1  0  0  0
  6  7  1  0  0  0  0
  6 15  1  1  0  0  0
  7  8  1  0  0  0  0
  7 11  1  6  0  0  0
  8 14  1  0  0  0  0
  8 16  1  6  0  0  0
  9 11  1  0  0  0  0
 17 16  1  6  0  0  0
 17 18  1  0  0  0  0
 17 24  1  0  0  0  0
 18 19  1  0  0  0  0
 18 25  1  6  0  0  0
 19 20  1  0  0  0  0
 19 26  1  1  0  0  0
 20 21  1  0  0  0  0
 20 23  1  6  0  0  0
 21 22  1  1  0  0  0
 21 24  1  0  0  0  0
 22 27  1  0  0  0  0
 28 12  1  6  0  0  0
 28 29  1  0  0  0  0
 28 33  1  0  0  0  0
 29 30  1  0  0  0  0
 29 36  1  1  0  0  0
 30 31  1  0  0  0  0
 30 37  1  6  0  0  0
 31 32  1  0  0  0  0
 31 34  1  1  0  0  0
 32 33  1  0  0  0  0
 33 35  1  1  0  0  0
M  END
>  <CHROM.1>
-66.92386811,142.40138292,172.95962884,-147.60792803,62.61473471,137.61607320
21.34438098,-2.30755847,50.62596637,1.73826191,-0.39232758,0.55023174

>  <Name>
2oe8_lig

>  <RI>
0

>  <Rbt.Current_Directory>
/home/itssahil/PROJECTS/Mol_Feturizer/New_Systems/rnas/2oe8

>  <Rbt.Executable>
rbdock ($Id: //depot/dev/client3/rdock/2013.1/src/exe/rbdock.cxx#4 $)

>  <Rbt.Library>
libRbt.so (2013.1, Build901 2013/11/27)

>  <Rbt.Parameter_File>
/export/apps/rDock/src/rDock_2013.1_src/data/scripts/dock_solv.prm

>  <Rbt.Receptor>
prm/pocket_docking_6.prm

>  <SCORE>
-18.2736

>  <SCORE.INTER>
-16.9726

>  <SCORE.INTER.CONST>
1

>  <SCORE.INTER.POLAR>
-1.37461

>  <SCORE.INTER.ROT>
6

>  <SCORE.INTER.SOLV>
16.5027

>  <SCORE.INTER.VDW>
-19.8339

>  <SCORE.INTER.norm>
-0.458718

>  <SCORE.INTRA>
-1.301

>  <SCORE.INTRA.DIHEDRAL>
-5.18904

>  <SCORE.INTRA.DIHEDRAL.0>
16.4056

>  <SCORE.INTRA.POLAR>
0

>  <SCORE.INTRA.POLAR.0>
0

>  <SCORE.INTRA.REPUL>
0

>  <SCORE.INTRA.REPUL.0>
0

>  <SCORE.INTRA.SOLV>
1.16777

>  <SCORE.INTRA.SOLV.lig_0>
-90.9627

>  <SCORE.INTRA.VDW>
0.709631

>  <SCORE.INTRA.VDW.0>
-3.28744

>  <SCORE.INTRA.norm>
-0.0351623

>  <SCORE.RESTR>
0

>  <SCORE.RESTR.CAVITY>
0

>  <SCORE.RESTR.norm>
0

>  <SCORE.SYSTEM>
0

>  <SCORE.SYSTEM.CONST>
0

>  <SCORE.SYSTEM.DIHEDRAL>
0

>  <SCORE.SYSTEM.SOLV>
0

>  <SCORE.SYSTEM.norm>
0

>  <SCORE.heavy>
37

>  <SCORE.norm>
-0.493881

>  <RMSD>
4.987

$$$$
2oe8_lig
 OpenBabel11021811463D
libRbt.so/2013.1/901 2013/11/27
 37 40  0  0  0  0  0  0  0  0999 V2000
   22.5667    0.4452   50.4568 C   0  0  1  0  0  0  0  0  0  0  0  0
   21.1226    1.0673   50.3517 C   0  0  1  0  0  0  0  0  0  0  0  0
   20.0807   -0.0689   50.2865 C   0  0  0  0  0  0  0  0  0  0  0  0
   20.4319   -0.9059   49.0168 C   0  0  1  0  0  0  0  0  0  0  0  0
   21.9171   -1.5329   49.1010 C   0  0  1  0  0  0  0  0  0  0  0  0
   22.2826   -2.3538   47.8296 C   0  0  1  0  0  0  0  0  0  0  0  0
   21.1968   -3.4962   47.6779 C   0  0  1  0  0  0  0  0  0  0  0  0
   19.7724   -2.8406   47.6470 C   0  0  2  0  0  0  0  0  0  0  0  0
   21.5514   -5.8321   46.5314 C   0  0  0  0  0  0  0  0  0  0  0  0
   20.8403    1.9418   51.5340 N   0  0  0  0  0  0  0  0  0  0  0  0
   21.4447   -4.3317   46.4250 N   0  0  0  0  0  0  0  0  0  0  0  0
   22.7210   -0.3371   51.6477 O   0  0  0  0  0  0  0  0  0  0  0  0
   22.8731   -0.4329   49.2894 O   0  0  0  0  0  0  0  0  0  0  0  0
   19.4866   -2.0039   48.8495 O   0  0  0  0  0  0  0  0  0  0  0  0
   22.2755   -1.4458   46.7267 O   0  0  0  0  0  0  0  0  0  0  0  0
   18.8208   -3.8390   47.5775 O   0  0  0  0  0  0  0  0  0  0  0  0
   17.4892   -3.3421   47.3609 C   0  0  2  0  0  0  0  0  0  0  0  0
   16.4672   -4.5031   47.4183 C   0  0  1  0  0  0  0  0  0  0  0  0
   16.6616   -5.5050   46.2390 C   0  0  2  0  0  0  0  0  0  0  0  0
   16.5167   -4.7442   44.8879 C   0  0  1  0  0  0  0  0  0  0  0  0
   17.6417   -3.6274   44.8649 C   0  0  1  0  0  0  0  0  0  0  0  0
   17.5942   -2.7947   43.5869 C   0  0  0  0  0  0  0  0  0  0  0  0
   16.7019   -5.6999   43.7589 N   0  0  0  0  0  0  0  0  0  0  0  0
   17.4197   -2.6940   46.0254 O   0  0  0  0  0  0  0  0  0  0  0  0
   16.6193   -5.1429   48.6999 O   0  0  0  0  0  0  0  0  0  0  0  0
   15.6665   -6.5026   46.3333 O   0  0  0  0  0  0  0  0  0  0  0  0
   17.9715   -3.5919   42.4955 O   0  0  0  0  0  0  0  0  0  0  0  0
   24.0655   -0.6461   51.9521 C   0  0  1  0  0  0  0  0  0  0  0  0
   24.5695   -1.7000   50.9143 C   0  0  1  0  0  0  0  0  0  0  0  0
   26.0412   -2.0735   51.2572 C   0  0  2  0  0  0  0  0  0  0  0  0
   26.9564   -0.8107   51.2209 C   0  0  1  0  0  0  0  0  0  0  0  0
   26.4487    0.2631   52.2573 C   0  0  0  0  0  0  0  0  0  0  0  0
   24.9524    0.6452   51.9009 C   0  0  2  0  0  0  0  0  0  0  0  0
   28.3560   -1.1927   51.5572 N   0  0  0  0  0  0  0  0  0  0  0  0
   24.4851    1.6562   52.8760 N   0  0  0  0  0  0  0  0  0  0  0  0
   23.7570   -2.8873   50.9720 O   0  0  0  0  0  0  0  0  0  0  0  0
   26.4752   -3.0237   50.2982 O   0  0  0  0  0  0  0  0  0  0  0  0
  1  2  1  0  0  0  0
  1 12  1  1  0  0  0
  1 13  1  0  0  0  0
  2  3  1  0  0  0  0
  2 10  1  1  0  0  0
  4  3  1  1  0  0  0
  4  5  1  0  0  0  0
  4 14  1  0  0  0  0
  5  6  1  0  0  0  0
  5 13  1  6  0  0  0
  6  7  1  0  0  0  0
  6 15  1  6  0  0  0
  7  8  1  0  0  0  0
  7 11  1  6  0  0  0
  8 14  1  0  0  0  0
  8 16  1  1  0  0  0
  9 11  1  0  0  0  0
 17 16  1  6  0  0  0
 17 18  1  0  0  0  0
 17 24  1  0  0  0  0
 18 19  1  0  0  0  0
 18 25  1  1  0  0  0
 19 20  1  0  0  0  0
 19 26  1  6  0  0  0
 20 21  1  0  0  0  0
 20 23  1  6  0  0  0
 21 22  1  6  0  0  0
 21 24  1  0  0  0  0
 22 27  1  0  0  0  0
 28 12  1  6  0  0  0
 28 29  1  0  0  0  0
 28 33  1  0  0  0  0
 29 30  1  0  0  0  0
 29 36  1  1  0  0  0
 30 31  1  0  0  0  0
 30 37  1  6  0  0  0
 31 32  1  0  0  0  0
 31 34  1  1  0  0  0
 32 33  1  0  0  0  0
 33 35  1  1  0  0  0
M  END
>  <CHROM.1>
-165.63947891,126.62658772,-172.00885135,-175.06037433,-68.33891731,-71.66214455
21.10792845,-2.30534394,48.55701708,0.71677836,-0.22266041,0.71881962

>  <Name>
2oe8_lig

>  <RI>
0

>  <Rbt.Current_Directory>
/home/itssahil/PROJECTS/Mol_Feturizer/New_Systems/rnas/2oe8

>  <Rbt.Executable>
rbdock ($Id: //depot/dev/client3/rdock/2013.1/src/exe/rbdock.cxx#4 $)

>  <Rbt.Library>
libRbt.so (2013.1, Build901 2013/11/27)

>  <Rbt.Parameter_File>
/export/apps/rDock/src/rDock_2013.1_src/data/scripts/dock_solv.prm

>  <Rbt.Receptor>
prm/pocket_docking_7.prm

>  <SCORE>
-21.0996

>  <SCORE.INTER>
-16.2482

>  <SCORE.INTER.CONST>
1

>  <SCORE.INTER.POLAR>
0

>  <SCORE.INTER.ROT>
6

>  <SCORE.INTER.SOLV>
11.3471

>  <SCORE.INTER.VDW>
-22.2145

>  <SCORE.INTER.norm>
-0.439141

>  <SCORE.INTRA>
-4.8514

>  <SCORE.INTRA.DIHEDRAL>
-12.8812

>  <SCORE.INTRA.DIHEDRAL.0>
16.4056

>  <SCORE.INTRA.POLAR>
0

>  <SCORE.INTRA.POLAR.0>
0

>  <SCORE.INTRA.REPUL>
0

>  <SCORE.INTRA.REPUL.0>
0

>  <SCORE.INTRA.SOLV>
-0.518755

>  <SCORE.INTRA.SOLV.lig_0>
-90.9627

>  <SCORE.INTRA.VDW>
1.84859

>  <SCORE.INTRA.VDW.0>
-3.28744

>  <SCORE.INTRA.norm>
-0.131119

>  <SCORE.RESTR>
0

>  <SCORE.RESTR.CAVITY>
0

>  <SCORE.RESTR.norm>
0

>  <SCORE.SYSTEM>
0

>  <SCORE.SYSTEM.CONST>
0

>  <SCORE.SYSTEM.DIHEDRAL>
0

>  <SCORE.SYSTEM.SOLV>
0

>  <SCORE.SYSTEM.norm>
0

>  <SCORE.heavy>
37

>  <SCORE.norm>
-0.57026

>  <RMSD>
5.242

$$$$
2oe8_lig
 OpenBabel11021811463D
libRbt.so/2013.1/901 2013/11/27
 37 40  0  0  0  0  0  0  0  0999 V2000
   22.6260   -1.5362   49.0395 C   0  0  1  0  0  0  0  0  0  0  0  0
   22.8985   -1.8426   47.5178 C   0  0  1  0  0  0  0  0  0  0  0  0
   21.5608   -2.1414   46.8095 C   0  0  0  0  0  0  0  0  0  0  0  0
   20.9526   -3.3805   47.5379 C   0  0  1  0  0  0  0  0  0  0  0  0
   20.6870   -3.0884   49.1032 C   0  0  1  0  0  0  0  0  0  0  0  0
   20.0980   -4.3261   49.8415 C   0  0  1  0  0  0  0  0  0  0  0  0
   18.7520   -4.7175   49.1053 C   0  0  1  0  0  0  0  0  0  0  0  0
   19.0545   -4.9457   47.5834 C   0  0  2  0  0  0  0  0  0  0  0  0
   16.7092   -6.3469   49.3671 C   0  0  0  0  0  0  0  0  0  0  0  0
   23.5673   -0.6760   46.8590 N   0  0  0  0  0  0  0  0  0  0  0  0
   18.1195   -5.9572   49.7318 N   0  0  0  0  0  0  0  0  0  0  0  0
   21.7936   -0.3816   49.2064 O   0  0  0  0  0  0  0  0  0  0  0  0
   21.9581   -2.6844   49.7201 O   0  0  0  0  0  0  0  0  0  0  0  0
   19.6840   -3.7618   46.9276 O   0  0  0  0  0  0  0  0  0  0  0  0
   21.0783   -5.3629   49.7716 O   0  0  0  0  0  0  0  0  0  0  0  0
   17.8716   -5.2262   46.9283 O   0  0  0  0  0  0  0  0  0  0  0  0
   18.0622   -5.6690   45.5739 C   0  0  2  0  0  0  0  0  0  0  0  0
   16.7049   -6.0601   44.9411 C   0  0  1  0  0  0  0  0  0  0  0  0
   16.0822   -7.3115   45.6327 C   0  0  2  0  0  0  0  0  0  0  0  0
   17.0753   -8.5063   45.5255 C   0  0  1  0  0  0  0  0  0  0  0  0
   18.4083   -8.0653   46.2615 C   0  0  1  0  0  0  0  0  0  0  0  0
   19.4760   -9.1545   46.2112 C   0  0  0  0  0  0  0  0  0  0  0  0
   16.4822   -9.7042   46.1858 N   0  0  0  0  0  0  0  0  0  0  0  0
   18.9641   -6.8501   45.5673 O   0  0  0  0  0  0  0  0  0  0  0  0
   15.8437   -4.9090   45.0328 O   0  0  0  0  0  0  0  0  0  0  0  0
   14.8768   -7.6327   44.9709 O   0  0  0  0  0  0  0  0  0  0  0  0
   20.5850   -8.7572   46.9737 O   0  0  0  0  0  0  0  0  0  0  0  0
   21.5504   -0.0494   50.5578 C   0  0  1  0  0  0  0  0  0  0  0  0
   22.7858    0.7430   51.0941 C   0  0  1  0  0  0  0  0  0  0  0  0
   22.5448    1.0884   52.5926 C   0  0  2  0  0  0  0  0  0  0  0  0
   21.2501    1.9416   52.7635 C   0  0  1  0  0  0  0  0  0  0  0  0
   19.9995    1.1544   52.2147 C   0  0  0  0  0  0  0  0  0  0  0  0
   20.2462    0.8102   50.6874 C   0  0  2  0  0  0  0  0  0  0  0  0
   21.0387    2.2540   54.2042 N   0  0  0  0  0  0  0  0  0  0  0  0
   19.0662    0.0748   50.1793 N   0  0  0  0  0  0  0  0  0  0  0  0
   23.9793   -0.0545   50.9811 O   0  0  0  0  0  0  0  0  0  0  0  0
   23.6751    1.8116   53.0513 O   0  0  0  0  0  0  0  0  0  0  0  0
  1  2  1  0  0  0  0
  1 12  1  6  0  0  0
  1 13  1  0  0  0  0
  2  3  1  0  0  0  0
  2 10  1  6  0  0  0
  4  3  1  6  0  0  0
  4  5  1  0  0  0  0
  4 14  1  0  0  0  0
  5  6  1  0  0  0  0
  5 13  1  1  0  0  0
  6  7  1  0  0  0  0
  6 15  1  6  0  0  0
  7  8  1  0  0  0  0
  7 11  1  1  0  0  0
  8 14  1  0  0  0  0
  8 16  1  6  0  0  0
  9 11  1  0  0  0  0
 17 16  1  1  0  0  0
 17 18  1  0  0  0  0
 17 24  1  0  0  0  0
 18 19  1  0  0  0  0
 18 25  1  1  0  0  0
 19 20  1  0  0  0  0
 19 26  1  6  0  0  0
 20 21  1  0  0  0  0
 20 23  1  1  0  0  0
 21 22  1  6  0  0  0
 21 24  1  0  0  0  0
 22 27  1  0  0  0  0
 28 12  1  6  0  0  0
 28 29  1  0  0  0  0
 28 33  1  0  0  0  0
 29 30  1  0  0  0  0
 29 36  1  1  0  0  0
 30 31  1  0  0  0  0
 30 37  1  6  0  0  0
 31 32  1  0  0  0  0
 31 34  1  1  0  0  0
 32 33  1  0  0  0  0
 33 35  1  1  0  0  0
M  END
>  <CHROM.1>
-178.49180783,168.15608781,-170.26210780,175.92270297,-174.91742962,81.04701546
19.89123218,-3.52692988,48.53026495,-1.10829148,-0.23126395,-2.44477200

>  <Name>
2oe8_lig

>  <RI>
0

>  <Rbt.Current_Directory>
/home/itssahil/PROJECTS/Mol_Feturizer/New_Systems/rnas/2oe8

>  <Rbt.Executable>
rbdock ($Id: //depot/dev/client3/rdock/2013.1/src/exe/rbdock.cxx#4 $)

>  <Rbt.Library>
libRbt.so (2013.1, Build901 2013/11/27)

>  <Rbt.Parameter_File>
/export/apps/rDock/src/rDock_2013.1_src/data/scripts/dock_solv.prm

>  <Rbt.Receptor>
prm/pocket_docking_7.prm

>  <SCORE>
-17.4946

>  <SCORE.INTER>
-10.2354

>  <SCORE.INTER.CONST>
1

>  <SCORE.INTER.POLAR>
-0.859018

>  <SCORE.INTER.ROT>
6

>  <SCORE.INTER.SOLV>
19.5996

>  <SCORE.INTER.VDW>
-18.0934

>  <SCORE.INTER.norm>
-0.276631

>  <SCORE.INTRA>
-7.25922

>  <SCORE.INTRA.DIHEDRAL>
-13.6115

>  <SCORE.INTRA.DIHEDRAL.0>
16.4056

>  <SCORE.INTRA.POLAR>
0

>  <SCORE.INTRA.POLAR.0>
0

>  <SCORE.INTRA.REPUL>
0

>  <SCORE.INTRA.REPUL.0>
0

>  <SCORE.INTRA.SOLV>
-2.4385

>  <SCORE.INTRA.SOLV.lig_0>
-90.9627

>  <SCORE.INTRA.VDW>
0.765769

>  <SCORE.INTRA.VDW.0>
-3.28744

>  <SCORE.INTRA.norm>
-0.196195

>  <SCORE.RESTR>
0

>  <SCORE.RESTR.CAVITY>
0

>  <SCORE.RESTR.norm>
0

>  <SCORE.SYSTEM>
0

>  <SCORE.SYSTEM.CONST>
0

>  <SCORE.SYSTEM.DIHEDRAL>
0

>  <SCORE.SYSTEM.SOLV>
0

>  <SCORE.SYSTEM.norm>
0

>  <SCORE.heavy>
37

>  <SCORE.norm>
-0.472826

>  <RMSD>
5.378

$$$$
2oe8_lig
 OpenBabel11021811463D
libRbt.so/2013.1/901 2013/11/27
 37 40  0  0  0  0  0  0  0  0999 V2000
   22.8297   -3.5055   51.4967 C   0  0  1  0  0  0  0  0  0  0  0  0
   23.5738   -4.6055   50.6482 C   0  0  1  0  0  0  0  0  0  0  0  0
   22.9764   -4.6441   49.2261 C   0  0  0  0  0  0  0  0  0  0  0  0
   21.4642   -4.9887   49.4010 C   0  0  1  0  0  0  0  0  0  0  0  0
   20.6928   -3.8808   50.2861 C   0  0  1  0  0  0  0  0  0  0  0  0
   19.1875   -4.2272   50.4815 C   0  0  1  0  0  0  0  0  0  0  0  0
   18.5408   -4.3474   49.0412 C   0  0  1  0  0  0  0  0  0  0  0  0
   19.3520   -5.3996   48.2077 C   0  0  2  0  0  0  0  0  0  0  0  0
   16.6767   -6.1815   49.2817 C   0  0  0  0  0  0  0  0  0  0  0  0
   25.0390   -4.3067   50.5706 N   0  0  0  0  0  0  0  0  0  0  0  0
   17.0666   -4.7330   49.1275 N   0  0  0  0  0  0  0  0  0  0  0  0
   22.9977   -2.1985   50.9333 O   0  0  0  0  0  0  0  0  0  0  0  0
   21.3655   -3.7797   51.5887 O   0  0  0  0  0  0  0  0  0  0  0  0
   20.8040   -5.0702   48.1031 O   0  0  0  0  0  0  0  0  0  0  0  0
   19.1298   -5.4554   51.2086 O   0  0  0  0  0  0  0  0  0  0  0  0
   18.8282   -5.4606   46.9314 O   0  0  0  0  0  0  0  0  0  0  0  0
   19.8205   -5.7039   45.9199 C   0  0  2  0  0  0  0  0  0  0  0  0
   20.2355   -4.3746   45.2444 C   0  0  1  0  0  0  0  0  0  0  0  0
   19.0606   -3.7441   44.4355 C   0  0  2  0  0  0  0  0  0  0  0  0
   18.5797   -4.7554   43.3533 C   0  0  1  0  0  0  0  0  0  0  0  0
   18.0968   -6.0562   44.1201 C   0  0  1  0  0  0  0  0  0  0  0  0
   17.6121   -7.1387   43.1598 C   0  0  0  0  0  0  0  0  0  0  0  0
   17.4565   -4.1548   42.5784 N   0  0  0  0  0  0  0  0  0  0  0  0
   19.2589   -6.6204   44.8937 O   0  0  0  0  0  0  0  0  0  0  0  0
   20.7067   -3.4962   46.2842 O   0  0  0  0  0  0  0  0  0  0  0  0
   19.5298   -2.5667   43.8128 O   0  0  0  0  0  0  0  0  0  0  0  0
   16.4380   -6.7075   42.5238 O   0  0  0  0  0  0  0  0  0  0  0  0
   22.4052   -1.1707   51.7004 C   0  0  1  0  0  0  0  0  0  0  0  0
   23.2100   -1.0321   53.0326 C   0  0  1  0  0  0  0  0  0  0  0  0
   22.5484    0.0765   53.9022 C   0  0  2  0  0  0  0  0  0  0  0  0
   22.5337    1.4402   53.1448 C   0  0  1  0  0  0  0  0  0  0  0  0
   21.7331    1.3071   51.7934 C   0  0  0  0  0  0  0  0  0  0  0  0
   22.4137    0.1819   50.9085 C   0  0  2  0  0  0  0  0  0  0  0  0
   21.8918    2.4816   53.9939 N   0  0  0  0  0  0  0  0  0  0  0  0
   21.6584    0.0662   49.6407 N   0  0  0  0  0  0  0  0  0  0  0  0
   23.1913   -2.2746   53.7600 O   0  0  0  0  0  0  0  0  0  0  0  0
   23.3007    0.1863   55.0992 O   0  0  0  0  0  0  0  0  0  0  0  0
  1  2  1  0  0  0  0
  1 12  1  6  0  0  0
  1 13  1  0  0  0  0
  2  3  1  0  0  0  0
  2 10  1  6  0  0  0
  4  3  1  6  0  0  0
  4  5  1  0  0  0  0
  4 14  1  0  0  0  0
  5  6  1  0  0  0  0
  5 13  1  1  0  0  0
  6  7  1  0  0  0  0
  6 15  1  6  0  0  0
  7  8  1  0  0  0  0
  7 11  1  1  0  0  0
  8 14  1  0  0  0  0
  8 16  1  6  0  0  0
  9 11  1  0  0  0  0
 17 16  1  1  0  0  0
 17 18  1  0  0  0  0
 17 24  1  0  0  0  0
 18 19  1  0  0  0  0
 18 25  1  1  0  0  0
 19 20  1  0  0  0  0
 19 26  1  6  0  0  0
 20 21  1  0  0  0  0
 20 23  1  1  0  0  0
 21 22  1  6  0  0  0
 21 24  1  0  0  0  0
 22 27  1  0  0  0  0
 28 12  1  6  0  0  0
 28 29  1  0  0  0  0
 28 33  1  0  0  0  0
 29 30  1  0  0  0  0
 29 36  1  1  0  0  0
 30 31  1  0  0  0  0
 30 37  1  1  0  0  0
 31 32  1  0  0  0  0
 31 34  1  1  0  0  0
 32 33  1  0  0  0  0
 33 35  1  6  0  0  0
M  END
>  <CHROM.1>
-176.88246669,-83.25197413,145.51181828,-98.44245636,-67.03439930,68.52577339
20.58032277,-3.45943438,48.89687169,0.08833477,1.13854193,2.51438145

>  <Name>
2oe8_lig

>  <RI>
0

>  <Rbt.Current_Directory>
/home/itssahil/PROJECTS/Mol_Feturizer/New_Systems/rnas/2oe8

>  <Rbt.Executable>
rbdock ($Id: //depot/dev/client3/rdock/2013.1/src/exe/rbdock.cxx#4 $)

>  <Rbt.Library>
libRbt.so (2013.1, Build901 2013/11/27)

>  <Rbt.Parameter_File>
/export/apps/rDock/src/rDock_2013.1_src/data/scripts/dock_solv.prm

>  <Rbt.Receptor>
prm/blind_docking_80.prm

>  <SCORE>
-15.312

>  <SCORE.INTER>
-17.7274

>  <SCORE.INTER.CONST>
1

>  <SCORE.INTER.POLAR>
-1.9798

>  <SCORE.INTER.ROT>
6

>  <SCORE.INTER.SOLV>
10.9947

>  <SCORE.INTER.VDW>
-16.4839

>  <SCORE.INTER.norm>
-0.479119

>  <SCORE.INTRA>
2.40713

>  <SCORE.INTRA.DIHEDRAL>
-5.83041

>  <SCORE.INTRA.DIHEDRAL.0>
16.4056

>  <SCORE.INTRA.POLAR>
0

>  <SCORE.INTRA.POLAR.0>
0

>  <SCORE.INTRA.REPUL>
0

>  <SCORE.INTRA.REPUL.0>
0

>  <SCORE.INTRA.SOLV>
-1.29705

>  <SCORE.INTRA.SOLV.lig_0>
-90.9627

>  <SCORE.INTRA.VDW>
5.97086

>  <SCORE.INTRA.VDW.0>
-3.28744

>  <SCORE.INTRA.norm>
0.0650574

>  <SCORE.RESTR>
0.00824563

>  <SCORE.RESTR.CAVITY>
0.00824563

>  <SCORE.RESTR.norm>
0.000222855

>  <SCORE.SYSTEM>
0

>  <SCORE.SYSTEM.CONST>
0

>  <SCORE.SYSTEM.DIHEDRAL>
0

>  <SCORE.SYSTEM.SOLV>
0

>  <SCORE.SYSTEM.norm>
0

>  <SCORE.heavy>
37

>  <SCORE.norm>
-0.413839

>  <RMSD>
5.380

$$$$
2oe8_lig
 OpenBabel11021811463D
libRbt.so/2013.1/901 2013/11/27
 37 40  0  0  0  0  0  0  0  0999 V2000
   19.8257   -3.5215   51.6650 C   0  0  1  0  0  0  0  0  0  0  0  0
   21.1206   -3.5331   50.7669 C   0  0  1  0  0  0  0  0  0  0  0  0
   20.7526   -3.0931   49.3346 C   0  0  0  0  0  0  0  0  0  0  0  0
   19.6977   -4.1232   48.8228 C   0  0  1  0  0  0  0  0  0  0  0  0
   18.3732   -4.1374   49.7456 C   0  0  1  0  0  0  0  0  0  0  0  0
   17.3234   -5.1762   49.2529 C   0  0  1  0  0  0  0  0  0  0  0  0
   16.9628   -4.8081   47.7558 C   0  0  1  0  0  0  0  0  0  0  0  0
   18.2845   -4.7624   46.9127 C   0  0  2  0  0  0  0  0  0  0  0  0
   14.8912   -5.3236   46.2263 C   0  0  0  0  0  0  0  0  0  0  0  0
   22.1564   -2.6082   51.3271 N   0  0  0  0  0  0  0  0  0  0  0  0
   15.9684   -5.8043   47.1657 N   0  0  0  0  0  0  0  0  0  0  0  0
   19.2588   -2.2086   51.7600 O   0  0  0  0  0  0  0  0  0  0  0  0
   18.7757   -4.4357   51.1271 O   0  0  0  0  0  0  0  0  0  0  0  0
   19.2939   -3.8074   47.4574 O   0  0  0  0  0  0  0  0  0  0  0  0
   17.9244   -6.4672   49.3667 O   0  0  0  0  0  0  0  0  0  0  0  0
   17.9793   -4.3808   45.6211 O   0  0  0  0  0  0  0  0  0  0  0  0
   19.0795   -4.5314   44.7080 C   0  0  2  0  0  0  0  0  0  0  0  0
   18.9655   -3.5039   43.5560 C   0  0  1  0  0  0  0  0  0  0  0  0
   17.7237   -3.7801   42.6540 C   0  0  2  0  0  0  0  0  0  0  0  0
   17.8239   -5.2188   42.0665 C   0  0  1  0  0  0  0  0  0  0  0  0
   17.8554   -6.2181   43.2968 C   0  0  1  0  0  0  0  0  0  0  0  0
   17.9698   -7.6725   42.8490 C   0  0  0  0  0  0  0  0  0  0  0  0
   16.6378   -5.4852   41.2035 N   0  0  0  0  0  0  0  0  0  0  0  0
   19.0616   -5.9055   44.1423 O   0  0  0  0  0  0  0  0  0  0  0  0
   18.9165   -2.1948   44.1549 O   0  0  0  0  0  0  0  0  0  0  0  0
   17.7168   -2.8358   41.6040 O   0  0  0  0  0  0  0  0  0  0  0  0
   18.0247   -8.5056   43.9767 O   0  0  0  0  0  0  0  0  0  0  0  0
   20.2139   -1.1953   51.9982 C   0  0  1  0  0  0  0  0  0  0  0  0
   19.5515    0.1830   51.6771 C   0  0  1  0  0  0  0  0  0  0  0  0
   20.6034    1.3074   51.9053 C   0  0  2  0  0  0  0  0  0  0  0  0
   21.1182    1.2944   53.3779 C   0  0  1  0  0  0  0  0  0  0  0  0
   21.7784   -0.0969   53.7145 C   0  0  0  0  0  0  0  0  0  0  0  0
   20.7023   -1.2381   53.4870 C   0  0  2  0  0  0  0  0  0  0  0  0
   22.1259    2.3740   53.5692 N   0  0  0  0  0  0  0  0  0  0  0  0
   21.3291   -2.5400   53.8088 N   0  0  0  0  0  0  0  0  0  0  0  0
   19.1130    0.2201   50.3062 O   0  0  0  0  0  0  0  0  0  0  0  0
   19.9756    2.5451   51.6142 O   0  0  0  0  0  0  0  0  0  0  0  0
  1  2  1  0  0  0  0
  1 12  1  6  0  0  0
  1 13  1  0  0  0  0
  2  3  1  0  0  0  0
  2 10  1  1  0  0  0
  4  3  1  1  0  0  0
  4  5  1  0  0  0  0
  4 14  1  0  0  0  0
  5  6  1  0  0  0  0
  5 13  1  1  0  0  0
  6  7  1  0  0  0  0
  6 15  1  6  0  0  0
  7  8  1  0  0  0  0
  7 11  1  6  0  0  0
  8 14  1  0  0  0  0
  8 16  1  6  0  0  0
  9 11  1  0  0  0  0
 17 16  1  1  0  0  0
 17 18  1  0  0  0  0
 17 24  1  0  0  0  0
 18 19  1  0  0  0  0
 18 25  1  1  0  0  0
 19 20  1  0  0  0  0
 19 26  1  6  0  0  0
 20 21  1  0  0  0  0
 20 23  1  6  0  0  0
 21 22  1  6  0  0  0
 21 24  1  0  0  0  0
 22 27  1  0  0  0  0
 28 12  1  1  0  0  0
 28 29  1  0  0  0  0
 28 33  1  0  0  0  0
 29 30  1  0  0  0  0
 29 36  1  6  0  0  0
 30 31  1  0  0  0  0
 30 37  1  1  0  0  0
 31 32  1  0  0  0  0
 31 34  1  6  0  0  0
 32 33  1  0  0  0  0
 33 35  1  6  0  0  0
M  END
>  <CHROM.1>
-44.97275598,142.99412358,-169.77570233,-151.72677994,178.62797662,164.09469517
19.02672371,-3.29194446,48.16914771,0.47276235,1.24622120,2.12383924

>  <Name>
2oe8_lig

>  <RI>
0

>  <Rbt.Current_Directory>
/home/itssahil/PROJECTS/Mol_Feturizer/New_Systems/rnas/2oe8

>  <Rbt.Executable>
rbdock ($Id: //depot/dev/client3/rdock/2013.1/src/exe/rbdock.cxx#4 $)

>  <Rbt.Library>
libRbt.so (2013.1, Build901 2013/11/27)

>  <Rbt.Parameter_File>
/export/apps/rDock/src/rDock_2013.1_src/data/scripts/dock_solv.prm

>  <Rbt.Receptor>
prm/pocket_docking_8.prm

>  <SCORE>
-20.1426

>  <SCORE.INTER>
-20.8871

>  <SCORE.INTER.CONST>
1

>  <SCORE.INTER.POLAR>
-2.42685

>  <SCORE.INTER.ROT>
6

>  <SCORE.INTER.SOLV>
13.0218

>  <SCORE.INTER.VDW>
-17.7758

>  <SCORE.INTER.norm>
-0.564517

>  <SCORE.INTRA>
0.744485

>  <SCORE.INTRA.DIHEDRAL>
-9.51203

>  <SCORE.INTRA.DIHEDRAL.0>
16.4056

>  <SCORE.INTRA.POLAR>
0

>  <SCORE.INTRA.POLAR.0>
0

>  <SCORE.INTRA.REPUL>
0

>  <SCORE.INTRA.REPUL.0>
0

>  <SCORE.INTRA.SOLV>
3.4678

>  <SCORE.INTRA.SOLV.lig_0>
-90.9627

>  <SCORE.INTRA.VDW>
3.7666

>  <SCORE.INTRA.VDW.0>
-3.28744

>  <SCORE.INTRA.norm>
0.0201212

>  <SCORE.RESTR>
0

>  <SCORE.RESTR.CAVITY>
0

>  <SCORE.RESTR.norm>
0

>  <SCORE.SYSTEM>
0

>  <SCORE.SYSTEM.CONST>
0

>  <SCORE.SYSTEM.DIHEDRAL>
0

>  <SCORE.SYSTEM.SOLV>
0

>  <SCORE.SYSTEM.norm>
0

>  <SCORE.heavy>
37

>  <SCORE.norm>
-0.544396

>  <RMSD>
5.432

$$$$
2oe8_lig
 OpenBabel11021811463D
libRbt.so/2013.1/901 2013/11/27
 37 40  0  0  0  0  0  0  0  0999 V2000
   18.1689    3.9005   56.7874 C   0  0  1  0  0  0  0  0  0  0  0  0
   17.7538    4.3404   55.3322 C   0  0  1  0  0  0  0  0  0  0  0  0
   17.4843    3.0851   54.4766 C   0  0  0  0  0  0  0  0  0  0  0  0
   18.8179    2.2742   54.4657 C   0  0  1  0  0  0  0  0  0  0  0  0
   19.2670    1.8340   55.9525 C   0  0  1  0  0  0  0  0  0  0  0  0
   20.6067    1.0409   55.9523 C   0  0  1  0  0  0  0  0  0  0  0  0
   20.4033   -0.2276   55.0268 C   0  0  1  0  0  0  0  0  0  0  0  0
   19.9245    0.2493   53.6115 C   0  0  2  0  0  0  0  0  0  0  0  0
   22.4688   -1.3764   56.1715 C   0  0  0  0  0  0  0  0  0  0  0  0
   16.5250    5.1953   55.3725 N   0  0  0  0  0  0  0  0  0  0  0  0
   21.6855   -1.0492   54.9253 N   0  0  0  0  0  0  0  0  0  0  0  0
   17.1244    3.1644   57.4363 O   0  0  0  0  0  0  0  0  0  0  0  0
   19.3921    3.0453   56.7750 O   0  0  0  0  0  0  0  0  0  0  0  0
   18.6765    1.0666   53.6601 O   0  0  0  0  0  0  0  0  0  0  0  0
   21.6161    1.9213   55.4556 O   0  0  0  0  0  0  0  0  0  0  0  0
   19.6867   -0.8584   52.8219 O   0  0  0  0  0  0  0  0  0  0  0  0
   19.0042   -0.5474   51.5954 C   0  0  2  0  0  0  0  0  0  0  0  0
   19.1020   -1.7370   50.6101 C   0  0  1  0  0  0  0  0  0  0  0  0
   20.5690   -1.9812   50.1404 C   0  0  2  0  0  0  0  0  0  0  0  0
   21.1135   -0.6902   49.4607 C   0  0  1  0  0  0  0  0  0  0  0  0
   21.0585    0.4618   50.5484 C   0  0  1  0  0  0  0  0  0  0  0  0
   21.5555    1.7943   49.9951 C   0  0  0  0  0  0  0  0  0  0  0  0
   22.5159   -0.9212   49.0105 N   0  0  0  0  0  0  0  0  0  0  0  0
   19.6280    0.6521   50.9785 O   0  0  0  0  0  0  0  0  0  0  0  0
   18.5502   -2.8891   51.2756 O   0  0  0  0  0  0  0  0  0  0  0  0
   20.5681   -3.0449   49.2115 O   0  0  0  0  0  0  0  0  0  0  0  0
   22.9557    1.7699   49.9054 O   0  0  0  0  0  0  0  0  0  0  0  0
   17.4083    2.8463   58.7832 C   0  0  1  0  0  0  0  0  0  0  0  0
   17.1142    4.1100   59.6540 C   0  0  1  0  0  0  0  0  0  0  0  0
   17.4530    3.7833   61.1377 C   0  0  2  0  0  0  0  0  0  0  0  0
   16.6055    2.5767   61.6472 C   0  0  1  0  0  0  0  0  0  0  0  0
   16.8873    1.2997   60.7672 C   0  0  0  0  0  0  0  0  0  0  0  0
   16.5352    1.6345   59.2585 C   0  0  2  0  0  0  0  0  0  0  0  0
   16.9513    2.2807   63.0651 N   0  0  0  0  0  0  0  0  0  0  0  0
   16.7989    0.4294   58.4403 N   0  0  0  0  0  0  0  0  0  0  0  0
   17.9253    5.2172   59.2189 O   0  0  0  0  0  0  0  0  0  0  0  0
   17.1712    4.9419   61.9053 O   0  0  0  0  0  0  0  0  0  0  0  0
  1  2  1  0  0  0  0
  1 12  1  6  0  0  0
  1 13  1  0  0  0  0
  2  3  1  0  0  0  0
  2 10  1  1  0  0  0
  4  3  1  1  0  0  0
  4  5  1  0  0  0  0
  4 14  1  0  0  0  0
  5  6  1  0  0  0  0
  5 13  1  1  0  0  0
  6  7  1  0  0  0  0
  6 15  1  6  0  0  0
  7  8  1  0  0  0  0
  7 11  1  6  0  0  0
  8 14  1  0  0  0  0
  8 16  1  6  0  0  0
  9 11  1  0  0  0  0
 17 16  1  1  0  0  0
 17 18  1  0  0  0  0
 17 24  1  0  0  0  0
 18 19  1  0  0  0  0
 18 25  1  1  0  0  0
 19 20  1  0  0  0  0
 19 26  1  6  0  0  0
 20 21  1  0  0  0  0
 20 23  1  1  0  0  0
 21 22  1  6  0  0  0
 21 24  1  0  0  0  0
 22 27  1  0  0  0  0
 28 12  1  6  0  0  0
 28 29  1  0  0  0  0
 28 33  1  0  0  0  0
 29 30  1  0  0  0  0
 29 36  1  6  0  0  0
 30 31  1  0  0  0  0
 30 37  1  1  0  0  0
 31 32  1  0  0  0  0
 31 34  1  1  0  0  0
 32 33  1  0  0  0  0
 33 35  1  6  0  0  0
M  END
>  <CHROM.1>
-174.96637807,46.48298363,168.81481778,165.09863935,-75.70824390,80.03004948
19.13577909,1.33398250,55.12455245,2.97414176,-1.23207270,2.55674636

>  <Name>
2oe8_lig

>  <RI>
0

>  <Rbt.Current_Directory>
/home/itssahil/PROJECTS/Mol_Feturizer/New_Systems/rnas/2oe8

>  <Rbt.Executable>
rbdock ($Id: //depot/dev/client3/rdock/2013.1/src/exe/rbdock.cxx#4 $)

>  <Rbt.Library>
libRbt.so (2013.1, Build901 2013/11/27)

>  <Rbt.Parameter_File>
/export/apps/rDock/src/rDock_2013.1_src/data/scripts/dock_solv.prm

>  <Rbt.Receptor>
prm/pocket_docking_8.prm

>  <SCORE>
-22.2066

>  <SCORE.INTER>
-18.0322

>  <SCORE.INTER.CONST>
1

>  <SCORE.INTER.POLAR>
-2.03496

>  <SCORE.INTER.ROT>
6

>  <SCORE.INTER.SOLV>
20.4348

>  <SCORE.INTER.VDW>
-19.6499

>  <SCORE.INTER.norm>
-0.487356

>  <SCORE.INTRA>
-4.17444

>  <SCORE.INTRA.DIHEDRAL>
-11.7811

>  <SCORE.INTRA.DIHEDRAL.0>
16.4056

>  <SCORE.INTRA.POLAR>
0

>  <SCORE.INTRA.POLAR.0>
0

>  <SCORE.INTRA.REPUL>
0

>  <SCORE.INTRA.REPUL.0>
0

>  <SCORE.INTRA.SOLV>
-1.69062

>  <SCORE.INTRA.SOLV.lig_0>
-90.9627

>  <SCORE.INTRA.VDW>
2.56141

>  <SCORE.INTRA.VDW.0>
-3.28744

>  <SCORE.INTRA.norm>
-0.112823

>  <SCORE.RESTR>
0

>  <SCORE.RESTR.CAVITY>
0

>  <SCORE.RESTR.norm>
0

>  <SCORE.SYSTEM>
0

>  <SCORE.SYSTEM.CONST>
0

>  <SCORE.SYSTEM.DIHEDRAL>
0

>  <SCORE.SYSTEM.SOLV>
0

>  <SCORE.SYSTEM.norm>
0

>  <SCORE.heavy>
37

>  <SCORE.norm>
-0.600179

>  <RMSD>
5.436

$$$$
2oe8_lig
 OpenBabel11021811463D
libRbt.so/2013.1/901 2013/11/27
 37 40  0  0  0  0  0  0  0  0999 V2000
   21.7138   -2.3224   49.2221 C   0  0  1  0  0  0  0  0  0  0  0  0
   22.2850   -2.2820   47.7539 C   0  0  1  0  0  0  0  0  0  0  0  0
   21.1144   -2.3145   46.7494 C   0  0  0  0  0  0  0  0  0  0  0  0
   20.3460   -3.6452   47.0230 C   0  0  1  0  0  0  0  0  0  0  0  0
   19.7723   -3.7101   48.5305 C   0  0  1  0  0  0  0  0  0  0  0  0
   19.0207   -5.0430   48.8176 C   0  0  1  0  0  0  0  0  0  0  0  0
   17.8458   -5.1582   47.7625 C   0  0  1  0  0  0  0  0  0  0  0  0
   18.4481   -5.0439   46.3189 C   0  0  2  0  0  0  0  0  0  0  0  0
   16.2421   -6.6874   49.1718 C   0  0  0  0  0  0  0  0  0  0  0  0
   23.0971   -1.0421   47.5405 N   0  0  0  0  0  0  0  0  0  0  0  0
   17.0744   -6.4639   47.9344 N   0  0  0  0  0  0  0  0  0  0  0  0
   20.8878   -1.1848   49.5005 O   0  0  0  0  0  0  0  0  0  0  0  0
   20.8985   -3.5496   49.4608 O   0  0  0  0  0  0  0  0  0  0  0  0
   19.2214   -3.7853   46.1049 O   0  0  0  0  0  0  0  0  0  0  0  0
   19.9740   -6.0991   48.6887 O   0  0  0  0  0  0  0  0  0  0  0  0
   17.4185   -5.0817   45.3993 O   0  0  0  0  0  0  0  0  0  0  0  0
   17.8727   -5.0685   44.0353 C   0  0  2  0  0  0  0  0  0  0  0  0
   16.6727   -4.9048   43.0716 C   0  0  1  0  0  0  0  0  0  0  0  0
   15.7247   -6.1425   43.1113 C   0  0  2  0  0  0  0  0  0  0  0  0
   16.5306   -7.4206   42.7341 C   0  0  1  0  0  0  0  0  0  0  0  0
   17.6890   -7.5681   43.8063 C   0  0  1  0  0  0  0  0  0  0  0  0
   18.5676   -8.7860   43.5344 C   0  0  0  0  0  0  0  0  0  0  0  0
   15.6263   -8.6053   42.7711 N   0  0  0  0  0  0  0  0  0  0  0  0
   18.5684   -6.3477   43.7385 O   0  0  0  0  0  0  0  0  0  0  0  0
   15.9907   -3.6911   43.4413 O   0  0  0  0  0  0  0  0  0  0  0  0
   14.6874   -5.9394   42.1747 O   0  0  0  0  0  0  0  0  0  0  0  0
   17.8292   -9.9562   43.7675 O   0  0  0  0  0  0  0  0  0  0  0  0
   20.8130   -0.8617   50.8738 C   0  0  1  0  0  0  0  0  0  0  0  0
   21.4799    0.5360   51.0819 C   0  0  1  0  0  0  0  0  0  0  0  0
   21.4327    0.8907   52.5968 C   0  0  2  0  0  0  0  0  0  0  0  0
   19.9610    0.9208   53.1135 C   0  0  1  0  0  0  0  0  0  0  0  0
   19.2764   -0.4825   52.8973 C   0  0  0  0  0  0  0  0  0  0  0  0
   19.3209   -0.8370   51.3531 C   0  0  2  0  0  0  0  0  0  0  0  0
   19.9429    1.2564   54.5642 N   0  0  0  0  0  0  0  0  0  0  0  0
   18.6729   -2.1537   51.1586 N   0  0  0  0  0  0  0  0  0  0  0  0
   22.8526    0.5050   50.6484 O   0  0  0  0  0  0  0  0  0  0  0  0
   22.0365    2.1638   52.7563 O   0  0  0  0  0  0  0  0  0  0  0  0
  1  2  1  0  0  0  0
  1 12  1  6  0  0  0
  1 13  1  0  0  0  0
  2  3  1  0  0  0  0
  2 10  1  1  0  0  0
  4  3  1  6  0  0  0
  4  5  1  0  0  0  0
  4 14  1  0  0  0  0
  5  6  1  0  0  0  0
  5 13  1  1  0  0  0
  6  7  1  0  0  0  0
  6 15  1  6  0  0  0
  7  8  1  0  0  0  0
  7 11  1  6  0  0  0
  8 14  1  0  0  0  0
  8 16  1  6  0  0  0
  9 11  1  0  0  0  0
 17 16  1  1  0  0  0
 17 18  1  0  0  0  0
 17 24  1  0  0  0  0
 18 19  1  0  0  0  0
 18 25  1  1  0  0  0
 19 20  1  0  0  0  0
 19 26  1  6  0  0  0
 20 21  1  0  0  0  0
 20 23  1  1  0  0  0
 21 22  1  6  0  0  0
 21 24  1  0  0  0  0
 22 27  1  0  0  0  0
 28 12  1  6  0  0  0
 28 29  1  0  0  0  0
 28 33  1  0  0  0  0
 29 30  1  0  0  0  0
 29 36  1  1  0  0  0
 30 31  1  0  0  0  0
 30 37  1  6  0  0  0
 31 32  1  0  0  0  0
 31 34  1  1  0  0  0
 32 33  1  0  0  0  0
 33 35  1  1  0  0  0
M  END
>  <CHROM.1>
-154.87986149,67.67807934,-176.29000351,-171.78921741,-68.58929368,114.79764251
19.09682045,-3.69779765,47.62287278,-1.08045422,-0.68717136,-1.96712912

>  <Name>
2oe8_lig

>  <RI>
0

>  <Rbt.Current_Directory>
/home/itssahil/PROJECTS/Mol_Feturizer/New_Systems/rnas/2oe8

>  <Rbt.Executable>
rbdock ($Id: //depot/dev/client3/rdock/2013.1/src/exe/rbdock.cxx#4 $)

>  <Rbt.Library>
libRbt.so (2013.1, Build901 2013/11/27)

>  <Rbt.Parameter_File>
/export/apps/rDock/src/rDock_2013.1_src/data/scripts/dock_solv.prm

>  <Rbt.Receptor>
prm/pocket_docking_8.prm

>  <SCORE>
-11.5138

>  <SCORE.INTER>
-8.88475

>  <SCORE.INTER.CONST>
1

>  <SCORE.INTER.POLAR>
-0.573879

>  <SCORE.INTER.ROT>
6

>  <SCORE.INTER.SOLV>
15.5801

>  <SCORE.INTER.VDW>
-16.8036

>  <SCORE.INTER.norm>
-0.240128

>  <SCORE.INTRA>
-2.62901

>  <SCORE.INTRA.DIHEDRAL>
-5.89918

>  <SCORE.INTRA.DIHEDRAL.0>
16.4056

>  <SCORE.INTRA.POLAR>
0

>  <SCORE.INTRA.POLAR.0>
0

>  <SCORE.INTRA.REPUL>
0

>  <SCORE.INTRA.REPUL.0>
0

>  <SCORE.INTRA.SOLV>
0.492671

>  <SCORE.INTRA.SOLV.lig_0>
-90.9627

>  <SCORE.INTRA.VDW>
0.0742479

>  <SCORE.INTRA.VDW.0>
-3.28744

>  <SCORE.INTRA.norm>
-0.0710543

>  <SCORE.RESTR>
0

>  <SCORE.RESTR.CAVITY>
0

>  <SCORE.RESTR.norm>
0

>  <SCORE.SYSTEM>
0

>  <SCORE.SYSTEM.CONST>
0

>  <SCORE.SYSTEM.DIHEDRAL>
0

>  <SCORE.SYSTEM.SOLV>
0

>  <SCORE.SYSTEM.norm>
0

>  <SCORE.heavy>
37

>  <SCORE.norm>
-0.311183

>  <RMSD>
5.683

$$$$
2oe8_lig
 OpenBabel11021811463D
libRbt.so/2013.1/901 2013/11/27
 37 40  0  0  0  0  0  0  0  0999 V2000
   20.9089   -2.0850   49.7267 C   0  0  1  0  0  0  0  0  0  0  0  0
   22.0394   -2.3984   48.6744 C   0  0  1  0  0  0  0  0  0  0  0  0
   21.5093   -2.1106   47.2543 C   0  0  0  0  0  0  0  0  0  0  0  0
   20.2745   -3.0443   47.0558 C   0  0  1  0  0  0  0  0  0  0  0  0
   19.1157   -2.7487   48.1402 C   0  0  1  0  0  0  0  0  0  0  0  0
   17.8879   -3.6891   47.9610 C   0  0  1  0  0  0  0  0  0  0  0  0
   17.3465   -3.4816   46.4876 C   0  0  1  0  0  0  0  0  0  0  0  0
   18.5185   -3.7351   45.4767 C   0  0  2  0  0  0  0  0  0  0  0  0
   15.2652   -4.1224   45.0199 C   0  0  0  0  0  0  0  0  0  0  0  0
   23.2506   -1.5587   48.9393 N   0  0  0  0  0  0  0  0  0  0  0  0
   16.1630   -4.4011   46.1989 N   0  0  0  0  0  0  0  0  0  0  0  0
   20.5217   -0.7055   49.6929 O   0  0  0  0  0  0  0  0  0  0  0  0
   19.6885   -2.9092   49.4839 O   0  0  0  0  0  0  0  0  0  0  0  0
   19.7049   -2.8643   45.7252 O   0  0  0  0  0  0  0  0  0  0  0  0
   18.3434   -5.0234   48.1910 O   0  0  0  0  0  0  0  0  0  0  0  0
   18.0648   -3.4942   44.1948 O   0  0  0  0  0  0  0  0  0  0  0  0
   18.9946   -3.8999   43.1762 C   0  0  2  0  0  0  0  0  0  0  0  0
   18.5486   -3.3593   41.7962 C   0  0  1  0  0  0  0  0  0  0  0  0
   17.2106   -4.0073   41.3249 C   0  0  2  0  0  0  0  0  0  0  0  0
   17.3849   -5.5531   41.2519 C   0  0  1  0  0  0  0  0  0  0  0  0
   17.7609   -6.0439   42.7117 C   0  0  1  0  0  0  0  0  0  0  0  0
   17.9758   -7.5537   42.7692 C   0  0  0  0  0  0  0  0  0  0  0  0
   16.1071   -6.1749   40.8013 N   0  0  0  0  0  0  0  0  0  0  0  0
   19.0494   -5.3842   43.1264 O   0  0  0  0  0  0  0  0  0  0  0  0
   18.4427   -1.9275   41.9125 O   0  0  0  0  0  0  0  0  0  0  0  0
   16.8978   -3.5019   40.0438 O   0  0  0  0  0  0  0  0  0  0  0  0
   18.2589   -7.9353   44.0896 O   0  0  0  0  0  0  0  0  0  0  0  0
   20.2890   -0.1512   50.9713 C   0  0  1  0  0  0  0  0  0  0  0  0
   20.2942    1.4054   50.8350 C   0  0  1  0  0  0  0  0  0  0  0  0
   20.0702    2.0303   52.2429 C   0  0  2  0  0  0  0  0  0  0  0  0
   18.7153    1.5537   52.8517 C   0  0  1  0  0  0  0  0  0  0  0  0
   18.6965   -0.0170   52.9827 C   0  0  0  0  0  0  0  0  0  0  0  0
   18.9186   -0.6492   51.5463 C   0  0  2  0  0  0  0  0  0  0  0  0
   18.5270    2.1599   54.1989 N   0  0  0  0  0  0  0  0  0  0  0  0
   18.8957   -2.1234   51.6777 N   0  0  0  0  0  0  0  0  0  0  0  0
   21.5584    1.8580   50.3150 O   0  0  0  0  0  0  0  0  0  0  0  0
   20.0724    3.4401   52.0898 O   0  0  0  0  0  0  0  0  0  0  0  0
  1  2  1  0  0  0  0
  1 12  1  6  0  0  0
  1 13  1  0  0  0  0
  2  3  1  0  0  0  0
  2 10  1  1  0  0  0
  4  3  1  1  0  0  0
  4  5  1  0  0  0  0
  4 14  1  0  0  0  0
  5  6  1  0  0  0  0
  5 13  1  1  0  0  0
  6  7  1  0  0  0  0
  6 15  1  6  0  0  0
  7  8  1  0  0  0  0
  7 11  1  6  0  0  0
  8 14  1  0  0  0  0
  8 16  1  6  0  0  0
  9 11  1  0  0  0  0
 17 16  1  1  0  0  0
 17 18  1  0  0  0  0
 17 24  1  0  0  0  0
 18 19  1  0  0  0  0
 18 25  1  1  0  0  0
 19 20  1  0  0  0  0
 19 26  1  6  0  0  0
 20 21  1  0  0  0  0
 20 23  1  1  0  0  0
 21 22  1  6  0  0  0
 21 24  1  0  0  0  0
 22 27  1  0  0  0  0
 28 12  1  6  0  0  0
 28 29  1  0  0  0  0
 28 33  1  0  0  0  0
 29 30  1  0  0  0  0
 29 36  1  1  0  0  0
 30 31  1  0  0  0  0
 30 37  1  6  0  0  0
 31 32  1  0  0  0  0
 31 34  1  1  0  0  0
 32 33  1  0  0  0  0
 33 35  1  1  0  0  0
M  END
>  <CHROM.1>
-140.01135387,163.50383823,-170.68899407,-169.16352887,-177.95663970,163.60020071
18.95024136,-2.55740239,47.01094397,1.06308595,1.11714576,1.47630779

>  <Name>
2oe8_lig

>  <RI>
0

>  <Rbt.Current_Directory>
/home/itssahil/PROJECTS/Mol_Feturizer/New_Systems/rnas/2oe8

>  <Rbt.Executable>
rbdock ($Id: //depot/dev/client3/rdock/2013.1/src/exe/rbdock.cxx#4 $)

>  <Rbt.Library>
libRbt.so (2013.1, Build901 2013/11/27)

>  <Rbt.Parameter_File>
/export/apps/rDock/src/rDock_2013.1_src/data/scripts/dock_solv.prm

>  <Rbt.Receptor>
prm/pocket_docking_8.prm

>  <SCORE>
-23.7509

>  <SCORE.INTER>
-20.242

>  <SCORE.INTER.CONST>
1

>  <SCORE.INTER.POLAR>
-1.05778

>  <SCORE.INTER.ROT>
6

>  <SCORE.INTER.SOLV>
18.8319

>  <SCORE.INTER.VDW>
-23.8461

>  <SCORE.INTER.norm>
-0.547082

>  <SCORE.INTRA>
-3.50883

>  <SCORE.INTRA.DIHEDRAL>
-8.52797

>  <SCORE.INTRA.DIHEDRAL.0>
16.4056

>  <SCORE.INTRA.POLAR>
0

>  <SCORE.INTRA.POLAR.0>
0

>  <SCORE.INTRA.REPUL>
0

>  <SCORE.INTRA.REPUL.0>
0

>  <SCORE.INTRA.SOLV>
-0.556108

>  <SCORE.INTRA.SOLV.lig_0>
-90.9627

>  <SCORE.INTRA.VDW>
1.03321

>  <SCORE.INTRA.VDW.0>
-3.28744

>  <SCORE.INTRA.norm>
-0.0948332

>  <SCORE.RESTR>
0

>  <SCORE.RESTR.CAVITY>
0

>  <SCORE.RESTR.norm>
0

>  <SCORE.SYSTEM>
0

>  <SCORE.SYSTEM.CONST>
0

>  <SCORE.SYSTEM.DIHEDRAL>
0

>  <SCORE.SYSTEM.SOLV>
0

>  <SCORE.SYSTEM.norm>
0

>  <SCORE.heavy>
37

>  <SCORE.norm>
-0.641916

>  <RMSD>
5.917

$$$$
2oe8_lig
 OpenBabel11021811463D
libRbt.so/2013.1/901 2013/11/27
 37 40  0  0  0  0  0  0  0  0999 V2000
   20.2362   -0.9832   50.1444 C   0  0  1  0  0  0  0  0  0  0  0  0
   19.5194   -1.8919   51.2139 C   0  0  1  0  0  0  0  0  0  0  0  0
   19.5892   -3.3653   50.7613 C   0  0  0  0  0  0  0  0  0  0  0  0
   18.8610   -3.4295   49.3824 C   0  0  1  0  0  0  0  0  0  0  0  0
   19.5721   -2.4871   48.2814 C   0  0  1  0  0  0  0  0  0  0  0  0
   18.8403   -2.5307   46.9080 C   0  0  1  0  0  0  0  0  0  0  0  0
   18.8235   -4.0402   46.4306 C   0  0  1  0  0  0  0  0  0  0  0  0
   18.1660   -4.9188   47.5511 C   0  0  2  0  0  0  0  0  0  0  0  0
   18.4759   -5.2861   44.1451 C   0  0  0  0  0  0  0  0  0  0  0  0
   20.1752   -1.7448   52.5520 N   0  0  0  0  0  0  0  0  0  0  0  0
   18.0811   -4.1930   45.1058 N   0  0  0  0  0  0  0  0  0  0  0  0
   21.6233   -1.3174   50.0097 O   0  0  0  0  0  0  0  0  0  0  0  0
   19.6015   -1.1123   48.7997 O   0  0  0  0  0  0  0  0  0  0  0  0
   18.8526   -4.7952   48.8706 O   0  0  0  0  0  0  0  0  0  0  0  0
   17.5261   -2.0104   47.1154 O   0  0  0  0  0  0  0  0  0  0  0  0
   18.2066   -6.2437   47.1637 O   0  0  0  0  0  0  0  0  0  0  0  0
   17.1760   -7.0448   47.7661 C   0  0  2  0  0  0  0  0  0  0  0  0
   17.1436   -8.4514   47.1209 C   0  0  1  0  0  0  0  0  0  0  0  0
   16.7093   -8.3926   45.6243 C   0  0  2  0  0  0  0  0  0  0  0  0
   15.3011   -7.7355   45.5223 C   0  0  1  0  0  0  0  0  0  0  0  0
   15.4290   -6.2752   46.1258 C   0  0  1  0  0  0  0  0  0  0  0  0
   14.0993   -5.5268   46.0977 C   0  0  0  0  0  0  0  0  0  0  0  0
   14.8835   -7.6784   44.0923 N   0  0  0  0  0  0  0  0  0  0  0  0
   15.8607   -6.3831   47.5644 O   0  0  0  0  0  0  0  0  0  0  0  0
   18.4558   -9.0241   47.2795 O   0  0  0  0  0  0  0  0  0  0  0  0
   16.6572   -9.7119   45.1233 O   0  0  0  0  0  0  0  0  0  0  0  0
   13.7117   -5.3129   44.7661 O   0  0  0  0  0  0  0  0  0  0  0  0
   22.4513   -0.6971   50.9716 C   0  0  1  0  0  0  0  0  0  0  0  0
   23.8229   -1.4454   50.9883 C   0  0  1  0  0  0  0  0  0  0  0  0
   24.7349   -0.7917   52.0671 C   0  0  2  0  0  0  0  0  0  0  0  0
   24.9579    0.7217   51.7613 C   0  0  1  0  0  0  0  0  0  0  0  0
   23.5780    1.4831   51.7314 C   0  0  0  0  0  0  0  0  0  0  0  0
   22.6549    0.8185   50.6276 C   0  0  2  0  0  0  0  0  0  0  0  0
   25.8276    1.3248   52.8090 N   0  0  0  0  0  0  0  0  0  0  0  0
   21.3634    1.5415   50.6036 N   0  0  0  0  0  0  0  0  0  0  0  0
   23.6309   -2.8348   51.3137 O   0  0  0  0  0  0  0  0  0  0  0  0
   25.9726   -1.4837   52.0564 O   0  0  0  0  0  0  0  0  0  0  0  0
  1  2  1  0  0  0  0
  1 12  1  6  0  0  0
  1 13  1  0  0  0  0
  2  3  1  0  0  0  0
  2 10  1  1  0  0  0
  4  3  1  1  0  0  0
  4  5  1  0  0  0  0
  4 14  1  0  0  0  0
  5  6  1  0  0  0  0
  5 13  1  1  0  0  0
  6  7  1  0  0  0  0
  6 15  1  1  0  0  0
  7  8  1  0  0  0  0
  7 11  1  6  0  0  0
  8 14  1  0  0  0  0
  8 16  1  6  0  0  0
  9 11  1  0  0  0  0
 17 16  1  6  0  0  0
 17 18  1  0  0  0  0
 17 24  1  0  0  0  0
 18 19  1  0  0  0  0
 18 25  1  6  0  0  0
 19 20  1  0  0  0  0
 19 26  1  1  0  0  0
 20 21  1  0  0  0  0
 20 23  1  6  0  0  0
 21 22  1  1  0  0  0
 21 24  1  0  0  0  0
 22 27  1  0  0  0  0
 28 12  1  6  0  0  0
 28 29  1  0  0  0  0
 28 33  1  0  0  0  0
 29 30  1  0  0  0  0
 29 36  1  1  0  0  0
 30 31  1  0  0  0  0
 30 37  1  6  0  0  0
 31 32  1  0  0  0  0
 31 34  1  1  0  0  0
 32 33  1  0  0  0  0
 33 35  1  1  0  0  0
M  END
>  <CHROM.1>
-83.89650972,150.01463380,-154.43864971,171.07703513,-65.12208824,163.66544405
19.45096246,-3.64794431,48.52302277,0.71211078,-0.57342885,0.13723903

>  <Name>
2oe8_lig

>  <RI>
0

>  <Rbt.Current_Directory>
/home/itssahil/PROJECTS/Mol_Feturizer/New_Systems/rnas/2oe8

>  <Rbt.Executable>
rbdock ($Id: //depot/dev/client3/rdock/2013.1/src/exe/rbdock.cxx#4 $)

>  <Rbt.Library>
libRbt.so (2013.1, Build901 2013/11/27)

>  <Rbt.Parameter_File>
/export/apps/rDock/src/rDock_2013.1_src/data/scripts/dock_solv.prm

>  <Rbt.Receptor>
prm/pocket_docking_8.prm

>  <SCORE>
-19.993

>  <SCORE.INTER>
-16.7228

>  <SCORE.INTER.CONST>
1

>  <SCORE.INTER.POLAR>
-1.17328

>  <SCORE.INTER.ROT>
6

>  <SCORE.INTER.SOLV>
14.1799

>  <SCORE.INTER.VDW>
-19.5643

>  <SCORE.INTER.norm>
-0.451969

>  <SCORE.INTRA>
-3.27015

>  <SCORE.INTRA.DIHEDRAL>
-8.8249

>  <SCORE.INTRA.DIHEDRAL.0>
16.4056

>  <SCORE.INTRA.POLAR>
0

>  <SCORE.INTRA.POLAR.0>
0

>  <SCORE.INTRA.REPUL>
0

>  <SCORE.INTRA.REPUL.0>
0

>  <SCORE.INTRA.SOLV>
2.07486

>  <SCORE.INTRA.SOLV.lig_0>
-90.9627

>  <SCORE.INTRA.VDW>
0.104871

>  <SCORE.INTRA.VDW.0>
-3.28744

>  <SCORE.INTRA.norm>
-0.0883825

>  <SCORE.RESTR>
0

>  <SCORE.RESTR.CAVITY>
0

>  <SCORE.RESTR.norm>
0

>  <SCORE.SYSTEM>
0

>  <SCORE.SYSTEM.CONST>
0

>  <SCORE.SYSTEM.DIHEDRAL>
0

>  <SCORE.SYSTEM.SOLV>
0

>  <SCORE.SYSTEM.norm>
0

>  <SCORE.heavy>
37

>  <SCORE.norm>
-0.540351

>  <RMSD>
5.953

$$$$
2oe8_lig
 OpenBabel11021811463D
libRbt.so/2013.1/901 2013/11/27
 37 40  0  0  0  0  0  0  0  0999 V2000
   20.4011   -3.7725   50.0516 C   0  0  1  0  0  0  0  0  0  0  0  0
   21.1975   -3.2960   48.7781 C   0  0  1  0  0  0  0  0  0  0  0  0
   20.2149   -2.6716   47.7654 C   0  0  0  0  0  0  0  0  0  0  0  0
   19.1910   -3.7938   47.4075 C   0  0  1  0  0  0  0  0  0  0  0  0
   18.3816   -4.3069   48.7065 C   0  0  1  0  0  0  0  0  0  0  0  0
   17.3714   -5.4401   48.3612 C   0  0  1  0  0  0  0  0  0  0  0  0
   16.3782   -4.8691   47.2682 C   0  0  1  0  0  0  0  0  0  0  0  0
   17.2138   -4.3431   46.0497 C   0  0  2  0  0  0  0  0  0  0  0  0
   14.0959   -5.5135   46.1402 C   0  0  0  0  0  0  0  0  0  0  0  0
   22.2384   -2.2881   49.1564 N   0  0  0  0  0  0  0  0  0  0  0  0
   15.3719   -5.9289   46.8281 N   0  0  0  0  0  0  0  0  0  0  0  0
   19.7542   -2.6775   50.7123 O   0  0  0  0  0  0  0  0  0  0  0  0
   19.3552   -4.7781   49.7013 O   0  0  0  0  0  0  0  0  0  0  0  0
   18.2204   -3.3096   46.4324 O   0  0  0  0  0  0  0  0  0  0  0  0
   18.1323   -6.5490   47.8795 O   0  0  0  0  0  0  0  0  0  0  0  0
   16.3539   -3.7882   45.1225 O   0  0  0  0  0  0  0  0  0  0  0  0
   16.9834   -3.5016   43.8622 C   0  0  2  0  0  0  0  0  0  0  0  0
   15.9285   -3.0403   42.8278 C   0  0  1  0  0  0  0  0  0  0  0  0
   14.9315   -4.1841   42.4674 C   0  0  2  0  0  0  0  0  0  0  0  0
   15.7248   -5.3993   41.9022 C   0  0  1  0  0  0  0  0  0  0  0  0
   16.7249   -5.8664   43.0400 C   0  0  1  0  0  0  0  0  0  0  0  0
   17.5789   -7.0517   42.5989 C   0  0  0  0  0  0  0  0  0  0  0  0
   14.7738   -6.4941   41.5566 N   0  0  0  0  0  0  0  0  0  0  0  0
   17.6569   -4.7280   43.3613 O   0  0  0  0  0  0  0  0  0  0  0  0
   15.2562   -1.8949   43.3856 O   0  0  0  0  0  0  0  0  0  0  0  0
   14.0358   -3.7022   41.4877 O   0  0  0  0  0  0  0  0  0  0  0  0
   18.3158   -7.5296   43.6933 O   0  0  0  0  0  0  0  0  0  0  0  0
   20.6530   -1.7228   51.2382 C   0  0  1  0  0  0  0  0  0  0  0  0
   19.8459   -0.4273   51.5728 C   0  0  1  0  0  0  0  0  0  0  0  0
   20.8301    0.6452   52.1244 C   0  0  2  0  0  0  0  0  0  0  0  0
   21.5565    0.1254   53.4033 C   0  0  1  0  0  0  0  0  0  0  0  0
   22.3647   -1.1883   53.0778 C   0  0  0  0  0  0  0  0  0  0  0  0
   21.3581   -2.2795   52.5226 C   0  0  2  0  0  0  0  0  0  0  0  0
   22.4951    1.1656   53.9079 N   0  0  0  0  0  0  0  0  0  0  0  0
   22.1242   -3.5103   52.2233 N   0  0  0  0  0  0  0  0  0  0  0  0
   19.2078    0.0847   50.3880 O   0  0  0  0  0  0  0  0  0  0  0  0
   20.0724    1.8054   52.4258 O   0  0  0  0  0  0  0  0  0  0  0  0
  1  2  1  0  0  0  0
  1 12  1  6  0  0  0
  1 13  1  0  0  0  0
  2  3  1  0  0  0  0
  2 10  1  1  0  0  0
  4  3  1  1  0  0  0
  4  5  1  0  0  0  0
  4 14  1  0  0  0  0
  5  6  1  0  0  0  0
  5 13  1  1  0  0  0
  6  7  1  0  0  0  0
  6 15  1  6  0  0  0
  7  8  1  0  0  0  0
  7 11  1  6  0  0  0
  8 14  1  0  0  0  0
  8 16  1  6  0  0  0
  9 11  1  0  0  0  0
 17 16  1  1  0  0  0
 17 18  1  0  0  0  0
 17 24  1  0  0  0  0
 18 19  1  0  0  0  0
 18 25  1  1  0  0  0
 19 20  1  0  0  0  0
 19 26  1  6  0  0  0
 20 21  1  0  0  0  0
 20 23  1  1  0  0  0
 21 22  1  6  0  0  0
 21 24  1  0  0  0  0
 22 27  1  0  0  0  0
 28 12  1  1  0  0  0
 28 29  1  0  0  0  0
 28 33  1  0  0  0  0
 29 30  1  0  0  0  0
 29 36  1  6  0  0  0
 30 31  1  0  0  0  0
 30 37  1  1  0  0  0
 31 32  1  0  0  0  0
 31 34  1  6  0  0  0
 32 33  1  0  0  0  0
 33 35  1  6  0  0  0
M  END
>  <CHROM.1>
-64.00472313,161.08277090,-169.05169371,173.39559794,-172.44201606,164.88606477
18.40506928,-3.41317066,47.51110780,-0.65183291,0.93023583,-2.82649049

>  <Name>
2oe8_lig

>  <RI>
0

>  <Rbt.Current_Directory>
/home/itssahil/PROJECTS/Mol_Feturizer/New_Systems/rnas/2oe8

>  <Rbt.Executable>
rbdock ($Id: //depot/dev/client3/rdock/2013.1/src/exe/rbdock.cxx#4 $)

>  <Rbt.Library>
libRbt.so (2013.1, Build901 2013/11/27)

>  <Rbt.Parameter_File>
/export/apps/rDock/src/rDock_2013.1_src/data/scripts/dock_solv.prm

>  <Rbt.Receptor>
prm/blind_docking_60.prm

>  <SCORE>
-22.0251

>  <SCORE.INTER>
-17.4061

>  <SCORE.INTER.CONST>
1

>  <SCORE.INTER.POLAR>
-1.89828

>  <SCORE.INTER.ROT>
6

>  <SCORE.INTER.SOLV>
8.89721

>  <SCORE.INTER.VDW>
-15.8422

>  <SCORE.INTER.norm>
-0.470434

>  <SCORE.INTRA>
-4.61904

>  <SCORE.INTRA.DIHEDRAL>
-13.9297

>  <SCORE.INTRA.DIHEDRAL.0>
16.4056

>  <SCORE.INTRA.POLAR>
0

>  <SCORE.INTRA.POLAR.0>
0

>  <SCORE.INTRA.REPUL>
0.0026088

>  <SCORE.INTRA.REPUL.0>
0

>  <SCORE.INTRA.SOLV>
2.06711

>  <SCORE.INTRA.SOLV.lig_0>
-90.9627

>  <SCORE.INTRA.VDW>
1.29923

>  <SCORE.INTRA.VDW.0>
-3.28744

>  <SCORE.INTRA.norm>
-0.124839

>  <SCORE.RESTR>
0

>  <SCORE.RESTR.CAVITY>
0

>  <SCORE.RESTR.norm>
0

>  <SCORE.SYSTEM>
0

>  <SCORE.SYSTEM.CONST>
0

>  <SCORE.SYSTEM.DIHEDRAL>
0

>  <SCORE.SYSTEM.SOLV>
0

>  <SCORE.SYSTEM.norm>
0

>  <SCORE.heavy>
37

>  <SCORE.norm>
-0.595273

>  <RMSD>
5.968

$$$$
2oe8_lig
 OpenBabel11021811463D
libRbt.so/2013.1/901 2013/11/27
 37 40  0  0  0  0  0  0  0  0999 V2000
   20.4004   -3.7581   50.0300 C   0  0  1  0  0  0  0  0  0  0  0  0
   21.1968   -3.2928   48.7522 C   0  0  1  0  0  0  0  0  0  0  0  0
   20.2147   -2.6740   47.7357 C   0  0  0  0  0  0  0  0  0  0  0  0
   19.1881   -3.7967   47.3870 C   0  0  1  0  0  0  0  0  0  0  0  0
   18.3787   -4.2984   48.6906 C   0  0  1  0  0  0  0  0  0  0  0  0
   17.3659   -5.4320   48.3546 C   0  0  1  0  0  0  0  0  0  0  0  0
   16.3730   -4.8672   47.2581 C   0  0  1  0  0  0  0  0  0  0  0  0
   17.2088   -4.3521   46.0350 C   0  0  2  0  0  0  0  0  0  0  0  0
   14.0612   -5.5119   46.1921 C   0  0  0  0  0  0  0  0  0  0  0  0
   22.2401   -2.2843   49.1221 N   0  0  0  0  0  0  0  0  0  0  0  0
   15.3642   -5.9281   46.8268 N   0  0  0  0  0  0  0  0  0  0  0  0
   19.7564   -2.6567   50.6828 O   0  0  0  0  0  0  0  0  0  0  0  0
   19.3522   -4.7641   49.6881 O   0  0  0  0  0  0  0  0  0  0  0  0
   18.2178   -3.3179   46.4091 O   0  0  0  0  0  0  0  0  0  0  0  0
   18.1241   -6.5461   47.8806 O   0  0  0  0  0  0  0  0  0  0  0  0
   16.3492   -3.8024   45.1043 O   0  0  0  0  0  0  0  0  0  0  0  0
   16.9797   -3.5213   43.8433 C   0  0  2  0  0  0  0  0  0  0  0  0
   15.9231   -3.0820   42.8010 C   0  0  1  0  0  0  0  0  0  0  0  0
   14.9402   -4.2404   42.4487 C   0  0  2  0  0  0  0  0  0  0  0  0
   15.7488   -5.4521   41.8981 C   0  0  1  0  0  0  0  0  0  0  0  0
   16.7503   -5.8968   43.0437 C   0  0  1  0  0  0  0  0  0  0  0  0
   17.6188   -7.0768   42.6171 C   0  0  0  0  0  0  0  0  0  0  0  0
   14.8112   -6.5609   41.5603 N   0  0  0  0  0  0  0  0  0  0  0  0
   17.6684   -4.7450   43.3567 O   0  0  0  0  0  0  0  0  0  0  0  0
   15.2363   -1.9388   43.3452 O   0  0  0  0  0  0  0  0  0  0  0  0
   14.0425   -3.7781   41.4614 O   0  0  0  0  0  0  0  0  0  0  0  0
   18.3877   -7.5096   43.7083 O   0  0  0  0  0  0  0  0  0  0  0  0
   20.6569   -1.6912   51.1855 C   0  0  1  0  0  0  0  0  0  0  0  0
   19.8549   -0.3816   51.4746 C   0  0  1  0  0  0  0  0  0  0  0  0
   20.8414    0.7019   51.9998 C   0  0  2  0  0  0  0  0  0  0  0  0
   21.5562    0.2176   53.2991 C   0  0  1  0  0  0  0  0  0  0  0  0
   22.3591   -1.1098   53.0197 C   0  0  0  0  0  0  0  0  0  0  0  0
   21.3502   -2.2120   52.4912 C   0  0  2  0  0  0  0  0  0  0  0  0
   22.4972    1.2678   53.7780 N   0  0  0  0  0  0  0  0  0  0  0  0
   22.1113   -3.4556   52.2352 N   0  0  0  0  0  0  0  0  0  0  0  0
   19.2278    0.0972   50.2702 O   0  0  0  0  0  0  0  0  0  0  0  0
   20.0883    1.8749   52.2602 O   0  0  0  0  0  0  0  0  0  0  0  0
  1  2  1  0  0  0  0
  1 12  1  6  0  0  0
  1 13  1  0  0  0  0
  2  3  1  0  0  0  0
  2 10  1  1  0  0  0
  4  3  1  1  0  0  0
  4  5  1  0  0  0  0
  4 14  1  0  0  0  0
  5  6  1  0  0  0  0
  5 13  1  1  0  0  0
  6  7  1  0  0  0  0
  6 15  1  6  0  0  0
  7  8  1  0  0  0  0
  7 11  1  6  0  0  0
  8 14  1  0  0  0  0
  8 16  1  6  0  0  0
  9 11  1  0  0  0  0
 17 16  1  1  0  0  0
 17 18  1  0  0  0  0
 17 24  1  0  0  0  0
 18 19  1  0  0  0  0
 18 25  1  1  0  0  0
 19 20  1  0  0  0  0
 19 26  1  6  0  0  0
 20 21  1  0  0  0  0
 20 23  1  1  0  0  0
 21 22  1  6  0  0  0
 21 24  1  0  0  0  0
 22 27  1  0  0  0  0
 28 12  1  1  0  0  0
 28 29  1  0  0  0  0
 28 33  1  0  0  0  0
 29 30  1  0  0  0  0
 29 36  1  6  0  0  0
 30 31  1  0  0  0  0
 30 37  1  1  0  0  0
 31 32  1  0  0  0  0
 31 34  1  6  0  0  0
 32 33  1  0  0  0  0
 33 35  1  6  0  0  0
M  END
>  <CHROM.1>
-63.22169270,158.37955039,-169.30712468,172.72759767,-174.22976948,163.35611258
18.40932587,-3.40692315,47.47916291,-0.64531439,0.93252854,-2.84508852

>  <Name>
2oe8_lig

>  <RI>
0

>  <Rbt.Current_Directory>
/home/itssahil/PROJECTS/Mol_Feturizer/New_Systems/rnas/2oe8

>  <Rbt.Executable>
rbdock ($Id: //depot/dev/client3/rdock/2013.1/src/exe/rbdock.cxx#4 $)

>  <Rbt.Library>
libRbt.so (2013.1, Build901 2013/11/27)

>  <Rbt.Parameter_File>
/export/apps/rDock/src/rDock_2013.1_src/data/scripts/dock_solv.prm

>  <Rbt.Receptor>
prm/pocket_docking_7.prm

>  <SCORE>
-22.0702

>  <SCORE.INTER>
-17.502

>  <SCORE.INTER.CONST>
1

>  <SCORE.INTER.POLAR>
-1.91087

>  <SCORE.INTER.ROT>
6

>  <SCORE.INTER.SOLV>
9.04083

>  <SCORE.INTER.VDW>
-15.912

>  <SCORE.INTER.norm>
-0.473027

>  <SCORE.INTRA>
-4.56821

>  <SCORE.INTRA.DIHEDRAL>
-13.7355

>  <SCORE.INTRA.DIHEDRAL.0>
16.4056

>  <SCORE.INTRA.POLAR>
0

>  <SCORE.INTRA.POLAR.0>
0

>  <SCORE.INTRA.REPUL>
0.00314792

>  <SCORE.INTRA.REPUL.0>
0

>  <SCORE.INTRA.SOLV>
2.00373

>  <SCORE.INTRA.SOLV.lig_0>
-90.9627

>  <SCORE.INTRA.VDW>
1.28195

>  <SCORE.INTRA.VDW.0>
-3.28744

>  <SCORE.INTRA.norm>
-0.123465

>  <SCORE.RESTR>
0

>  <SCORE.RESTR.CAVITY>
0

>  <SCORE.RESTR.norm>
0

>  <SCORE.SYSTEM>
0

>  <SCORE.SYSTEM.CONST>
0

>  <SCORE.SYSTEM.DIHEDRAL>
0

>  <SCORE.SYSTEM.SOLV>
0

>  <SCORE.SYSTEM.norm>
0

>  <SCORE.heavy>
37

>  <SCORE.norm>
-0.596492

>  <RMSD>
5.992

$$$$
2oe8_lig
 OpenBabel11021811463D
libRbt.so/2013.1/901 2013/11/27
 37 40  0  0  0  0  0  0  0  0999 V2000
   20.4371   -3.7850   49.8835 C   0  0  1  0  0  0  0  0  0  0  0  0
   21.2430   -3.3799   48.5913 C   0  0  1  0  0  0  0  0  0  0  0  0
   20.2815   -2.7356   47.5710 C   0  0  0  0  0  0  0  0  0  0  0  0
   19.2020   -3.8165   47.2510 C   0  0  1  0  0  0  0  0  0  0  0  0
   18.3817   -4.2568   48.5698 C   0  0  1  0  0  0  0  0  0  0  0  0
   17.3155   -5.3490   48.2627 C   0  0  1  0  0  0  0  0  0  0  0  0
   16.3401   -4.7595   47.1636 C   0  0  1  0  0  0  0  0  0  0  0  0
   17.1880   -4.3054   45.9247 C   0  0  2  0  0  0  0  0  0  0  0  0
   15.6503   -6.9300   45.8559 C   0  0  0  0  0  0  0  0  0  0  0  0
   22.3341   -2.4135   48.9344 N   0  0  0  0  0  0  0  0  0  0  0  0
   15.2804   -5.7810   46.7597 N   0  0  0  0  0  0  0  0  0  0  0  0
   19.8494   -2.6437   50.5207 O   0  0  0  0  0  0  0  0  0  0  0  0
   19.3413   -4.7482   49.5684 O   0  0  0  0  0  0  0  0  0  0  0  0
   18.2462   -3.3117   46.2718 O   0  0  0  0  0  0  0  0  0  0  0  0
   18.0182   -6.5050   47.8038 O   0  0  0  0  0  0  0  0  0  0  0  0
   16.3465   -3.7342   44.9906 O   0  0  0  0  0  0  0  0  0  0  0  0
   17.0105   -3.3857   43.7640 C   0  0  2  0  0  0  0  0  0  0  0  0
   15.9732   -2.9854   42.6871 C   0  0  1  0  0  0  0  0  0  0  0  0
   15.0779   -4.1917   42.2683 C   0  0  2  0  0  0  0  0  0  0  0  0
   15.9807   -5.3394   41.7270 C   0  0  1  0  0  0  0  0  0  0  0  0
   16.9591   -5.7507   42.9046 C   0  0  1  0  0  0  0  0  0  0  0  0
   17.9146   -6.8662   42.4903 C   0  0  0  0  0  0  0  0  0  0  0  0
   15.1270   -6.4938   41.3256 N   0  0  0  0  0  0  0  0  0  0  0  0
   17.7918   -4.5539   43.2812 O   0  0  0  0  0  0  0  0  0  0  0  0
   15.1962   -1.8987   43.2259 O   0  0  0  0  0  0  0  0  0  0  0  0
   14.1954   -3.7605   41.2536 O   0  0  0  0  0  0  0  0  0  0  0  0
   18.7414   -6.4114   41.4517 O   0  0  0  0  0  0  0  0  0  0  0  0
   20.7905   -1.6629   50.9057 C   0  0  1  0  0  0  0  0  0  0  0  0
   20.0149   -0.3467   51.2341 C   0  0  1  0  0  0  0  0  0  0  0  0
   21.0433    0.7528   51.6298 C   0  0  2  0  0  0  0  0  0  0  0  0
   21.8830    0.3070   52.8666 C   0  0  1  0  0  0  0  0  0  0  0  0
   22.6605   -1.0267   52.5483 C   0  0  0  0  0  0  0  0  0  0  0  0
   21.6096   -2.1451   52.1520 C   0  0  2  0  0  0  0  0  0  0  0  0
   22.8618    1.3718   53.2216 N   0  0  0  0  0  0  0  0  0  0  0  0
   22.3474   -3.3944   51.8586 N   0  0  0  0  0  0  0  0  0  0  0  0
   19.2717    0.0964   50.0833 O   0  0  0  0  0  0  0  0  0  0  0  0
   20.3142    1.9317   51.9287 O   0  0  0  0  0  0  0  0  0  0  0  0
  1  2  1  0  0  0  0
  1 12  1  6  0  0  0
  1 13  1  0  0  0  0
  2  3  1  0  0  0  0
  2 10  1  1  0  0  0
  4  3  1  1  0  0  0
  4  5  1  0  0  0  0
  4 14  1  0  0  0  0
  5  6  1  0  0  0  0
  5 13  1  1  0  0  0
  6  7  1  0  0  0  0
  6 15  1  6  0  0  0
  7  8  1  0  0  0  0
  7 11  1  6  0  0  0
  8 14  1  0  0  0  0
  8 16  1  6  0  0  0
  9 11  1  0  0  0  0
 17 16  1  1  0  0  0
 17 18  1  0  0  0  0
 17 24  1  0  0  0  0
 18 19  1  0  0  0  0
 18 25  1  1  0  0  0
 19 20  1  0  0  0  0
 19 26  1  6  0  0  0
 20 21  1  0  0  0  0
 20 23  1  1  0  0  0
 21 22  1  6  0  0  0
 21 24  1  0  0  0  0
 22 27  1  0  0  0  0
 28 12  1  1  0  0  0
 28 29  1  0  0  0  0
 28 33  1  0  0  0  0
 29 30  1  0  0  0  0
 29 36  1  6  0  0  0
 30 31  1  0  0  0  0
 30 37  1  1  0  0  0
 31 32  1  0  0  0  0
 31 34  1  6  0  0  0
 32 33  1  0  0  0  0
 33 35  1  6  0  0  0
M  END
>  <CHROM.1>
-58.57874174,-75.73027573,-175.00981626,170.16472625,63.14797925,165.51442116
18.56677475,-3.36377296,47.21598639,-0.53448697,0.99011653,-2.97919730

>  <Name>
2oe8_lig

>  <RI>
0

>  <Rbt.Current_Directory>
/home/itssahil/PROJECTS/Mol_Feturizer/New_Systems/rnas/2oe8

>  <Rbt.Executable>
rbdock ($Id: //depot/dev/client3/rdock/2013.1/src/exe/rbdock.cxx#4 $)

>  <Rbt.Library>
libRbt.so (2013.1, Build901 2013/11/27)

>  <Rbt.Parameter_File>
/export/apps/rDock/src/rDock_2013.1_src/data/scripts/dock_solv.prm

>  <Rbt.Receptor>
prm/blind_docking_100.prm

>  <SCORE>
-19.2708

>  <SCORE.INTER>
-16.6873

>  <SCORE.INTER.CONST>
1

>  <SCORE.INTER.POLAR>
-1.95256

>  <SCORE.INTER.ROT>
6

>  <SCORE.INTER.SOLV>
9.43744

>  <SCORE.INTER.VDW>
-15.3621

>  <SCORE.INTER.norm>
-0.451007

>  <SCORE.INTRA>
-2.58477

>  <SCORE.INTRA.DIHEDRAL>
-14.5216

>  <SCORE.INTRA.DIHEDRAL.0>
16.4056

>  <SCORE.INTRA.POLAR>
0

>  <SCORE.INTRA.POLAR.0>
0

>  <SCORE.INTRA.REPUL>
0

>  <SCORE.INTRA.REPUL.0>
0

>  <SCORE.INTRA.SOLV>
3.44671

>  <SCORE.INTRA.SOLV.lig_0>
-90.9627

>  <SCORE.INTRA.VDW>
2.95268

>  <SCORE.INTRA.VDW.0>
-3.28744

>  <SCORE.INTRA.norm>
-0.0698585

>  <SCORE.RESTR>
0.00126983

>  <SCORE.RESTR.CAVITY>
0.00126983

>  <SCORE.RESTR.norm>
3.43196e-05

>  <SCORE.SYSTEM>
0

>  <SCORE.SYSTEM.CONST>
0

>  <SCORE.SYSTEM.DIHEDRAL>
0

>  <SCORE.SYSTEM.SOLV>
0

>  <SCORE.SYSTEM.norm>
0

>  <SCORE.heavy>
37

>  <SCORE.norm>
-0.520831

>  <RMSD>
6.077

$$$$
2oe8_lig
 OpenBabel11021811463D
libRbt.so/2013.1/901 2013/11/27
 37 40  0  0  0  0  0  0  0  0999 V2000
   21.3501   -4.4588   50.4214 C   0  0  1  0  0  0  0  0  0  0  0  0
   22.2583   -5.1759   49.3517 C   0  0  1  0  0  0  0  0  0  0  0  0
   21.8876   -4.6666   47.9433 C   0  0  0  0  0  0  0  0  0  0  0  0
   20.3814   -5.0201   47.7377 C   0  0  1  0  0  0  0  0  0  0  0  0
   19.4402   -4.3087   48.8395 C   0  0  1  0  0  0  0  0  0  0  0  0
   17.9377   -4.6717   48.6531 C   0  0  1  0  0  0  0  0  0  0  0  0
   17.5243   -4.2301   47.1898 C   0  0  1  0  0  0  0  0  0  0  0  0
   18.4945   -4.9101   46.1622 C   0  0  2  0  0  0  0  0  0  0  0  0
   15.4609   -4.2193   45.5653 C   0  0  0  0  0  0  0  0  0  0  0  0
   23.7052   -4.9004   49.6219 N   0  0  0  0  0  0  0  0  0  0  0  0
   16.0707   -4.5893   46.8939 N   0  0  0  0  0  0  0  0  0  0  0  0
   21.5503   -3.0396   50.4202 O   0  0  0  0  0  0  0  0  0  0  0  0
   19.9011   -4.7169   50.1738 O   0  0  0  0  0  0  0  0  0  0  0  0
   19.9312   -4.5957   46.4169 O   0  0  0  0  0  0  0  0  0  0  0  0
   17.8183   -6.0814   48.8508 O   0  0  0  0  0  0  0  0  0  0  0  0
   18.1751   -4.4775   44.8902 O   0  0  0  0  0  0  0  0  0  0  0  0
   19.0465   -5.0030   43.8746 C   0  0  2  0  0  0  0  0  0  0  0  0
   18.8985   -4.1889   42.5666 C   0  0  1  0  0  0  0  0  0  0  0  0
   17.4832   -4.3604   41.9343 C   0  0  2  0  0  0  0  0  0  0  0  0
   17.2278   -5.8693   41.6456 C   0  0  1  0  0  0  0  0  0  0  0  0
   17.3152   -6.6259   43.0359 C   0  0  1  0  0  0  0  0  0  0  0  0
   17.0965   -8.1285   42.8835 C   0  0  0  0  0  0  0  0  0  0  0  0
   15.8753   -6.0358   41.0408 N   0  0  0  0  0  0  0  0  0  0  0  0
   18.6917   -6.4219   43.6112 O   0  0  0  0  0  0  0  0  0  0  0  0
   19.1835   -2.8134   42.8852 O   0  0  0  0  0  0  0  0  0  0  0  0
   17.4435   -3.6305   40.7261 O   0  0  0  0  0  0  0  0  0  0  0  0
   17.1360   -8.7370   44.1473 O   0  0  0  0  0  0  0  0  0  0  0  0
   20.9038   -2.3756   51.4865 C   0  0  1  0  0  0  0  0  0  0  0  0
   21.9237   -2.2349   52.6620 C   0  0  1  0  0  0  0  0  0  0  0  0
   21.2145   -1.5323   53.8563 C   0  0  2  0  0  0  0  0  0  0  0  0
   20.6870   -0.1251   53.4379 C   0  0  1  0  0  0  0  0  0  0  0  0
   19.6655   -0.2562   52.2445 C   0  0  0  0  0  0  0  0  0  0  0  0
   20.3932   -0.9662   51.0286 C   0  0  2  0  0  0  0  0  0  0  0  0
   20.0089    0.5234   54.5942 N   0  0  0  0  0  0  0  0  0  0  0  0
   19.4286   -1.0818   49.9117 N   0  0  0  0  0  0  0  0  0  0  0  0
   22.3824   -3.5326   53.0845 O   0  0  0  0  0  0  0  0  0  0  0  0
   22.1621   -1.4112   54.9044 O   0  0  0  0  0  0  0  0  0  0  0  0
  1  2  1  0  0  0  0
  1 12  1  6  0  0  0
  1 13  1  0  0  0  0
  2  3  1  0  0  0  0
  2 10  1  1  0  0  0
  4  3  1  1  0  0  0
  4  5  1  0  0  0  0
  4 14  1  0  0  0  0
  5  6  1  0  0  0  0
  5 13  1  1  0  0  0
  6  7  1  0  0  0  0
  6 15  1  6  0  0  0
  7  8  1  0  0  0  0
  7 11  1  6  0  0  0
  8 14  1  0  0  0  0
  8 16  1  6  0  0  0
  9 11  1  0  0  0  0
 17 16  1  1  0  0  0
 17 18  1  0  0  0  0
 17 24  1  0  0  0  0
 18 19  1  0  0  0  0
 18 25  1  1  0  0  0
 19 20  1  0  0  0  0
 19 26  1  6  0  0  0
 20 21  1  0  0  0  0
 20 23  1  1  0  0  0
 21 22  1  6  0  0  0
 21 24  1  0  0  0  0
 22 27  1  0  0  0  0
 28 12  1  6  0  0  0
 28 29  1  0  0  0  0
 28 33  1  0  0  0  0
 29 30  1  0  0  0  0
 29 36  1  1  0  0  0
 30 31  1  0  0  0  0
 30 37  1  1  0  0  0
 31 32  1  0  0  0  0
 31 34  1  1  0  0  0
 32 33  1  0  0  0  0
 33 35  1  6  0  0  0
M  END
>  <CHROM.1>
-171.45079605,178.21073935,177.57700074,-164.00974927,-177.85273660,93.61428441
19.34433100,-4.04809197,47.66723341,-1.02415354,0.86116029,-2.36778757

>  <Name>
2oe8_lig

>  <RI>
0

>  <Rbt.Current_Directory>
/home/itssahil/PROJECTS/Mol_Feturizer/New_Systems/rnas/2oe8

>  <Rbt.Executable>
rbdock ($Id: //depot/dev/client3/rdock/2013.1/src/exe/rbdock.cxx#4 $)

>  <Rbt.Library>
libRbt.so (2013.1, Build901 2013/11/27)

>  <Rbt.Parameter_File>
/export/apps/rDock/src/rDock_2013.1_src/data/scripts/dock_solv.prm

>  <Rbt.Receptor>
prm/blind_docking_60.prm

>  <SCORE>
-21.5646

>  <SCORE.INTER>
-16.4459

>  <SCORE.INTER.CONST>
1

>  <SCORE.INTER.POLAR>
-2.01544

>  <SCORE.INTER.ROT>
6

>  <SCORE.INTER.SOLV>
11.9178

>  <SCORE.INTER.VDW>
-15.8184

>  <SCORE.INTER.norm>
-0.444485

>  <SCORE.INTRA>
-5.11864

>  <SCORE.INTRA.DIHEDRAL>
-10.4711

>  <SCORE.INTRA.DIHEDRAL.0>
16.4056

>  <SCORE.INTRA.POLAR>
0

>  <SCORE.INTRA.POLAR.0>
0

>  <SCORE.INTRA.REPUL>
0

>  <SCORE.INTRA.REPUL.0>
0

>  <SCORE.INTRA.SOLV>
-1.82912

>  <SCORE.INTRA.SOLV.lig_0>
-90.9627

>  <SCORE.INTRA.VDW>
1.03149

>  <SCORE.INTRA.VDW.0>
-3.28744

>  <SCORE.INTRA.norm>
-0.138342

>  <SCORE.RESTR>
0

>  <SCORE.RESTR.CAVITY>
0

>  <SCORE.RESTR.norm>
0

>  <SCORE.SYSTEM>
0

>  <SCORE.SYSTEM.CONST>
0

>  <SCORE.SYSTEM.DIHEDRAL>
0

>  <SCORE.SYSTEM.SOLV>
0

>  <SCORE.SYSTEM.norm>
0

>  <SCORE.heavy>
37

>  <SCORE.norm>
-0.582827

>  <RMSD>
6.119

$$$$
2oe8_lig
 OpenBabel11021811463D
libRbt.so/2013.1/901 2013/11/27
 37 40  0  0  0  0  0  0  0  0999 V2000
   22.4595   -1.7214   50.7721 C   0  0  1  0  0  0  0  0  0  0  0  0
   21.0578   -1.7239   51.4923 C   0  0  1  0  0  0  0  0  0  0  0  0
   20.2895   -3.0061   51.1098 C   0  0  0  0  0  0  0  0  0  0  0  0
   20.1301   -2.9686   49.5577 C   0  0  1  0  0  0  0  0  0  0  0  0
   21.5587   -2.9448   48.8062 C   0  0  1  0  0  0  0  0  0  0  0  0
   21.4085   -2.8880   47.2576 C   0  0  1  0  0  0  0  0  0  0  0  0
   20.5627   -4.1527   46.8194 C   0  0  1  0  0  0  0  0  0  0  0  0
   19.2076   -4.1545   47.6091 C   0  0  2  0  0  0  0  0  0  0  0  0
   21.4922   -4.1416   44.3633 C   0  0  0  0  0  0  0  0  0  0  0  0
   21.2310   -1.6653   52.9785 N   0  0  0  0  0  0  0  0  0  0  0  0
   20.3207   -4.1610   45.3125 N   0  0  0  0  0  0  0  0  0  0  0  0
   23.2664   -2.8336   51.1797 O   0  0  0  0  0  0  0  0  0  0  0  0
   22.3149   -1.7804   49.2878 O   0  0  0  0  0  0  0  0  0  0  0  0
   19.3929   -4.1369   49.0900 O   0  0  0  0  0  0  0  0  0  0  0  0
   20.7521   -1.6585   46.9439 O   0  0  0  0  0  0  0  0  0  0  0  0
   18.4954   -5.2895   47.2748 O   0  0  0  0  0  0  0  0  0  0  0  0
   17.1081   -5.2209   47.6458 C   0  0  2  0  0  0  0  0  0  0  0  0
   16.4300   -6.5976   47.4445 C   0  0  1  0  0  0  0  0  0  0  0  0
   16.3688   -6.9987   45.9387 C   0  0  2  0  0  0  0  0  0  0  0  0
   15.5885   -5.9082   45.1468 C   0  0  1  0  0  0  0  0  0  0  0  0
   16.3815   -4.5480   45.3319 C   0  0  1  0  0  0  0  0  0  0  0  0
   15.7024   -3.3877   44.6098 C   0  0  0  0  0  0  0  0  0  0  0  0
   15.5283   -6.2895   43.7068 N   0  0  0  0  0  0  0  0  0  0  0  0
   16.4242   -4.2095   46.7986 O   0  0  0  0  0  0  0  0  0  0  0  0
   17.1674   -7.5553   48.2280 O   0  0  0  0  0  0  0  0  0  0  0  0
   15.6965   -8.2362   45.8343 O   0  0  0  0  0  0  0  0  0  0  0  0
   15.7419   -3.6119   43.2252 O   0  0  0  0  0  0  0  0  0  0  0  0
   24.5399   -2.8633   50.5690 C   0  0  1  0  0  0  0  0  0  0  0  0
   25.4635   -1.8511   51.3200 C   0  0  1  0  0  0  0  0  0  0  0  0
   26.8622   -1.8504   50.6369 C   0  0  2  0  0  0  0  0  0  0  0  0
   27.4961   -3.2754   50.6704 C   0  0  1  0  0  0  0  0  0  0  0  0
   26.5655   -4.3060   49.9245 C   0  0  0  0  0  0  0  0  0  0  0  0
   25.1446   -4.3082   50.6268 C   0  0  2  0  0  0  0  0  0  0  0  0
   28.8292   -3.2497   50.0071 N   0  0  0  0  0  0  0  0  0  0  0  0
   24.2787   -5.2809   49.9230 N   0  0  0  0  0  0  0  0  0  0  0  0
   24.9079   -0.5243   51.2559 O   0  0  0  0  0  0  0  0  0  0  0  0
   27.6807   -0.9307   51.3407 O   0  0  0  0  0  0  0  0  0  0  0  0
  1  2  1  0  0  0  0
  1 12  1  1  0  0  0
  1 13  1  0  0  0  0
  2  3  1  0  0  0  0
  2 10  1  1  0  0  0
  4  3  1  1  0  0  0
  4  5  1  0  0  0  0
  4 14  1  0  0  0  0
  5  6  1  0  0  0  0
  5 13  1  1  0  0  0
  6  7  1  0  0  0  0
  6 15  1  1  0  0  0
  7  8  1  0  0  0  0
  7 11  1  6  0  0  0
  8 14  1  0  0  0  0
  8 16  1  1  0  0  0
  9 11  1  0  0  0  0
 17 16  1  6  0  0  0
 17 18  1  0  0  0  0
 17 24  1  0  0  0  0
 18 19  1  0  0  0  0
 18 25  1  1  0  0  0
 19 20  1  0  0  0  0
 19 26  1  1  0  0  0
 20 21  1  0  0  0  0
 20 23  1  6  0  0  0
 21 22  1  6  0  0  0
 21 24  1  0  0  0  0
 22 27  1  0  0  0  0
 28 12  1  1  0  0  0
 28 29  1  0  0  0  0
 28 33  1  0  0  0  0
 29 30  1  0  0  0  0
 29 36  1  6  0  0  0
 30 31  1  0  0  0  0
 30 37  1  1  0  0  0
 31 32  1  0  0  0  0
 31 34  1  6  0  0  0
 32 33  1  0  0  0  0
 33 35  1  6  0  0  0
M  END
>  <CHROM.1>
-179.34402256,57.72454709,-164.03607553,-171.18772240,-65.47761170,79.53564055
20.88046484,-3.78802002,48.35529386,0.57557328,0.12322400,1.21452099

>  <Name>
2oe8_lig

>  <RI>
0

>  <Rbt.Current_Directory>
/home/itssahil/PROJECTS/Mol_Feturizer/New_Systems/rnas/2oe8

>  <Rbt.Executable>
rbdock ($Id: //depot/dev/client3/rdock/2013.1/src/exe/rbdock.cxx#4 $)

>  <Rbt.Library>
libRbt.so (2013.1, Build901 2013/11/27)

>  <Rbt.Parameter_File>
/export/apps/rDock/src/rDock_2013.1_src/data/scripts/dock_solv.prm

>  <Rbt.Receptor>
prm/pocket_docking_6.prm

>  <SCORE>
-15.9541

>  <SCORE.INTER>
-9.81904

>  <SCORE.INTER.CONST>
1

>  <SCORE.INTER.POLAR>
0

>  <SCORE.INTER.ROT>
6

>  <SCORE.INTER.SOLV>
9.07242

>  <SCORE.INTER.VDW>
-17.1702

>  <SCORE.INTER.norm>
-0.265379

>  <SCORE.INTRA>
-6.1351

>  <SCORE.INTRA.DIHEDRAL>
-12.9441

>  <SCORE.INTRA.DIHEDRAL.0>
16.4056

>  <SCORE.INTRA.POLAR>
0

>  <SCORE.INTRA.POLAR.0>
0

>  <SCORE.INTRA.REPUL>
0

>  <SCORE.INTRA.REPUL.0>
0

>  <SCORE.INTRA.SOLV>
-1.62875

>  <SCORE.INTRA.SOLV.lig_0>
-90.9627

>  <SCORE.INTRA.VDW>
1.15132

>  <SCORE.INTRA.VDW.0>
-3.28744

>  <SCORE.INTRA.norm>
-0.165813

>  <SCORE.RESTR>
0

>  <SCORE.RESTR.CAVITY>
0

>  <SCORE.RESTR.norm>
0

>  <SCORE.SYSTEM>
0

>  <SCORE.SYSTEM.CONST>
0

>  <SCORE.SYSTEM.DIHEDRAL>
0

>  <SCORE.SYSTEM.SOLV>
0

>  <SCORE.SYSTEM.norm>
0

>  <SCORE.heavy>
37

>  <SCORE.norm>
-0.431193

>  <RMSD>
6.180

$$$$
2oe8_lig
 OpenBabel11021811463D
libRbt.so/2013.1/901 2013/11/27
 37 40  0  0  0  0  0  0  0  0999 V2000
   19.6056   -2.4955   49.7463 C   0  0  1  0  0  0  0  0  0  0  0  0
   18.5011   -3.4706   50.3054 C   0  0  1  0  0  0  0  0  0  0  0  0
   18.5412   -4.7947   49.5145 C   0  0  0  0  0  0  0  0  0  0  0  0
   18.2647   -4.4181   48.0253 C   0  0  1  0  0  0  0  0  0  0  0  0
   19.3773   -3.4027   47.4446 C   0  0  1  0  0  0  0  0  0  0  0  0
   19.0981   -3.0068   45.9650 C   0  0  1  0  0  0  0  0  0  0  0  0
   19.0599   -4.3443   45.1185 C   0  0  1  0  0  0  0  0  0  0  0  0
   17.9991   -5.3127   45.7486 C   0  0  2  0  0  0  0  0  0  0  0  0
   19.1103   -5.0738   42.5962 C   0  0  0  0  0  0  0  0  0  0  0  0
   18.7306   -3.7455   51.7593 N   0  0  0  0  0  0  0  0  0  0  0  0
   18.7437   -4.0618   43.6523 N   0  0  0  0  0  0  0  0  0  0  0  0
   20.9218   -3.0405   49.9034 O   0  0  0  0  0  0  0  0  0  0  0  0
   19.4001   -2.2057   48.2967 O   0  0  0  0  0  0  0  0  0  0  0  0
   18.2609   -5.6117   47.1873 O   0  0  0  0  0  0  0  0  0  0  0  0
   17.8495   -2.3131   45.9441 O   0  0  0  0  0  0  0  0  0  0  0  0
   18.0083   -6.5037   45.0496 O   0  0  0  0  0  0  0  0  0  0  0  0
   17.2753   -7.5533   45.7037 C   0  0  2  0  0  0  0  0  0  0  0  0
   17.1120   -8.7655   44.7552 C   0  0  1  0  0  0  0  0  0  0  0  0
   16.2120   -8.4241   43.5282 C   0  0  2  0  0  0  0  0  0  0  0  0
   14.8134   -7.9576   44.0296 C   0  0  1  0  0  0  0  0  0  0  0  0
   15.0503   -6.6711   44.9252 C   0  0  1  0  0  0  0  0  0  0  0  0
   13.7449   -6.1228   45.4945 C   0  0  0  0  0  0  0  0  0  0  0  0
   13.9509   -7.6308   42.8583 N   0  0  0  0  0  0  0  0  0  0  0  0
   15.9317   -7.0468   46.0868 O   0  0  0  0  0  0  0  0  0  0  0  0
   18.4338   -9.1767   44.3566 O   0  0  0  0  0  0  0  0  0  0  0  0
   16.0722   -9.5880   42.7407 O   0  0  0  0  0  0  0  0  0  0  0  0
   14.0247   -5.0527   46.3580 O   0  0  0  0  0  0  0  0  0  0  0  0
   21.8584   -2.1184   50.4215 C   0  0  1  0  0  0  0  0  0  0  0  0
   21.5329   -1.8912   51.9328 C   0  0  1  0  0  0  0  0  0  0  0  0
   22.5387   -0.8524   52.5091 C   0  0  2  0  0  0  0  0  0  0  0  0
   24.0068   -1.3554   52.3506 C   0  0  1  0  0  0  0  0  0  0  0  0
   24.3409   -1.5981   50.8294 C   0  0  0  0  0  0  0  0  0  0  0  0
   23.3187   -2.6609   50.2481 C   0  0  2  0  0  0  0  0  0  0  0  0
   24.9489   -0.3432   52.9036 N   0  0  0  0  0  0  0  0  0  0  0  0
   23.6418   -2.8857   48.8211 N   0  0  0  0  0  0  0  0  0  0  0  0
   20.1938   -1.3845   52.0854 O   0  0  0  0  0  0  0  0  0  0  0  0
   22.2259   -0.6704   53.8802 O   0  0  0  0  0  0  0  0  0  0  0  0
  1  2  1  0  0  0  0
  1 12  1  6  0  0  0
  1 13  1  0  0  0  0
  2  3  1  0  0  0  0
  2 10  1  1  0  0  0
  4  3  1  1  0  0  0
  4  5  1  0  0  0  0
  4 14  1  0  0  0  0
  5  6  1  0  0  0  0
  5 13  1  1  0  0  0
  6  7  1  0  0  0  0
  6 15  1  1  0  0  0
  7  8  1  0  0  0  0
  7 11  1  6  0  0  0
  8 14  1  0  0  0  0
  8 16  1  6  0  0  0
  9 11  1  0  0  0  0
 17 16  1  6  0  0  0
 17 18  1  0  0  0  0
 17 24  1  0  0  0  0
 18 19  1  0  0  0  0
 18 25  1  6  0  0  0
 19 20  1  0  0  0  0
 19 26  1  6  0  0  0
 20 21  1  0  0  0  0
 20 23  1  6  0  0  0
 21 22  1  1  0  0  0
 21 24  1  0  0  0  0
 22 27  1  0  0  0  0
 28 12  1  1  0  0  0
 28 29  1  0  0  0  0
 28 33  1  0  0  0  0
 29 30  1  0  0  0  0
 29 36  1  6  0  0  0
 30 31  1  0  0  0  0
 30 37  1  1  0  0  0
 31 32  1  0  0  0  0
 31 34  1  6  0  0  0
 32 33  1  0  0  0  0
 33 35  1  6  0  0  0
M  END
>  <CHROM.1>
-133.90163857,159.10120049,168.09326424,169.76480466,175.46982217,72.24409165
18.95808359,-4.43747320,47.62720011,0.95669615,0.23824837,1.07724615

>  <Name>
2oe8_lig

>  <RI>
0

>  <Rbt.Current_Directory>
/home/itssahil/PROJECTS/Mol_Feturizer/New_Systems/rnas/2oe8

>  <Rbt.Executable>
rbdock ($Id: //depot/dev/client3/rdock/2013.1/src/exe/rbdock.cxx#4 $)

>  <Rbt.Library>
libRbt.so (2013.1, Build901 2013/11/27)

>  <Rbt.Parameter_File>
/export/apps/rDock/src/rDock_2013.1_src/data/scripts/dock_solv.prm

>  <Rbt.Receptor>
prm/blind_docking_80.prm

>  <SCORE>
-11.1496

>  <SCORE.INTER>
-8.71242

>  <SCORE.INTER.CONST>
1

>  <SCORE.INTER.POLAR>
-0.66691

>  <SCORE.INTER.ROT>
6

>  <SCORE.INTER.SOLV>
14.9283

>  <SCORE.INTER.VDW>
-16.1613

>  <SCORE.INTER.norm>
-0.235471

>  <SCORE.INTRA>
-2.43722

>  <SCORE.INTRA.DIHEDRAL>
-7.80771

>  <SCORE.INTRA.DIHEDRAL.0>
16.4056

>  <SCORE.INTRA.POLAR>
0

>  <SCORE.INTRA.POLAR.0>
0

>  <SCORE.INTRA.REPUL>
0

>  <SCORE.INTRA.REPUL.0>
0

>  <SCORE.INTRA.SOLV>
-1.44645

>  <SCORE.INTRA.SOLV.lig_0>
-90.9627

>  <SCORE.INTRA.VDW>
2.18986

>  <SCORE.INTRA.VDW.0>
-3.28744

>  <SCORE.INTRA.norm>
-0.0658708

>  <SCORE.RESTR>
0

>  <SCORE.RESTR.CAVITY>
0

>  <SCORE.RESTR.norm>
0

>  <SCORE.SYSTEM>
0

>  <SCORE.SYSTEM.CONST>
0

>  <SCORE.SYSTEM.DIHEDRAL>
0

>  <SCORE.SYSTEM.SOLV>
0

>  <SCORE.SYSTEM.norm>
0

>  <SCORE.heavy>
37

>  <SCORE.norm>
-0.301342

>  <RMSD>
6.337

$$$$
2oe8_lig
 OpenBabel11021811463D
libRbt.so/2013.1/901 2013/11/27
 37 40  0  0  0  0  0  0  0  0999 V2000
   20.2028    4.9869   58.4291 C   0  0  1  0  0  0  0  0  0  0  0  0
   19.6833    5.7675   57.1625 C   0  0  1  0  0  0  0  0  0  0  0  0
   19.0476    4.7691   56.1726 C   0  0  0  0  0  0  0  0  0  0  0  0
   20.1747    3.7583   55.7936 C   0  0  1  0  0  0  0  0  0  0  0  0
   20.7315    2.9654   57.0848 C   0  0  1  0  0  0  0  0  0  0  0  0
   21.8697    1.9685   56.7180 C   0  0  1  0  0  0  0  0  0  0  0  0
   21.2855    0.9597   55.6466 C   0  0  1  0  0  0  0  0  0  0  0  0
   20.7174    1.7792   54.4359 C   0  0  2  0  0  0  0  0  0  0  0  0
   22.0029   -1.4974   55.0598 C   0  0  0  0  0  0  0  0  0  0  0  0
   18.6708    6.7970   57.5589 N   0  0  0  0  0  0  0  0  0  0  0  0
   22.3479   -0.0350   55.1868 N   0  0  0  0  0  0  0  0  0  0  0  0
   19.1338    4.3298   59.1215 O   0  0  0  0  0  0  0  0  0  0  0  0
   21.2138    3.9526   58.0607 O   0  0  0  0  0  0  0  0  0  0  0  0
   19.6799    2.7741   54.8376 O   0  0  0  0  0  0  0  0  0  0  0  0
   22.9554    2.7412   56.2033 O   0  0  0  0  0  0  0  0  0  0  0  0
   20.1516    0.9050   53.5289 O   0  0  0  0  0  0  0  0  0  0  0  0
   19.6017    1.5604   52.3735 C   0  0  2  0  0  0  0  0  0  0  0  0
   18.6499    0.6036   51.6159 C   0  0  1  0  0  0  0  0  0  0  0  0
   19.4156   -0.6067   50.9986 C   0  0  2  0  0  0  0  0  0  0  0  0
   20.5133   -0.0804   50.0275 C   0  0  1  0  0  0  0  0  0  0  0  0
   21.4932    0.8232   50.8857 C   0  0  1  0  0  0  0  0  0  0  0  0
   22.6138    1.4168   50.0367 C   0  0  0  0  0  0  0  0  0  0  0  0
   21.2466   -1.2357   49.4359 N   0  0  0  0  0  0  0  0  0  0  0  0
   20.7082    1.9681   51.4691 O   0  0  0  0  0  0  0  0  0  0  0  0
   17.6370    0.1816   52.5492 O   0  0  0  0  0  0  0  0  0  0  0  0
   18.4912   -1.4026   50.2869 O   0  0  0  0  0  0  0  0  0  0  0  0
   23.5966    1.9631   50.8762 O   0  0  0  0  0  0  0  0  0  0  0  0
   19.5437    3.6729   60.3031 C   0  0  1  0  0  0  0  0  0  0  0  0
   19.7013    4.7468   61.4272 C   0  0  1  0  0  0  0  0  0  0  0  0
   20.1835    4.0405   62.7278 C   0  0  2  0  0  0  0  0  0  0  0  0
   19.1647    2.9472   63.1753 C   0  0  1  0  0  0  0  0  0  0  0  0
   18.9906    1.8650   62.0425 C   0  0  0  0  0  0  0  0  0  0  0  0
   18.4937    2.5872   60.7220 C   0  0  2  0  0  0  0  0  0  0  0  0
   19.6504    2.2833   64.4166 N   0  0  0  0  0  0  0  0  0  0  0  0
   18.3292    1.5638   59.6652 N   0  0  0  0  0  0  0  0  0  0  0  0
   20.6734    5.7363   61.0410 O   0  0  0  0  0  0  0  0  0  0  0  0
   20.3115    5.0344   63.7312 O   0  0  0  0  0  0  0  0  0  0  0  0
  1  2  1  0  0  0  0
  1 12  1  6  0  0  0
  1 13  1  0  0  0  0
  2  3  1  0  0  0  0
  2 10  1  1  0  0  0
  4  3  1  1  0  0  0
  4  5  1  0  0  0  0
  4 14  1  0  0  0  0
  5  6  1  0  0  0  0
  5 13  1  1  0  0  0
  6  7  1  0  0  0  0
  6 15  1  6  0  0  0
  7  8  1  0  0  0  0
  7 11  1  6  0  0  0
  8 14  1  0  0  0  0
  8 16  1  6  0  0  0
  9 11  1  0  0  0  0
 17 16  1  1  0  0  0
 17 18  1  0  0  0  0
 17 24  1  0  0  0  0
 18 19  1  0  0  0  0
 18 25  1  1  0  0  0
 19 20  1  0  0  0  0
 19 26  1  6  0  0  0
 20 21  1  0  0  0  0
 20 23  1  1  0  0  0
 21 22  1  6  0  0  0
 21 24  1  0  0  0  0
 22 27  1  0  0  0  0
 28 12  1  6  0  0  0
 28 29  1  0  0  0  0
 28 33  1  0  0  0  0
 29 30  1  0  0  0  0
 29 36  1  6  0  0  0
 30 31  1  0  0  0  0
 30 37  1  1  0  0  0
 31 32  1  0  0  0  0
 31 34  1  1  0  0  0
 32 33  1  0  0  0  0
 33 35  1  6  0  0  0
M  END
>  <CHROM.1>
-176.95912254,135.74227729,-179.83582012,-163.90423227,-167.61861961,78.89333966
20.25566357,2.33700826,56.20289727,-1.90403929,-1.30602332,-2.23398295

>  <Name>
2oe8_lig

>  <RI>
0

>  <Rbt.Current_Directory>
/home/itssahil/PROJECTS/Mol_Feturizer/New_Systems/rnas/2oe8

>  <Rbt.Executable>
rbdock ($Id: //depot/dev/client3/rdock/2013.1/src/exe/rbdock.cxx#4 $)

>  <Rbt.Library>
libRbt.so (2013.1, Build901 2013/11/27)

>  <Rbt.Parameter_File>
/export/apps/rDock/src/rDock_2013.1_src/data/scripts/dock_solv.prm

>  <Rbt.Receptor>
prm/pocket_docking_7.prm

>  <SCORE>
-13.5978

>  <SCORE.INTER>
-6.93331

>  <SCORE.INTER.CONST>
1

>  <SCORE.INTER.POLAR>
-0.502122

>  <SCORE.INTER.ROT>
6

>  <SCORE.INTER.SOLV>
10.4288

>  <SCORE.INTER.VDW>
-14.0247

>  <SCORE.INTER.norm>
-0.187387

>  <SCORE.INTRA>
-6.66449

>  <SCORE.INTRA.DIHEDRAL>
-11.9228

>  <SCORE.INTRA.DIHEDRAL.0>
16.4056

>  <SCORE.INTRA.POLAR>
0

>  <SCORE.INTRA.POLAR.0>
0

>  <SCORE.INTRA.REPUL>
0

>  <SCORE.INTRA.REPUL.0>
0

>  <SCORE.INTRA.SOLV>
-2.92836

>  <SCORE.INTRA.SOLV.lig_0>
-90.9627

>  <SCORE.INTRA.VDW>
0.761112

>  <SCORE.INTRA.VDW.0>
-3.28744

>  <SCORE.INTRA.norm>
-0.180121

>  <SCORE.RESTR>
0

>  <SCORE.RESTR.CAVITY>
0

>  <SCORE.RESTR.norm>
0

>  <SCORE.SYSTEM>
0

>  <SCORE.SYSTEM.CONST>
0

>  <SCORE.SYSTEM.DIHEDRAL>
0

>  <SCORE.SYSTEM.SOLV>
0

>  <SCORE.SYSTEM.norm>
0

>  <SCORE.heavy>
37

>  <SCORE.norm>
-0.367508

>  <RMSD>
6.394

$$$$
2oe8_lig
 OpenBabel11021811463D
libRbt.so/2013.1/901 2013/11/27
 37 40  0  0  0  0  0  0  0  0999 V2000
   20.2835   -2.9807   49.6644 C   0  0  1  0  0  0  0  0  0  0  0  0
   18.9604   -3.8279   49.7872 C   0  0  1  0  0  0  0  0  0  0  0  0
   19.3137   -5.2671   50.2168 C   0  0  0  0  0  0  0  0  0  0  0  0
   20.2492   -5.8339   49.1035 C   0  0  1  0  0  0  0  0  0  0  0  0
   21.6003   -4.9635   48.9518 C   0  0  1  0  0  0  0  0  0  0  0  0
   22.5307   -5.5110   47.8300 C   0  0  1  0  0  0  0  0  0  0  0  0
   22.8676   -7.0157   48.1898 C   0  0  1  0  0  0  0  0  0  0  0  0
   21.5252   -7.8062   48.3711 C   0  0  2  0  0  0  0  0  0  0  0  0
   24.7356   -8.7272   47.4985 C   0  0  0  0  0  0  0  0  0  0  0  0
   18.0359   -3.2150   50.7931 N   0  0  0  0  0  0  0  0  0  0  0  0
   23.7431   -7.6579   47.1172 N   0  0  0  0  0  0  0  0  0  0  0  0
   20.9721   -2.8893   50.9180 O   0  0  0  0  0  0  0  0  0  0  0  0
   21.2239   -3.5717   48.6674 O   0  0  0  0  0  0  0  0  0  0  0  0
   20.6292   -7.2093   49.4049 O   0  0  0  0  0  0  0  0  0  0  0  0
   21.8178   -5.3922   46.5977 O   0  0  0  0  0  0  0  0  0  0  0  0
   21.8157   -9.1032   48.7459 O   0  0  0  0  0  0  0  0  0  0  0  0
   20.6886   -9.9902   48.6478 C   0  0  2  0  0  0  0  0  0  0  0  0
   21.1350  -11.4534   48.8830 C   0  0  1  0  0  0  0  0  0  0  0  0
   22.0776  -11.9610   47.7490 C   0  0  2  0  0  0  0  0  0  0  0  0
   21.3429  -11.8496   46.3804 C   0  0  1  0  0  0  0  0  0  0  0  0
   20.9887  -10.3187   46.1706 C   0  0  1  0  0  0  0  0  0  0  0  0
   20.2450  -10.0786   44.8598 C   0  0  0  0  0  0  0  0  0  0  0  0
   22.2419  -12.3346   45.2946 N   0  0  0  0  0  0  0  0  0  0  0  0
   20.0894   -9.8726   47.2930 O   0  0  0  0  0  0  0  0  0  0  0  0
   21.7701  -11.5036   50.1749 O   0  0  0  0  0  0  0  0  0  0  0  0
   22.3999  -13.3112   48.0085 O   0  0  0  0  0  0  0  0  0  0  0  0
   19.0366  -10.7919   44.8709 O   0  0  0  0  0  0  0  0  0  0  0  0
   22.1085   -2.0509   50.8800 C   0  0  1  0  0  0  0  0  0  0  0  0
   21.6193   -0.5670   50.9007 C   0  0  1  0  0  0  0  0  0  0  0  0
   22.8611    0.3688   50.8274 C   0  0  2  0  0  0  0  0  0  0  0  0
   23.8229    0.1086   52.0278 C   0  0  1  0  0  0  0  0  0  0  0  0
   24.3129   -1.3896   52.0216 C   0  0  0  0  0  0  0  0  0  0  0  0
   23.0462   -2.3388   52.1026 C   0  0  2  0  0  0  0  0  0  0  0  0
   25.0038    1.0107   51.9322 N   0  0  0  0  0  0  0  0  0  0  0  0
   23.5153   -3.7427   52.1001 N   0  0  0  0  0  0  0  0  0  0  0  0
   20.7659   -0.3057   49.7708 O   0  0  0  0  0  0  0  0  0  0  0  0
   22.3903    1.7061   50.8547 O   0  0  0  0  0  0  0  0  0  0  0  0
  1  2  1  0  0  0  0
  1 12  1  1  0  0  0
  1 13  1  0  0  0  0
  2  3  1  0  0  0  0
  2 10  1  1  0  0  0
  4  3  1  1  0  0  0
  4  5  1  0  0  0  0
  4 14  1  0  0  0  0
  5  6  1  0  0  0  0
  5 13  1  6  0  0  0
  6  7  1  0  0  0  0
  6 15  1  6  0  0  0
  7  8  1  0  0  0  0
  7 11  1  6  0  0  0
  8 14  1  0  0  0  0
  8 16  1  1  0  0  0
  9 11  1  0  0  0  0
 17 16  1  6  0  0  0
 17 18  1  0  0  0  0
 17 24  1  0  0  0  0
 18 19  1  0  0  0  0
 18 25  1  1  0  0  0
 19 20  1  0  0  0  0
 19 26  1  1  0  0  0
 20 21  1  0  0  0  0
 20 23  1  6  0  0  0
 21 22  1  6  0  0  0
 21 24  1  0  0  0  0
 22 27  1  0  0  0  0
 28 12  1  1  0  0  0
 28 29  1  0  0  0  0
 28 33  1  0  0  0  0
 29 30  1  0  0  0  0
 29 36  1  6  0  0  0
 30 31  1  0  0  0  0
 30 37  1  1  0  0  0
 31 32  1  0  0  0  0
 31 34  1  6  0  0  0
 32 33  1  0  0  0  0
 33 35  1  6  0  0  0
M  END
>  <CHROM.1>
-175.26116496,148.74990143,-166.80654214,171.80796479,60.97508608,76.50385602
21.65586209,-6.02689744,48.99273053,1.47752175,-0.33228827,0.34096497

>  <Name>
2oe8_lig

>  <RI>
0

>  <Rbt.Current_Directory>
/home/itssahil/PROJECTS/Mol_Feturizer/New_Systems/rnas/2oe8

>  <Rbt.Executable>
rbdock ($Id: //depot/dev/client3/rdock/2013.1/src/exe/rbdock.cxx#4 $)

>  <Rbt.Library>
libRbt.so (2013.1, Build901 2013/11/27)

>  <Rbt.Parameter_File>
/export/apps/rDock/src/rDock_2013.1_src/data/scripts/dock_solv.prm

>  <Rbt.Receptor>
prm/pocket_docking_8.prm

>  <SCORE>
-20.5718

>  <SCORE.INTER>
-13.7616

>  <SCORE.INTER.CONST>
1

>  <SCORE.INTER.POLAR>
-1.06014

>  <SCORE.INTER.ROT>
6

>  <SCORE.INTER.SOLV>
16.1166

>  <SCORE.INTER.VDW>
-18.6128

>  <SCORE.INTER.norm>
-0.371934

>  <SCORE.INTRA>
-6.81026

>  <SCORE.INTRA.DIHEDRAL>
-13.1775

>  <SCORE.INTRA.DIHEDRAL.0>
16.4056

>  <SCORE.INTRA.POLAR>
0

>  <SCORE.INTRA.POLAR.0>
0

>  <SCORE.INTRA.REPUL>
0

>  <SCORE.INTRA.REPUL.0>
0

>  <SCORE.INTRA.SOLV>
-2.01038

>  <SCORE.INTRA.SOLV.lig_0>
-90.9627

>  <SCORE.INTRA.VDW>
0.783676

>  <SCORE.INTRA.VDW.0>
-3.28744

>  <SCORE.INTRA.norm>
-0.184061

>  <SCORE.RESTR>
0

>  <SCORE.RESTR.CAVITY>
0

>  <SCORE.RESTR.norm>
0

>  <SCORE.SYSTEM>
0

>  <SCORE.SYSTEM.CONST>
0

>  <SCORE.SYSTEM.DIHEDRAL>
0

>  <SCORE.SYSTEM.SOLV>
0

>  <SCORE.SYSTEM.norm>
0

>  <SCORE.heavy>
37

>  <SCORE.norm>
-0.555995

>  <RMSD>
6.504

$$$$
2oe8_lig
 OpenBabel11021811463D
libRbt.so/2013.1/901 2013/11/27
 37 40  0  0  0  0  0  0  0  0999 V2000
   19.3130   -2.0730   49.4612 C   0  0  1  0  0  0  0  0  0  0  0  0
   18.6382   -3.2647   50.2409 C   0  0  1  0  0  0  0  0  0  0  0  0
   19.0297   -4.5990   49.5722 C   0  0  0  0  0  0  0  0  0  0  0  0
   18.5103   -4.5157   48.1029 C   0  0  1  0  0  0  0  0  0  0  0  0
   19.1776   -3.2862   47.2972 C   0  0  1  0  0  0  0  0  0  0  0  0
   18.6502   -3.1844   45.8359 C   0  0  1  0  0  0  0  0  0  0  0  0
   18.9670   -4.5624   45.1235 C   0  0  1  0  0  0  0  0  0  0  0  0
   18.3379   -5.7254   45.9671 C   0  0  2  0  0  0  0  0  0  0  0  0
   18.8688   -3.5017   42.7231 C   0  0  0  0  0  0  0  0  0  0  0  0
   19.0774   -3.2712   51.6724 N   0  0  0  0  0  0  0  0  0  0  0  0
   18.4426   -4.5773   43.6902 N   0  0  0  0  0  0  0  0  0  0  0  0
   20.7431   -2.1588   49.4973 O   0  0  0  0  0  0  0  0  0  0  0  0
   18.8920   -2.0446   48.0296 O   0  0  0  0  0  0  0  0  0  0  0  0
   18.8139   -5.7465   47.3816 O   0  0  0  0  0  0  0  0  0  0  0  0
   17.2484   -2.9204   45.9125 O   0  0  0  0  0  0  0  0  0  0  0  0
   18.6658   -6.9322   45.3814 O   0  0  0  0  0  0  0  0  0  0  0  0
   18.0964   -8.0663   46.0571 C   0  0  2  0  0  0  0  0  0  0  0  0
   18.5828   -9.3814   45.4017 C   0  0  1  0  0  0  0  0  0  0  0  0
   18.0451   -9.5369   43.9461 C   0  0  2  0  0  0  0  0  0  0  0  0
   16.4882   -9.5046   43.9662 C   0  0  1  0  0  0  0  0  0  0  0  0
   16.0640   -8.1028   44.5729 C   0  0  1  0  0  0  0  0  0  0  0  0
   14.5478   -7.9536   44.6612 C   0  0  0  0  0  0  0  0  0  0  0  0
   15.9717   -9.6533   42.5757 N   0  0  0  0  0  0  0  0  0  0  0  0
   16.6146   -7.9946   45.9703 O   0  0  0  0  0  0  0  0  0  0  0  0
   20.0225   -9.3738   45.4468 O   0  0  0  0  0  0  0  0  0  0  0  0
   18.4897  -10.7768   43.4370 O   0  0  0  0  0  0  0  0  0  0  0  0
   14.0000   -7.9772   43.3695 O   0  0  0  0  0  0  0  0  0  0  0  0
   21.3370   -1.3142   50.4616 C   0  0  1  0  0  0  0  0  0  0  0  0
   22.8650   -1.6366   50.5158 C   0  0  1  0  0  0  0  0  0  0  0  0
   23.5272   -0.7344   51.5977 C   0  0  2  0  0  0  0  0  0  0  0  0
   23.3130    0.7751   51.2675 C   0  0  1  0  0  0  0  0  0  0  0  0
   21.7736    1.1074   51.1996 C   0  0  0  0  0  0  0  0  0  0  0  0
   21.1045    0.1913   50.0928 C   0  0  2  0  0  0  0  0  0  0  0  0
   23.9499    1.6163   52.3184 N   0  0  0  0  0  0  0  0  0  0  0  0
   19.6607    0.5123   50.0330 N   0  0  0  0  0  0  0  0  0  0  0  0
   23.0729   -3.0182   50.8637 O   0  0  0  0  0  0  0  0  0  0  0  0
   24.9114   -1.0416   51.6212 O   0  0  0  0  0  0  0  0  0  0  0  0
  1  2  1  0  0  0  0
  1 12  1  6  0  0  0
  1 13  1  0  0  0  0
  2  3  1  0  0  0  0
  2 10  1  1  0  0  0
  4  3  1  1  0  0  0
  4  5  1  0  0  0  0
  4 14  1  0  0  0  0
  5  6  1  0  0  0  0
  5 13  1  1  0  0  0
  6  7  1  0  0  0  0
  6 15  1  1  0  0  0
  7  8  1  0  0  0  0
  7 11  1  6  0  0  0
  8 14  1  0  0  0  0
  8 16  1  6  0  0  0
  9 11  1  0  0  0  0
 17 16  1  6  0  0  0
 17 18  1  0  0  0  0
 17 24  1  0  0  0  0
 18 19  1  0  0  0  0
 18 25  1  6  0  0  0
 19 20  1  0  0  0  0
 19 26  1  1  0  0  0
 20 21  1  0  0  0  0
 20 23  1  6  0  0  0
 21 22  1  1  0  0  0
 21 24  1  0  0  0  0
 22 27  1  0  0  0  0
 28 12  1  6  0  0  0
 28 29  1  0  0  0  0
 28 33  1  0  0  0  0
 29 30  1  0  0  0  0
 29 36  1  1  0  0  0
 30 31  1  0  0  0  0
 30 37  1  6  0  0  0
 31 32  1  0  0  0  0
 31 34  1  1  0  0  0
 32 33  1  0  0  0  0
 33 35  1  1  0  0  0
M  END
>  <CHROM.1>
-99.89416613,55.63195135,-178.03305753,-176.25352933,-63.70088071,173.05851900
19.28278500,-4.48196796,47.40528506,0.96760424,-0.65910174,0.30721538

>  <Name>
2oe8_lig

>  <RI>
0

>  <Rbt.Current_Directory>
/home/itssahil/PROJECTS/Mol_Feturizer/New_Systems/rnas/2oe8

>  <Rbt.Executable>
rbdock ($Id: //depot/dev/client3/rdock/2013.1/src/exe/rbdock.cxx#4 $)

>  <Rbt.Library>
libRbt.so (2013.1, Build901 2013/11/27)

>  <Rbt.Parameter_File>
/export/apps/rDock/src/rDock_2013.1_src/data/scripts/dock_solv.prm

>  <Rbt.Receptor>
prm/blind_docking_80.prm

>  <SCORE>
-17.9541

>  <SCORE.INTER>
-15.0374

>  <SCORE.INTER.CONST>
1

>  <SCORE.INTER.POLAR>
-1.70284

>  <SCORE.INTER.ROT>
6

>  <SCORE.INTER.SOLV>
16.7947

>  <SCORE.INTER.VDW>
-17.5471

>  <SCORE.INTER.norm>
-0.406416

>  <SCORE.INTRA>
-2.91669

>  <SCORE.INTRA.DIHEDRAL>
-10.6045

>  <SCORE.INTRA.DIHEDRAL.0>
16.4056

>  <SCORE.INTRA.POLAR>
0

>  <SCORE.INTRA.POLAR.0>
0

>  <SCORE.INTRA.REPUL>
0

>  <SCORE.INTRA.REPUL.0>
0

>  <SCORE.INTRA.SOLV>
0.449802

>  <SCORE.INTRA.SOLV.lig_0>
-90.9627

>  <SCORE.INTRA.VDW>
2.16067

>  <SCORE.INTRA.VDW.0>
-3.28744

>  <SCORE.INTRA.norm>
-0.0788293

>  <SCORE.RESTR>
0

>  <SCORE.RESTR.CAVITY>
0

>  <SCORE.RESTR.norm>
0

>  <SCORE.SYSTEM>
0

>  <SCORE.SYSTEM.CONST>
0

>  <SCORE.SYSTEM.DIHEDRAL>
0

>  <SCORE.SYSTEM.SOLV>
0

>  <SCORE.SYSTEM.norm>
0

>  <SCORE.heavy>
37

>  <SCORE.norm>
-0.485246

>  <RMSD>
6.598

$$$$
2oe8_lig
 OpenBabel11021811463D
libRbt.so/2013.1/901 2013/11/27
 37 40  0  0  0  0  0  0  0  0999 V2000
   19.1964   -2.3557   49.2101 C   0  0  1  0  0  0  0  0  0  0  0  0
   18.5106   -3.4942   50.0568 C   0  0  1  0  0  0  0  0  0  0  0  0
   18.9346   -4.8697   49.5010 C   0  0  0  0  0  0  0  0  0  0  0  0
   18.4579   -4.9019   48.0151 C   0  0  1  0  0  0  0  0  0  0  0  0
   19.1367   -3.7277   47.1396 C   0  0  1  0  0  0  0  0  0  0  0  0
   18.6517   -3.7410   45.6602 C   0  0  1  0  0  0  0  0  0  0  0  0
   19.0027   -5.1642   45.0619 C   0  0  1  0  0  0  0  0  0  0  0  0
   18.3604   -6.2688   45.9715 C   0  0  2  0  0  0  0  0  0  0  0  0
   18.9561   -4.2795   42.5897 C   0  0  0  0  0  0  0  0  0  0  0  0
   18.9074   -3.3892   51.4968 N   0  0  0  0  0  0  0  0  0  0  0  0
   18.5210   -5.2917   43.6193 N   0  0  0  0  0  0  0  0  0  0  0  0
   20.6257   -2.4216   49.2935 O   0  0  0  0  0  0  0  0  0  0  0  0
   18.8176   -2.4386   47.7688 O   0  0  0  0  0  0  0  0  0  0  0  0
   18.7946   -6.1791   47.3967 O   0  0  0  0  0  0  0  0  0  0  0  0
   17.2457   -3.4887   45.6767 O   0  0  0  0  0  0  0  0  0  0  0  0
   18.7171   -7.5118   45.4870 O   0  0  0  0  0  0  0  0  0  0  0  0
   17.9770   -7.9008   44.3175 C   0  0  2  0  0  0  0  0  0  0  0  0
   16.5950   -8.4689   44.7213 C   0  0  1  0  0  0  0  0  0  0  0  0
   16.7269   -9.8069   45.5114 C   0  0  2  0  0  0  0  0  0  0  0  0
   17.4876  -10.8478   44.6379 C   0  0  1  0  0  0  0  0  0  0  0  0
   18.9174  -10.2354   44.3315 C   0  0  1  0  0  0  0  0  0  0  0  0
   19.7614  -11.1621   43.4610 C   0  0  0  0  0  0  0  0  0  0  0  0
   17.6148  -12.1281   45.3910 N   0  0  0  0  0  0  0  0  0  0  0  0
   18.7384   -8.9426   43.5804 O   0  0  0  0  0  0  0  0  0  0  0  0
   15.9238   -7.4525   45.4903 O   0  0  0  0  0  0  0  0  0  0  0  0
   15.4293  -10.2839   45.7996 O   0  0  0  0  0  0  0  0  0  0  0  0
   20.0281  -12.3476   44.1627 O   0  0  0  0  0  0  0  0  0  0  0  0
   21.1755   -1.5688   50.2765 C   0  0  1  0  0  0  0  0  0  0  0  0
   22.6625   -1.9892   50.5087 C   0  0  1  0  0  0  0  0  0  0  0  0
   23.2720   -1.0773   51.6132 C   0  0  2  0  0  0  0  0  0  0  0  0
   23.2024    0.4236   51.1937 C   0  0  1  0  0  0  0  0  0  0  0  0
   21.7063    0.8539   50.9462 C   0  0  0  0  0  0  0  0  0  0  0  0
   21.0914   -0.0727   49.8168 C   0  0  2  0  0  0  0  0  0  0  0  0
   23.7857    1.2747   52.2675 N   0  0  0  0  0  0  0  0  0  0  0  0
   19.6885    0.3404   49.5881 N   0  0  0  0  0  0  0  0  0  0  0  0
   22.7331   -3.3613   50.9394 O   0  0  0  0  0  0  0  0  0  0  0  0
   24.6206   -1.4746   51.7989 O   0  0  0  0  0  0  0  0  0  0  0  0
  1  2  1  0  0  0  0
  1 12  1  6  0  0  0
  1 13  1  0  0  0  0
  2  3  1  0  0  0  0
  2 10  1  1  0  0  0
  4  3  1  1  0  0  0
  4  5  1  0  0  0  0
  4 14  1  0  0  0  0
  5  6  1  0  0  0  0
  5 13  1  1  0  0  0
  6  7  1  0  0  0  0
  6 15  1  1  0  0  0
  7  8  1  0  0  0  0
  7 11  1  6  0  0  0
  8 14  1  0  0  0  0
  8 16  1  6  0  0  0
  9 11  1  0  0  0  0
 17 16  1  1  0  0  0
 17 18  1  0  0  0  0
 17 24  1  0  0  0  0
 18 19  1  0  0  0  0
 18 25  1  1  0  0  0
 19 20  1  0  0  0  0
 19 26  1  6  0  0  0
 20 21  1  0  0  0  0
 20 23  1  1  0  0  0
 21 22  1  6  0  0  0
 21 24  1  0  0  0  0
 22 27  1  0  0  0  0
 28 12  1  6  0  0  0
 28 29  1  0  0  0  0
 28 33  1  0  0  0  0
 29 30  1  0  0  0  0
 29 36  1  1  0  0  0
 30 31  1  0  0  0  0
 30 37  1  6  0  0  0
 31 32  1  0  0  0  0
 31 34  1  1  0  0  0
 32 33  1  0  0  0  0
 33 35  1  1  0  0  0
M  END
>  <CHROM.1>
-95.63198236,55.13879722,-76.76075009,-81.37725808,-64.51201273,166.12053334
19.44954466,-5.06725498,47.38449423,1.06056363,-0.76319260,0.25006084

>  <Name>
2oe8_lig

>  <RI>
0

>  <Rbt.Current_Directory>
/home/itssahil/PROJECTS/Mol_Feturizer/New_Systems/rnas/2oe8

>  <Rbt.Executable>
rbdock ($Id: //depot/dev/client3/rdock/2013.1/src/exe/rbdock.cxx#4 $)

>  <Rbt.Library>
libRbt.so (2013.1, Build901 2013/11/27)

>  <Rbt.Parameter_File>
/export/apps/rDock/src/rDock_2013.1_src/data/scripts/dock_solv.prm

>  <Rbt.Receptor>
prm/pocket_docking_7.prm

>  <SCORE>
-16.563

>  <SCORE.INTER>
-15.8555

>  <SCORE.INTER.CONST>
1

>  <SCORE.INTER.POLAR>
-1.86812

>  <SCORE.INTER.ROT>
6

>  <SCORE.INTER.SOLV>
14.4463

>  <SCORE.INTER.VDW>
-16.7587

>  <SCORE.INTER.norm>
-0.428527

>  <SCORE.INTRA>
-0.707541

>  <SCORE.INTRA.DIHEDRAL>
-7.40636

>  <SCORE.INTRA.DIHEDRAL.0>
16.4056

>  <SCORE.INTRA.POLAR>
0

>  <SCORE.INTRA.POLAR.0>
0

>  <SCORE.INTRA.REPUL>
0

>  <SCORE.INTRA.REPUL.0>
0

>  <SCORE.INTRA.SOLV>
1.77354

>  <SCORE.INTRA.SOLV.lig_0>
-90.9627

>  <SCORE.INTRA.VDW>
2.10887

>  <SCORE.INTRA.VDW.0>
-3.28744

>  <SCORE.INTRA.norm>
-0.0191227

>  <SCORE.RESTR>
0

>  <SCORE.RESTR.CAVITY>
0

>  <SCORE.RESTR.norm>
0

>  <SCORE.SYSTEM>
0

>  <SCORE.SYSTEM.CONST>
0

>  <SCORE.SYSTEM.DIHEDRAL>
0

>  <SCORE.SYSTEM.SOLV>
0

>  <SCORE.SYSTEM.norm>
0

>  <SCORE.heavy>
37

>  <SCORE.norm>
-0.44765

>  <RMSD>
6.677

$$$$
2oe8_lig
 OpenBabel11021811463D
libRbt.so/2013.1/901 2013/11/27
 37 40  0  0  0  0  0  0  0  0999 V2000
   20.0599   -3.2543   49.1388 C   0  0  1  0  0  0  0  0  0  0  0  0
   21.1339   -3.8573   48.1557 C   0  0  1  0  0  0  0  0  0  0  0  0
   20.8606   -3.3469   46.7255 C   0  0  0  0  0  0  0  0  0  0  0  0
   19.4222   -3.8305   46.3607 C   0  0  1  0  0  0  0  0  0  0  0  0
   18.3129   -3.2371   47.3723 C   0  0  1  0  0  0  0  0  0  0  0  0
   16.8772   -3.7302   47.0267 C   0  0  1  0  0  0  0  0  0  0  0  0
   16.5734   -3.2897   45.5365 C   0  0  1  0  0  0  0  0  0  0  0  0
   17.7012   -3.8512   44.6023 C   0  0  2  0  0  0  0  0  0  0  0  0
   14.9042   -5.2494   45.0168 C   0  0  0  0  0  0  0  0  0  0  0  0
   22.5143   -3.4585   48.5773 N   0  0  0  0  0  0  0  0  0  0  0  0
   15.1968   -3.7718   45.0872 N   0  0  0  0  0  0  0  0  0  0  0  0
   20.1261   -1.8233   49.1822 O   0  0  0  0  0  0  0  0  0  0  0  0
   18.6735   -3.6367   48.7397 O   0  0  0  0  0  0  0  0  0  0  0  0
   19.0694   -3.4142   45.0082 O   0  0  0  0  0  0  0  0  0  0  0  0
   16.8705   -5.1497   47.1872 O   0  0  0  0  0  0  0  0  0  0  0  0
   17.4722   -3.4161   43.3118 O   0  0  0  0  0  0  0  0  0  0  0  0
   18.3079   -4.0622   42.3365 C   0  0  2  0  0  0  0  0  0  0  0  0
   17.7994   -3.7564   40.9070 C   0  0  1  0  0  0  0  0  0  0  0  0
   16.3997   -4.3909   40.6418 C   0  0  2  0  0  0  0  0  0  0  0  0
   16.4852   -5.9318   40.8503 C   0  0  1  0  0  0  0  0  0  0  0  0
   16.9320   -6.1696   42.3527 C   0  0  1  0  0  0  0  0  0  0  0  0
   17.0688   -7.6538   42.6801 C   0  0  0  0  0  0  0  0  0  0  0  0
   15.1482   -6.5409   40.5971 N   0  0  0  0  0  0  0  0  0  0  0  0
   18.2792   -5.5306   42.5629 O   0  0  0  0  0  0  0  0  0  0  0  0
   17.7787   -2.3237   40.7586 O   0  0  0  0  0  0  0  0  0  0  0  0
   16.0286   -4.1102   39.3084 O   0  0  0  0  0  0  0  0  0  0  0  0
   17.4886   -7.8020   44.0109 O   0  0  0  0  0  0  0  0  0  0  0  0
   20.8668   -1.3235   50.2764 C   0  0  1  0  0  0  0  0  0  0  0  0
   21.5518    0.0089   49.8325 C   0  0  1  0  0  0  0  0  0  0  0  0
   22.3976    0.5548   51.0197 C   0  0  2  0  0  0  0  0  0  0  0  0
   21.4993    0.8087   52.2696 C   0  0  1  0  0  0  0  0  0  0  0  0
   20.7951   -0.5283   52.7182 C   0  0  0  0  0  0  0  0  0  0  0  0
   19.9301   -1.0773   51.5088 C   0  0  2  0  0  0  0  0  0  0  0  0
   22.3313    1.3246   53.3919 N   0  0  0  0  0  0  0  0  0  0  0  0
   19.2697   -2.3301   51.9396 N   0  0  0  0  0  0  0  0  0  0  0  0
   22.4177   -0.2248   48.7061 O   0  0  0  0  0  0  0  0  0  0  0  0
   23.0012    1.7650   50.5932 O   0  0  0  0  0  0  0  0  0  0  0  0
  1  2  1  0  0  0  0
  1 12  1  6  0  0  0
  1 13  1  0  0  0  0
  2  3  1  0  0  0  0
  2 10  1  1  0  0  0
  4  3  1  1  0  0  0
  4  5  1  0  0  0  0
  4 14  1  0  0  0  0
  5  6  1  0  0  0  0
  5 13  1  1  0  0  0
  6  7  1  0  0  0  0
  6 15  1  6  0  0  0
  7  8  1  0  0  0  0
  7 11  1  6  0  0  0
  8 14  1  0  0  0  0
  8 16  1  6  0  0  0
  9 11  1  0  0  0  0
 17 16  1  1  0  0  0
 17 18  1  0  0  0  0
 17 24  1  0  0  0  0
 18 19  1  0  0  0  0
 18 25  1  1  0  0  0
 19 20  1  0  0  0  0
 19 26  1  6  0  0  0
 20 21  1  0  0  0  0
 20 23  1  1  0  0  0
 21 22  1  6  0  0  0
 21 24  1  0  0  0  0
 22 27  1  0  0  0  0
 28 12  1  6  0  0  0
 28 29  1  0  0  0  0
 28 33  1  0  0  0  0
 29 30  1  0  0  0  0
 29 36  1  6  0  0  0
 30 31  1  0  0  0  0
 30 37  1  6  0  0  0
 31 32  1  0  0  0  0
 31 34  1  1  0  0  0
 32 33  1  0  0  0  0
 33 35  1  1  0  0  0
M  END
>  <CHROM.1>
-97.63557935,-62.59412604,-169.64021787,168.00946588,178.92919317,147.98723168
18.84094728,-3.19235145,46.33927989,0.86632849,0.86673105,1.66553004

>  <Name>
2oe8_lig

>  <RI>
0

>  <Rbt.Current_Directory>
/home/itssahil/PROJECTS/Mol_Feturizer/New_Systems/rnas/2oe8

>  <Rbt.Executable>
rbdock ($Id: //depot/dev/client3/rdock/2013.1/src/exe/rbdock.cxx#4 $)

>  <Rbt.Library>
libRbt.so (2013.1, Build901 2013/11/27)

>  <Rbt.Parameter_File>
/export/apps/rDock/src/rDock_2013.1_src/data/scripts/dock_solv.prm

>  <Rbt.Receptor>
prm/blind_docking_80.prm

>  <SCORE>
-14.9992

>  <SCORE.INTER>
-12.6884

>  <SCORE.INTER.CONST>
1

>  <SCORE.INTER.POLAR>
-1.03836

>  <SCORE.INTER.ROT>
6

>  <SCORE.INTER.SOLV>
14.0138

>  <SCORE.INTER.VDW>
-17.269

>  <SCORE.INTER.norm>
-0.34293

>  <SCORE.INTRA>
-2.31085

>  <SCORE.INTRA.DIHEDRAL>
-6.19012

>  <SCORE.INTRA.DIHEDRAL.0>
16.4056

>  <SCORE.INTRA.POLAR>
0

>  <SCORE.INTRA.POLAR.0>
0

>  <SCORE.INTRA.REPUL>
0.00625714

>  <SCORE.INTRA.REPUL.0>
0

>  <SCORE.INTRA.SOLV>
0.0298659

>  <SCORE.INTRA.SOLV.lig_0>
-90.9627

>  <SCORE.INTRA.VDW>
0.73799

>  <SCORE.INTRA.VDW.0>
-3.28744

>  <SCORE.INTRA.norm>
-0.0624554

>  <SCORE.RESTR>
0

>  <SCORE.RESTR.CAVITY>
0

>  <SCORE.RESTR.norm>
0

>  <SCORE.SYSTEM>
0

>  <SCORE.SYSTEM.CONST>
0

>  <SCORE.SYSTEM.DIHEDRAL>
0

>  <SCORE.SYSTEM.SOLV>
0

>  <SCORE.SYSTEM.norm>
0

>  <SCORE.heavy>
37

>  <SCORE.norm>
-0.405385

>  <RMSD>
6.804

$$$$
2oe8_lig
 OpenBabel11021811463D
libRbt.so/2013.1/901 2013/11/27
 37 40  0  0  0  0  0  0  0  0999 V2000
   19.2467   -2.1916   49.0724 C   0  0  1  0  0  0  0  0  0  0  0  0
   18.4897   -3.2420   49.9708 C   0  0  1  0  0  0  0  0  0  0  0  0
   18.7954   -4.6654   49.4599 C   0  0  0  0  0  0  0  0  0  0  0  0
   18.2910   -4.7131   47.9837 C   0  0  1  0  0  0  0  0  0  0  0  0
   19.0432   -3.6277   47.0551 C   0  0  1  0  0  0  0  0  0  0  0  0
   18.5321   -3.6556   45.5848 C   0  0  1  0  0  0  0  0  0  0  0  0
   18.7606   -5.1225   45.0342 C   0  0  1  0  0  0  0  0  0  0  0  0
   18.0508   -6.1401   45.9936 C   0  0  2  0  0  0  0  0  0  0  0  0
   19.0890   -4.7847   42.4507 C   0  0  0  0  0  0  0  0  0  0  0  0
   18.9194   -3.1171   51.3998 N   0  0  0  0  0  0  0  0  0  0  0  0
   18.2445   -5.2631   43.6048 N   0  0  0  0  0  0  0  0  0  0  0  0
   20.6678   -2.3663   49.1365 O   0  0  0  0  0  0  0  0  0  0  0  0
   18.8367   -2.2960   47.6411 O   0  0  0  0  0  0  0  0  0  0  0  0
   18.5162   -6.0340   47.4078 O   0  0  0  0  0  0  0  0  0  0  0  0
   17.1505   -3.2936   45.6132 O   0  0  0  0  0  0  0  0  0  0  0  0
   18.3009   -7.4238   45.5501 O   0  0  0  0  0  0  0  0  0  0  0  0
   17.5512   -8.4265   46.2567 C   0  0  2  0  0  0  0  0  0  0  0  0
   17.7384   -9.8087   45.5858 C   0  0  1  0  0  0  0  0  0  0  0  0
   17.1140   -9.8488   44.1573 C   0  0  2  0  0  0  0  0  0  0  0  0
   15.5966   -9.5107   44.2489 C   0  0  1  0  0  0  0  0  0  0  0  0
   15.4851   -8.0555   44.8679 C   0  0  1  0  0  0  0  0  0  0  0  0
   14.0337   -7.6111   45.0253 C   0  0  0  0  0  0  0  0  0  0  0  0
   14.9974   -9.5486   42.8844 N   0  0  0  0  0  0  0  0  0  0  0  0
   16.1101   -8.0641   46.2379 O   0  0  0  0  0  0  0  0  0  0  0  0
   19.1519  -10.0849   45.5644 O   0  0  0  0  0  0  0  0  0  0  0  0
   17.2818  -11.1497   43.6340 O   0  0  0  0  0  0  0  0  0  0  0  0
   13.4325   -7.5223   43.7604 O   0  0  0  0  0  0  0  0  0  0  0  0
   21.2759   -1.6732   50.2068 C   0  0  1  0  0  0  0  0  0  0  0  0
   22.7643   -2.1387   50.3050 C   0  0  1  0  0  0  0  0  0  0  0  0
   23.4384   -1.4055   51.5012 C   0  0  2  0  0  0  0  0  0  0  0  0
   23.3761    0.1414   51.3095 C   0  0  1  0  0  0  0  0  0  0  0  0
   21.8780    0.6191   51.1982 C   0  0  0  0  0  0  0  0  0  0  0  0
   21.1971   -0.1249   49.9754 C   0  0  2  0  0  0  0  0  0  0  0  0
   24.0216    0.8192   52.4677 N   0  0  0  0  0  0  0  0  0  0  0  0
   19.7927    0.3320   49.8758 N   0  0  0  0  0  0  0  0  0  0  0  0
   22.8304   -3.5599   50.5264 O   0  0  0  0  0  0  0  0  0  0  0  0
   24.7869   -1.8400   51.5632 O   0  0  0  0  0  0  0  0  0  0  0  0
  1  2  1  0  0  0  0
  1 12  1  6  0  0  0
  1 13  1  0  0  0  0
  2  3  1  0  0  0  0
  2 10  1  1  0  0  0
  4  3  1  1  0  0  0
  4  5  1  0  0  0  0
  4 14  1  0  0  0  0
  5  6  1  0  0  0  0
  5 13  1  1  0  0  0
  6  7  1  0  0  0  0
  6 15  1  1  0  0  0
  7  8  1  0  0  0  0
  7 11  1  6  0  0  0
  8 14  1  0  0  0  0
  8 16  1  6  0  0  0
  9 11  1  0  0  0  0
 17 16  1  6  0  0  0
 17 18  1  0  0  0  0
 17 24  1  0  0  0  0
 18 19  1  0  0  0  0
 18 25  1  6  0  0  0
 19 20  1  0  0  0  0
 19 26  1  1  0  0  0
 20 21  1  0  0  0  0
 20 23  1  6  0  0  0
 21 22  1  1  0  0  0
 21 24  1  0  0  0  0
 22 27  1  0  0  0  0
 28 12  1  6  0  0  0
 28 29  1  0  0  0  0
 28 33  1  0  0  0  0
 29 30  1  0  0  0  0
 29 36  1  1  0  0  0
 30 31  1  0  0  0  0
 30 37  1  6  0  0  0
 31 32  1  0  0  0  0
 31 34  1  1  0  0  0
 32 33  1  0  0  0  0
 33 35  1  1  0  0  0
M  END
>  <CHROM.1>
-86.88605527,80.92194890,-172.28456358,172.49705862,-63.62821852,170.54097304
18.98153559,-4.81280829,47.37438472,0.89661702,-0.63217450,0.26110266

>  <Name>
2oe8_lig

>  <RI>
0

>  <Rbt.Current_Directory>
/home/itssahil/PROJECTS/Mol_Feturizer/New_Systems/rnas/2oe8

>  <Rbt.Executable>
rbdock ($Id: //depot/dev/client3/rdock/2013.1/src/exe/rbdock.cxx#4 $)

>  <Rbt.Library>
libRbt.so (2013.1, Build901 2013/11/27)

>  <Rbt.Parameter_File>
/export/apps/rDock/src/rDock_2013.1_src/data/scripts/dock_solv.prm

>  <Rbt.Receptor>
prm/blind_docking_80.prm

>  <SCORE>
-17.6506

>  <SCORE.INTER>
-13.8766

>  <SCORE.INTER.CONST>
1

>  <SCORE.INTER.POLAR>
-1.89272

>  <SCORE.INTER.ROT>
6

>  <SCORE.INTER.SOLV>
12.9556

>  <SCORE.INTER.VDW>
-14.8605

>  <SCORE.INTER.norm>
-0.375043

>  <SCORE.INTRA>
-3.774

>  <SCORE.INTRA.DIHEDRAL>
-11.9748

>  <SCORE.INTRA.DIHEDRAL.0>
16.4056

>  <SCORE.INTRA.POLAR>
0

>  <SCORE.INTRA.POLAR.0>
0

>  <SCORE.INTRA.REPUL>
0

>  <SCORE.INTRA.REPUL.0>
0

>  <SCORE.INTRA.SOLV>
1.27775

>  <SCORE.INTRA.SOLV.lig_0>
-90.9627

>  <SCORE.INTRA.VDW>
1.57453

>  <SCORE.INTRA.VDW.0>
-3.28744

>  <SCORE.INTRA.norm>
-0.102

>  <SCORE.RESTR>
0

>  <SCORE.RESTR.CAVITY>
0

>  <SCORE.RESTR.norm>
0

>  <SCORE.SYSTEM>
0

>  <SCORE.SYSTEM.CONST>
0

>  <SCORE.SYSTEM.DIHEDRAL>
0

>  <SCORE.SYSTEM.SOLV>
0

>  <SCORE.SYSTEM.norm>
0

>  <SCORE.heavy>
37

>  <SCORE.norm>
-0.477043

>  <RMSD>
6.849

$$$$
2oe8_lig
 OpenBabel11021811463D
libRbt.so/2013.1/901 2013/11/27
 37 40  0  0  0  0  0  0  0  0999 V2000
   19.3812   -2.9010   49.5786 C   0  0  1  0  0  0  0  0  0  0  0  0
   20.6019   -3.5175   48.7954 C   0  0  1  0  0  0  0  0  0  0  0  0
   20.4893   -3.1480   47.3016 C   0  0  0  0  0  0  0  0  0  0  0  0
   19.1362   -3.7490   46.8078 C   0  0  1  0  0  0  0  0  0  0  0  0
   17.8773   -3.1418   47.6156 C   0  0  1  0  0  0  0  0  0  0  0  0
   16.5249   -3.7504   47.1420 C   0  0  1  0  0  0  0  0  0  0  0  0
   16.3934   -3.4574   45.5916 C   0  0  1  0  0  0  0  0  0  0  0  0
   17.6590   -4.0251   44.8595 C   0  0  2  0  0  0  0  0  0  0  0  0
   14.4597   -3.4344   43.8148 C   0  0  0  0  0  0  0  0  0  0  0  0
   21.8945   -2.9996   49.3460 N   0  0  0  0  0  0  0  0  0  0  0  0
   15.1123   -4.0602   45.0216 N   0  0  0  0  0  0  0  0  0  0  0  0
   19.3686   -1.4701   49.4981 O   0  0  0  0  0  0  0  0  0  0  0  0
   18.0789   -3.4009   49.0480 O   0  0  0  0  0  0  0  0  0  0  0  0
   18.9397   -3.4714   45.3895 O   0  0  0  0  0  0  0  0  0  0  0  0
   16.5696   -5.1489   47.4301 O   0  0  0  0  0  0  0  0  0  0  0  0
   17.5761   -3.7160   43.5161 O   0  0  0  0  0  0  0  0  0  0  0  0
   18.3970   -4.5560   42.6870 C   0  0  2  0  0  0  0  0  0  0  0  0
   18.4320   -4.0110   41.2388 C   0  0  1  0  0  0  0  0  0  0  0  0
   17.0350   -4.1014   40.5516 C   0  0  2  0  0  0  0  0  0  0  0  0
   16.5605   -5.5847   40.5432 C   0  0  1  0  0  0  0  0  0  0  0  0
   16.4711   -6.0487   42.0564 C   0  0  1  0  0  0  0  0  0  0  0  0
   16.0282   -7.5036   42.1827 C   0  0  0  0  0  0  0  0  0  0  0  0
   15.2251   -5.6738   39.8865 N   0  0  0  0  0  0  0  0  0  0  0  0
   17.8374   -5.9327   42.6788 O   0  0  0  0  0  0  0  0  0  0  0  0
   18.9138   -2.6551   41.3045 O   0  0  0  0  0  0  0  0  0  0  0  0
   17.1598   -3.6333   39.2251 O   0  0  0  0  0  0  0  0  0  0  0  0
   15.9399   -7.8489   43.5400 O   0  0  0  0  0  0  0  0  0  0  0  0
   20.2090   -0.8423   50.4443 C   0  0  1  0  0  0  0  0  0  0  0  0
   21.0708    0.2255   49.6968 C   0  0  1  0  0  0  0  0  0  0  0  0
   22.0249    0.9038   50.7228 C   0  0  2  0  0  0  0  0  0  0  0  0
   21.2137    1.5824   51.8695 C   0  0  1  0  0  0  0  0  0  0  0  0
   20.3322    0.5143   52.6225 C   0  0  0  0  0  0  0  0  0  0  0  0
   19.3581   -0.1694   51.5757 C   0  0  2  0  0  0  0  0  0  0  0  0
   22.1476    2.2185   52.8395 N   0  0  0  0  0  0  0  0  0  0  0  0
   18.5319   -1.1676   52.2914 N   0  0  0  0  0  0  0  0  0  0  0  0
   21.8570   -0.3993   48.6649 O   0  0  0  0  0  0  0  0  0  0  0  0
   22.7887    1.8709   50.0211 O   0  0  0  0  0  0  0  0  0  0  0  0
  1  2  1  0  0  0  0
  1 12  1  6  0  0  0
  1 13  1  0  0  0  0
  2  3  1  0  0  0  0
  2 10  1  1  0  0  0
  4  3  1  1  0  0  0
  4  5  1  0  0  0  0
  4 14  1  0  0  0  0
  5  6  1  0  0  0  0
  5 13  1  1  0  0  0
  6  7  1  0  0  0  0
  6 15  1  6  0  0  0
  7  8  1  0  0  0  0
  7 11  1  6  0  0  0
  8 14  1  0  0  0  0
  8 16  1  6  0  0  0
  9 11  1  0  0  0  0
 17 16  1  1  0  0  0
 17 18  1  0  0  0  0
 17 24  1  0  0  0  0
 18 19  1  0  0  0  0
 18 25  1  1  0  0  0
 19 20  1  0  0  0  0
 19 26  1  6  0  0  0
 20 21  1  0  0  0  0
 20 23  1  1  0  0  0
 21 22  1  6  0  0  0
 21 24  1  0  0  0  0
 22 27  1  0  0  0  0
 28 12  1  6  0  0  0
 28 29  1  0  0  0  0
 28 33  1  0  0  0  0
 29 30  1  0  0  0  0
 29 36  1  6  0  0  0
 30 31  1  0  0  0  0
 30 37  1  6  0  0  0
 31 32  1  0  0  0  0
 31 34  1  1  0  0  0
 32 33  1  0  0  0  0
 33 35  1  1  0  0  0
M  END
>  <CHROM.1>
-83.10182969,152.35954072,-159.37277158,-170.86067342,-178.76211131,131.71907828
18.57339711,-2.94415961,46.36711809,1.01929051,0.77104262,1.45965418

>  <Name>
2oe8_lig

>  <RI>
0

>  <Rbt.Current_Directory>
/home/itssahil/PROJECTS/Mol_Feturizer/New_Systems/rnas/2oe8

>  <Rbt.Executable>
rbdock ($Id: //depot/dev/client3/rdock/2013.1/src/exe/rbdock.cxx#4 $)

>  <Rbt.Library>
libRbt.so (2013.1, Build901 2013/11/27)

>  <Rbt.Parameter_File>
/export/apps/rDock/src/rDock_2013.1_src/data/scripts/dock_solv.prm

>  <Rbt.Receptor>
prm/blind_docking_60.prm

>  <SCORE>
-21.8523

>  <SCORE.INTER>
-19.0799

>  <SCORE.INTER.CONST>
1

>  <SCORE.INTER.POLAR>
-2.68032

>  <SCORE.INTER.ROT>
6

>  <SCORE.INTER.SOLV>
17.0974

>  <SCORE.INTER.VDW>
-17.0847

>  <SCORE.INTER.norm>
-0.515674

>  <SCORE.INTRA>
-2.77239

>  <SCORE.INTRA.DIHEDRAL>
-4.6701

>  <SCORE.INTRA.DIHEDRAL.0>
16.4056

>  <SCORE.INTRA.POLAR>
0

>  <SCORE.INTRA.POLAR.0>
0

>  <SCORE.INTRA.REPUL>
0

>  <SCORE.INTRA.REPUL.0>
0

>  <SCORE.INTRA.SOLV>
0.632528

>  <SCORE.INTRA.SOLV.lig_0>
-90.9627

>  <SCORE.INTRA.VDW>
-0.753599

>  <SCORE.INTRA.VDW.0>
-3.28744

>  <SCORE.INTRA.norm>
-0.0749293

>  <SCORE.RESTR>
0

>  <SCORE.RESTR.CAVITY>
0

>  <SCORE.RESTR.norm>
0

>  <SCORE.SYSTEM>
0

>  <SCORE.SYSTEM.CONST>
0

>  <SCORE.SYSTEM.DIHEDRAL>
0

>  <SCORE.SYSTEM.SOLV>
0

>  <SCORE.SYSTEM.norm>
0

>  <SCORE.heavy>
37

>  <SCORE.norm>
-0.590604

>  <RMSD>
6.872

$$$$
2oe8_lig
 OpenBabel11021811463D
libRbt.so/2013.1/901 2013/11/27
 37 40  0  0  0  0  0  0  0  0999 V2000
   18.7184   -2.9188   49.6895 C   0  0  1  0  0  0  0  0  0  0  0  0
   18.6935   -4.0742   50.7610 C   0  0  1  0  0  0  0  0  0  0  0  0
   19.1650   -5.3889   50.1053 C   0  0  0  0  0  0  0  0  0  0  0  0
   18.1666   -5.6738   48.9400 C   0  0  1  0  0  0  0  0  0  0  0  0
   18.1659   -4.4882   47.8443 C   0  0  1  0  0  0  0  0  0  0  0  0
   17.1583   -4.7557   46.6880 C   0  0  1  0  0  0  0  0  0  0  0  0
   17.5588   -6.1361   46.0238 C   0  0  1  0  0  0  0  0  0  0  0  0
   17.5897   -7.2429   47.1346 C   0  0  2  0  0  0  0  0  0  0  0  0
   17.1132   -6.7084   43.4998 C   0  0  0  0  0  0  0  0  0  0  0  0
   19.5863   -3.7390   51.9154 N   0  0  0  0  0  0  0  0  0  0  0  0
   16.5943   -6.5102   44.9017 N   0  0  0  0  0  0  0  0  0  0  0  0
   20.0415   -2.6892   49.1889 O   0  0  0  0  0  0  0  0  0  0  0  0
   17.8362   -3.2290   48.5263 O   0  0  0  0  0  0  0  0  0  0  0  0
   18.5135   -6.9169   48.2606 O   0  0  0  0  0  0  0  0  0  0  0  0
   15.8529   -4.7885   47.2673 O   0  0  0  0  0  0  0  0  0  0  0  0
   17.9991   -8.4344   46.5690 O   0  0  0  0  0  0  0  0  0  0  0  0
   19.3203   -8.3726   46.0054 C   0  0  2  0  0  0  0  0  0  0  0  0
   19.6013   -9.6361   45.1567 C   0  0  1  0  0  0  0  0  0  0  0  0
   19.6568  -10.9236   46.0350 C   0  0  2  0  0  0  0  0  0  0  0  0
   20.7645  -10.7610   47.1175 C   0  0  1  0  0  0  0  0  0  0  0  0
   20.3700   -9.5012   47.9952 C   0  0  1  0  0  0  0  0  0  0  0  0
   21.3952   -9.2247   49.0913 C   0  0  0  0  0  0  0  0  0  0  0  0
   20.8197  -11.9908   47.9583 N   0  0  0  0  0  0  0  0  0  0  0  0
   20.3177   -8.2887   47.1039 O   0  0  0  0  0  0  0  0  0  0  0  0
   18.5722   -9.7129   44.1517 O   0  0  0  0  0  0  0  0  0  0  0  0
   19.9640  -12.0200   45.1995 O   0  0  0  0  0  0  0  0  0  0  0  0
   21.0012   -8.0956   49.8255 O   0  0  0  0  0  0  0  0  0  0  0  0
   20.8864   -2.0244   50.1054 C   0  0  1  0  0  0  0  0  0  0  0  0
   22.3522   -2.5021   49.8507 C   0  0  1  0  0  0  0  0  0  0  0  0
   23.2907   -1.8006   50.8755 C   0  0  2  0  0  0  0  0  0  0  0  0
   23.2042   -0.2494   50.7348 C   0  0  1  0  0  0  0  0  0  0  0  0
   21.7261    0.2408   50.9792 C   0  0  0  0  0  0  0  0  0  0  0  0
   20.7749   -0.4709   49.9299 C   0  0  2  0  0  0  0  0  0  0  0  0
   24.1055    0.3979   51.7280 N   0  0  0  0  0  0  0  0  0  0  0  0
   19.3904   -0.0024   50.1638 N   0  0  0  0  0  0  0  0  0  0  0  0
   22.4506   -3.9283   50.0221 O   0  0  0  0  0  0  0  0  0  0  0  0
   24.6124   -2.2453   50.6182 O   0  0  0  0  0  0  0  0  0  0  0  0
  1  2  1  0  0  0  0
  1 12  1  6  0  0  0
  1 13  1  0  0  0  0
  2  3  1  0  0  0  0
  2 10  1  1  0  0  0
  4  3  1  1  0  0  0
  4  5  1  0  0  0  0
  4 14  1  0  0  0  0
  5  6  1  0  0  0  0
  5 13  1  1  0  0  0
  6  7  1  0  0  0  0
  6 15  1  1  0  0  0
  7  8  1  0  0  0  0
  7 11  1  6  0  0  0
  8 14  1  0  0  0  0
  8 16  1  6  0  0  0
  9 11  1  0  0  0  0
 17 16  1  1  0  0  0
 17 18  1  0  0  0  0
 17 24  1  0  0  0  0
 18 19  1  0  0  0  0
 18 25  1  6  0  0  0
 19 20  1  0  0  0  0
 19 26  1  6  0  0  0
 20 21  1  0  0  0  0
 20 23  1  1  0  0  0
 21 22  1  1  0  0  0
 21 24  1  0  0  0  0
 22 27  1  0  0  0  0
 28 12  1  6  0  0  0
 28 29  1  0  0  0  0
 28 33  1  0  0  0  0
 29 30  1  0  0  0  0
 29 36  1  1  0  0  0
 30 31  1  0  0  0  0
 30 37  1  6  0  0  0
 31 32  1  0  0  0  0
 31 34  1  1  0  0  0
 32 33  1  0  0  0  0
 33 35  1  1  0  0  0
M  END
>  <CHROM.1>
-73.99149604,120.58140327,61.20215185,-168.96995011,179.46745807,149.37959230
19.81251685,-5.57830910,48.29688735,1.24922086,-0.52409109,0.34188415

>  <Name>
2oe8_lig

>  <RI>
0

>  <Rbt.Current_Directory>
/home/itssahil/PROJECTS/Mol_Feturizer/New_Systems/rnas/2oe8

>  <Rbt.Executable>
rbdock ($Id: //depot/dev/client3/rdock/2013.1/src/exe/rbdock.cxx#4 $)

>  <Rbt.Library>
libRbt.so (2013.1, Build901 2013/11/27)

>  <Rbt.Parameter_File>
/export/apps/rDock/src/rDock_2013.1_src/data/scripts/dock_solv.prm

>  <Rbt.Receptor>
prm/pocket_docking_7.prm

>  <SCORE>
-21.5665

>  <SCORE.INTER>
-17.8813

>  <SCORE.INTER.CONST>
1

>  <SCORE.INTER.POLAR>
-1.95106

>  <SCORE.INTER.ROT>
6

>  <SCORE.INTER.SOLV>
15.015

>  <SCORE.INTER.VDW>
-18.0223

>  <SCORE.INTER.norm>
-0.483279

>  <SCORE.INTRA>
-3.68515

>  <SCORE.INTRA.DIHEDRAL>
-9.91418

>  <SCORE.INTRA.DIHEDRAL.0>
16.4056

>  <SCORE.INTRA.POLAR>
0

>  <SCORE.INTRA.POLAR.0>
0

>  <SCORE.INTRA.REPUL>
0

>  <SCORE.INTRA.REPUL.0>
0

>  <SCORE.INTRA.SOLV>
1.87135

>  <SCORE.INTRA.SOLV.lig_0>
-90.9627

>  <SCORE.INTRA.VDW>
0.336266

>  <SCORE.INTRA.VDW.0>
-3.28744

>  <SCORE.INTRA.norm>
-0.0995987

>  <SCORE.RESTR>
0

>  <SCORE.RESTR.CAVITY>
0

>  <SCORE.RESTR.norm>
0

>  <SCORE.SYSTEM>
0

>  <SCORE.SYSTEM.CONST>
0

>  <SCORE.SYSTEM.DIHEDRAL>
0

>  <SCORE.SYSTEM.SOLV>
0

>  <SCORE.SYSTEM.norm>
0

>  <SCORE.heavy>
37

>  <SCORE.norm>
-0.582877

>  <RMSD>
7.029

$$$$
2oe8_lig
 OpenBabel11021811463D
libRbt.so/2013.1/901 2013/11/27
 37 40  0  0  0  0  0  0  0  0999 V2000
   20.6289   -4.8388   49.6565 C   0  0  1  0  0  0  0  0  0  0  0  0
   21.3976   -5.8596   48.7344 C   0  0  1  0  0  0  0  0  0  0  0  0
   21.1726   -5.4813   47.2555 C   0  0  0  0  0  0  0  0  0  0  0  0
   19.6315   -5.5530   47.0200 C   0  0  1  0  0  0  0  0  0  0  0  0
   18.8284   -4.5269   47.9730 C   0  0  1  0  0  0  0  0  0  0  0  0
   17.2885   -4.6059   47.7579 C   0  0  1  0  0  0  0  0  0  0  0  0
   17.0093   -4.2923   46.2312 C   0  0  1  0  0  0  0  0  0  0  0  0
   17.8454   -5.2837   45.3491 C   0  0  2  0  0  0  0  0  0  0  0  0
   14.7552   -5.6392   46.2739 C   0  0  0  0  0  0  0  0  0  0  0  0
   22.8633   -5.8432   49.0407 N   0  0  0  0  0  0  0  0  0  0  0  0
   15.5206   -4.3921   45.9096 N   0  0  0  0  0  0  0  0  0  0  0  0
   21.1139   -3.5011   49.4852 O   0  0  0  0  0  0  0  0  0  0  0  0
   19.1641   -4.8349   49.3702 O   0  0  0  0  0  0  0  0  0  0  0  0
   19.3094   -5.2296   45.6348 O   0  0  0  0  0  0  0  0  0  0  0  0
   16.8797   -5.9240   48.1268 O   0  0  0  0  0  0  0  0  0  0  0  0
   17.6516   -4.9718   44.0179 O   0  0  0  0  0  0  0  0  0  0  0  0
   17.9780   -6.0518   43.1268 C   0  0  2  0  0  0  0  0  0  0  0  0
   17.9450   -5.5645   41.6581 C   0  0  1  0  0  0  0  0  0  0  0  0
   16.5045   -5.1674   41.2116 C   0  0  2  0  0  0  0  0  0  0  0  0
   15.5574   -6.3921   41.3799 C   0  0  1  0  0  0  0  0  0  0  0  0
   15.5793   -6.7840   42.9159 C   0  0  1  0  0  0  0  0  0  0  0  0
   14.6944   -7.9921   43.2101 C   0  0  0  0  0  0  0  0  0  0  0  0
   14.1795   -6.0151   40.9534 N   0  0  0  0  0  0  0  0  0  0  0  0
   16.9888   -7.1469   43.3019 O   0  0  0  0  0  0  0  0  0  0  0  0
   18.8653   -4.4613   41.5536 O   0  0  0  0  0  0  0  0  0  0  0  0
   16.5492   -4.7825   39.8536 O   0  0  0  0  0  0  0  0  0  0  0  0
   14.6716   -8.2288   44.5930 O   0  0  0  0  0  0  0  0  0  0  0  0
   20.6443   -2.5985   50.4653 C   0  0  1  0  0  0  0  0  0  0  0  0
   21.6397   -2.6265   51.6694 C   0  0  1  0  0  0  0  0  0  0  0  0
   21.1172   -1.6591   52.7713 C   0  0  2  0  0  0  0  0  0  0  0  0
   20.9911   -0.2058   52.2186 C   0  0  1  0  0  0  0  0  0  0  0  0
   19.9969   -0.1697   50.9958 C   0  0  0  0  0  0  0  0  0  0  0  0
   20.5358   -1.1511   49.8739 C   0  0  2  0  0  0  0  0  0  0  0  0
   20.4849    0.6982   53.2883 N   0  0  0  0  0  0  0  0  0  0  0  0
   19.5990   -1.1081   48.7286 N   0  0  0  0  0  0  0  0  0  0  0  0
   21.7286   -3.9563   52.2143 O   0  0  0  0  0  0  0  0  0  0  0  0
   22.0405   -1.6984   53.8469 O   0  0  0  0  0  0  0  0  0  0  0  0
  1  2  1  0  0  0  0
  1 12  1  6  0  0  0
  1 13  1  0  0  0  0
  2  3  1  0  0  0  0
  2 10  1  1  0  0  0
  4  3  1  6  0  0  0
  4  5  1  0  0  0  0
  4 14  1  0  0  0  0
  5  6  1  0  0  0  0
  5 13  1  1  0  0  0
  6  7  1  0  0  0  0
  6 15  1  6  0  0  0
  7  8  1  0  0  0  0
  7 11  1  1  0  0  0
  8 14  1  0  0  0  0
  8 16  1  6  0  0  0
  9 11  1  0  0  0  0
 17 16  1  1  0  0  0
 17 18  1  0  0  0  0
 17 24  1  0  0  0  0
 18 19  1  0  0  0  0
 18 25  1  1  0  0  0
 19 20  1  0  0  0  0
 19 26  1  6  0  0  0
 20 21  1  0  0  0  0
 20 23  1  1  0  0  0
 21 22  1  6  0  0  0
 21 24  1  0  0  0  0
 22 27  1  0  0  0  0
 28 12  1  6  0  0  0
 28 29  1  0  0  0  0
 28 33  1  0  0  0  0
 29 30  1  0  0  0  0
 29 36  1  1  0  0  0
 30 31  1  0  0  0  0
 30 37  1  1  0  0  0
 31 32  1  0  0  0  0
 31 34  1  1  0  0  0
 32 33  1  0  0  0  0
 33 35  1  6  0  0  0
M  END
>  <CHROM.1>
-168.38358563,-52.88043158,-159.94530389,-171.37280379,-175.50483226,88.80751210
18.61530843,-4.45735337,46.94208076,-0.93894862,0.71701427,-2.43435419

>  <Name>
2oe8_lig

>  <RI>
0

>  <Rbt.Current_Directory>
/home/itssahil/PROJECTS/Mol_Feturizer/New_Systems/rnas/2oe8

>  <Rbt.Executable>
rbdock ($Id: //depot/dev/client3/rdock/2013.1/src/exe/rbdock.cxx#4 $)

>  <Rbt.Library>
libRbt.so (2013.1, Build901 2013/11/27)

>  <Rbt.Parameter_File>
/export/apps/rDock/src/rDock_2013.1_src/data/scripts/dock_solv.prm

>  <Rbt.Receptor>
prm/blind_docking_80.prm

>  <SCORE>
-15.0327

>  <SCORE.INTER>
-10.4398

>  <SCORE.INTER.CONST>
1

>  <SCORE.INTER.POLAR>
-1.0198

>  <SCORE.INTER.ROT>
6

>  <SCORE.INTER.SOLV>
9.96923

>  <SCORE.INTER.VDW>
-14.4836

>  <SCORE.INTER.norm>
-0.282158

>  <SCORE.INTRA>
-4.5929

>  <SCORE.INTRA.DIHEDRAL>
-10.0564

>  <SCORE.INTRA.DIHEDRAL.0>
16.4056

>  <SCORE.INTRA.POLAR>
0

>  <SCORE.INTRA.POLAR.0>
0

>  <SCORE.INTRA.REPUL>
0

>  <SCORE.INTRA.REPUL.0>
0

>  <SCORE.INTRA.SOLV>
-1.16791

>  <SCORE.INTRA.SOLV.lig_0>
-90.9627

>  <SCORE.INTRA.VDW>
1.01926

>  <SCORE.INTRA.VDW.0>
-3.28744

>  <SCORE.INTRA.norm>
-0.124132

>  <SCORE.RESTR>
0

>  <SCORE.RESTR.CAVITY>
0

>  <SCORE.RESTR.norm>
0

>  <SCORE.SYSTEM>
0

>  <SCORE.SYSTEM.CONST>
0

>  <SCORE.SYSTEM.DIHEDRAL>
0

>  <SCORE.SYSTEM.SOLV>
0

>  <SCORE.SYSTEM.norm>
0

>  <SCORE.heavy>
37

>  <SCORE.norm>
-0.40629

>  <RMSD>
7.053

$$$$
2oe8_lig
 OpenBabel11021811463D
libRbt.so/2013.1/901 2013/11/27
 37 40  0  0  0  0  0  0  0  0999 V2000
   19.0415   -3.6624   49.4262 C   0  0  1  0  0  0  0  0  0  0  0  0
   20.2250   -4.1704   48.5181 C   0  0  1  0  0  0  0  0  0  0  0  0
   20.0479   -3.6139   47.0899 C   0  0  0  0  0  0  0  0  0  0  0  0
   18.6729   -4.1512   46.5834 C   0  0  1  0  0  0  0  0  0  0  0  0
   17.4523   -3.6557   47.5164 C   0  0  1  0  0  0  0  0  0  0  0  0
   16.0787   -4.2031   47.0289 C   0  0  1  0  0  0  0  0  0  0  0  0
   15.8801   -3.7153   45.5357 C   0  0  1  0  0  0  0  0  0  0  0  0
   17.1109   -4.1813   44.6825 C   0  0  2  0  0  0  0  0  0  0  0  0
   13.9501   -3.5572   43.7618 C   0  0  0  0  0  0  0  0  0  0  0  0
   21.5419   -3.7230   49.0729 N   0  0  0  0  0  0  0  0  0  0  0  0
   14.5736   -4.2444   44.9504 N   0  0  0  0  0  0  0  0  0  0  0  0
   19.0290   -2.2330   49.5294 O   0  0  0  0  0  0  0  0  0  0  0  0
   17.7158   -4.0946   48.8939 O   0  0  0  0  0  0  0  0  0  0  0  0
   18.4150   -3.6957   45.2221 O   0  0  0  0  0  0  0  0  0  0  0  0
   16.1324   -5.6267   47.1343 O   0  0  0  0  0  0  0  0  0  0  0  0
   16.9699   -3.7038   43.3944 O   0  0  0  0  0  0  0  0  0  0  0  0
   17.8120   -4.3762   42.4427 C   0  0  2  0  0  0  0  0  0  0  0  0
   18.2081   -3.4103   41.3000 C   0  0  1  0  0  0  0  0  0  0  0  0
   16.9754   -2.9928   40.4408 C   0  0  2  0  0  0  0  0  0  0  0  0
   16.3085   -4.2671   39.8437 C   0  0  1  0  0  0  0  0  0  0  0  0
   15.8583   -5.1683   41.0678 C   0  0  1  0  0  0  0  0  0  0  0  0
   15.1994   -6.4664   40.6098 C   0  0  0  0  0  0  0  0  0  0  0  0
   15.1298   -3.8705   39.0216 N   0  0  0  0  0  0  0  0  0  0  0  0
   17.0774   -5.5351   41.8719 O   0  0  0  0  0  0  0  0  0  0  0  0
   18.8529   -2.2737   41.9060 O   0  0  0  0  0  0  0  0  0  0  0  0
   17.4238   -2.1553   39.3958 O   0  0  0  0  0  0  0  0  0  0  0  0
   13.9833   -6.1740   39.9737 O   0  0  0  0  0  0  0  0  0  0  0  0
   20.0230   -1.7187   50.3916 C   0  0  1  0  0  0  0  0  0  0  0  0
   19.9118   -0.1601   50.3874 C   0  0  1  0  0  0  0  0  0  0  0  0
   21.0225    0.4218   51.3098 C   0  0  2  0  0  0  0  0  0  0  0  0
   20.8736   -0.1187   52.7655 C   0  0  1  0  0  0  0  0  0  0  0  0
   20.9734   -1.6918   52.7782 C   0  0  0  0  0  0  0  0  0  0  0  0
   19.8370   -2.2803   51.8430 C   0  0  2  0  0  0  0  0  0  0  0  0
   21.9494    0.4473   53.6258 N   0  0  0  0  0  0  0  0  0  0  0  0
   19.9354   -3.7572   51.8636 N   0  0  0  0  0  0  0  0  0  0  0  0
   20.0924    0.3509   49.0535 O   0  0  0  0  0  0  0  0  0  0  0  0
   20.8948    1.8340   51.2934 O   0  0  0  0  0  0  0  0  0  0  0  0
  1  2  1  0  0  0  0
  1 12  1  6  0  0  0
  1 13  1  0  0  0  0
  2  3  1  0  0  0  0
  2 10  1  1  0  0  0
  4  3  1  1  0  0  0
  4  5  1  0  0  0  0
  4 14  1  0  0  0  0
  5  6  1  0  0  0  0
  5 13  1  1  0  0  0
  6  7  1  0  0  0  0
  6 15  1  6  0  0  0
  7  8  1  0  0  0  0
  7 11  1  6  0  0  0
  8 14  1  0  0  0  0
  8 16  1  6  0  0  0
  9 11  1  0  0  0  0
 17 16  1  1  0  0  0
 17 18  1  0  0  0  0
 17 24  1  0  0  0  0
 18 19  1  0  0  0  0
 18 25  1  1  0  0  0
 19 20  1  0  0  0  0
 19 26  1  6  0  0  0
 20 21  1  0  0  0  0
 20 23  1  1  0  0  0
 21 22  1  6  0  0  0
 21 24  1  0  0  0  0
 22 27  1  0  0  0  0
 28 12  1  6  0  0  0
 28 29  1  0  0  0  0
 28 33  1  0  0  0  0
 29 30  1  0  0  0  0
 29 36  1  6  0  0  0
 30 31  1  0  0  0  0
 30 37  1  1  0  0  0
 31 32  1  0  0  0  0
 31 34  1  1  0  0  0
 32 33  1  0  0  0  0
 33 35  1  6  0  0  0
M  END
>  <CHROM.1>
-75.89463598,159.13308816,-162.90330069,-149.35157538,-66.61697866,178.93288245
18.11513503,-3.12353219,46.20133965,0.91033643,0.89761102,1.80527705

>  <Name>
2oe8_lig

>  <RI>
0

>  <Rbt.Current_Directory>
/home/itssahil/PROJECTS/Mol_Feturizer/New_Systems/rnas/2oe8

>  <Rbt.Executable>
rbdock ($Id: //depot/dev/client3/rdock/2013.1/src/exe/rbdock.cxx#4 $)

>  <Rbt.Library>
libRbt.so (2013.1, Build901 2013/11/27)

>  <Rbt.Parameter_File>
/export/apps/rDock/src/rDock_2013.1_src/data/scripts/dock_solv.prm

>  <Rbt.Receptor>
prm/blind_docking_60.prm

>  <SCORE>
-16.6185

>  <SCORE.INTER>
-15.0868

>  <SCORE.INTER.CONST>
1

>  <SCORE.INTER.POLAR>
-1.41818

>  <SCORE.INTER.ROT>
6

>  <SCORE.INTER.SOLV>
13.5273

>  <SCORE.INTER.VDW>
-17.4397

>  <SCORE.INTER.norm>
-0.407751

>  <SCORE.INTRA>
-1.53174

>  <SCORE.INTRA.DIHEDRAL>
-9.62142

>  <SCORE.INTRA.DIHEDRAL.0>
16.4056

>  <SCORE.INTRA.POLAR>
0

>  <SCORE.INTRA.POLAR.0>
0

>  <SCORE.INTRA.REPUL>
0

>  <SCORE.INTRA.REPUL.0>
0

>  <SCORE.INTRA.SOLV>
2.73476

>  <SCORE.INTRA.SOLV.lig_0>
-90.9627

>  <SCORE.INTRA.VDW>
1.91159

>  <SCORE.INTRA.VDW.0>
-3.28744

>  <SCORE.INTRA.norm>
-0.0413983

>  <SCORE.RESTR>
0

>  <SCORE.RESTR.CAVITY>
0

>  <SCORE.RESTR.norm>
0

>  <SCORE.SYSTEM>
0

>  <SCORE.SYSTEM.CONST>
0

>  <SCORE.SYSTEM.DIHEDRAL>
0

>  <SCORE.SYSTEM.SOLV>
0

>  <SCORE.SYSTEM.norm>
0

>  <SCORE.heavy>
37

>  <SCORE.norm>
-0.449149

>  <RMSD>
7.099

$$$$
2oe8_lig
 OpenBabel11021811463D
libRbt.so/2013.1/901 2013/11/27
 37 40  0  0  0  0  0  0  0  0999 V2000
   20.1143   -6.0503   50.1873 C   0  0  1  0  0  0  0  0  0  0  0  0
   20.7614   -7.1411   49.2520 C   0  0  1  0  0  0  0  0  0  0  0  0
   20.3792   -6.8485   47.7861 C   0  0  0  0  0  0  0  0  0  0  0  0
   18.8206   -6.9018   47.7261 C   0  0  1  0  0  0  0  0  0  0  0  0
   18.1429   -5.8031   48.6955 C   0  0  1  0  0  0  0  0  0  0  0  0
   16.5877   -5.8624   48.6561 C   0  0  1  0  0  0  0  0  0  0  0  0
   16.1454   -5.6361   47.1527 C   0  0  1  0  0  0  0  0  0  0  0  0
   16.8643   -6.6965   46.2479 C   0  0  2  0  0  0  0  0  0  0  0  0
   13.9757   -5.3014   45.7115 C   0  0  0  0  0  0  0  0  0  0  0  0
   22.2520   -7.1371   49.3940 N   0  0  0  0  0  0  0  0  0  0  0  0
   14.6290   -5.7237   47.0033 N   0  0  0  0  0  0  0  0  0  0  0  0
   20.5964   -4.7360   49.8804 O   0  0  0  0  0  0  0  0  0  0  0  0
   18.6270   -6.0328   50.0639 O   0  0  0  0  0  0  0  0  0  0  0  0
   18.3515   -6.6562   46.3672 O   0  0  0  0  0  0  0  0  0  0  0  0
   16.2035   -7.1468   49.1494 O   0  0  0  0  0  0  0  0  0  0  0  0
   16.5286   -6.4619   44.9291 O   0  0  0  0  0  0  0  0  0  0  0  0
   16.8310   -7.5662   44.0596 C   0  0  2  0  0  0  0  0  0  0  0  0
   17.3701   -7.0497   42.7037 C   0  0  1  0  0  0  0  0  0  0  0  0
   16.2813   -6.2670   41.9074 C   0  0  2  0  0  0  0  0  0  0  0  0
   15.0541   -7.1946   41.6655 C   0  0  1  0  0  0  0  0  0  0  0  0
   14.5080   -7.6181   43.0923 C   0  0  1  0  0  0  0  0  0  0  0  0
   13.3037   -8.5498   42.9898 C   0  0  0  0  0  0  0  0  0  0  0  0
   14.0117   -6.4487   40.9041 N   0  0  0  0  0  0  0  0  0  0  0  0
   15.5953   -8.3579   43.8257 O   0  0  0  0  0  0  0  0  0  0  0  0
   18.5229   -6.2334   42.9858 O   0  0  0  0  0  0  0  0  0  0  0  0
   16.8326   -5.8730   40.6684 O   0  0  0  0  0  0  0  0  0  0  0  0
   12.2357   -7.8683   42.3865 O   0  0  0  0  0  0  0  0  0  0  0  0
   20.1687   -3.7479   50.7951 C   0  0  1  0  0  0  0  0  0  0  0  0
   21.4229   -3.2211   51.5640 C   0  0  1  0  0  0  0  0  0  0  0  0
   20.9617   -2.1533   52.5984 C   0  0  2  0  0  0  0  0  0  0  0  0
   20.2372   -0.9690   51.8870 C   0  0  1  0  0  0  0  0  0  0  0  0
   18.9764   -1.4928   51.0991 C   0  0  0  0  0  0  0  0  0  0  0  0
   19.4510   -2.5750   50.0428 C   0  0  2  0  0  0  0  0  0  0  0  0
   19.8015    0.0351   52.8968 N   0  0  0  0  0  0  0  0  0  0  0  0
   18.2621   -3.0585   49.3052 N   0  0  0  0  0  0  0  0  0  0  0  0
   22.0729   -4.3008   52.2603 O   0  0  0  0  0  0  0  0  0  0  0  0
   22.1173   -1.6878   53.2758 O   0  0  0  0  0  0  0  0  0  0  0  0
  1  2  1  0  0  0  0
  1 12  1  6  0  0  0
  1 13  1  0  0  0  0
  2  3  1  0  0  0  0
  2 10  1  6  0  0  0
  4  3  1  6  0  0  0
  4  5  1  0  0  0  0
  4 14  1  0  0  0  0
  5  6  1  0  0  0  0
  5 13  1  1  0  0  0
  6  7  1  0  0  0  0
  6 15  1  6  0  0  0
  7  8  1  0  0  0  0
  7 11  1  1  0  0  0
  8 14  1  0  0  0  0
  8 16  1  6  0  0  0
  9 11  1  0  0  0  0
 17 16  1  1  0  0  0
 17 18  1  0  0  0  0
 17 24  1  0  0  0  0
 18 19  1  0  0  0  0
 18 25  1  1  0  0  0
 19 20  1  0  0  0  0
 19 26  1  6  0  0  0
 20 21  1  0  0  0  0
 20 23  1  1  0  0  0
 21 22  1  6  0  0  0
 21 24  1  0  0  0  0
 22 27  1  0  0  0  0
 28 12  1  6  0  0  0
 28 29  1  0  0  0  0
 28 33  1  0  0  0  0
 29 30  1  0  0  0  0
 29 36  1  1  0  0  0
 30 31  1  0  0  0  0
 30 37  1  6  0  0  0
 31 32  1  0  0  0  0
 31 34  1  1  0  0  0
 32 33  1  0  0  0  0
 33 35  1  1  0  0  0
M  END
>  <CHROM.1>
-172.79449900,169.24304527,-164.28926853,-141.20499662,-64.30024069,113.62808075
17.90365878,-5.48889608,47.29910208,-0.97949545,0.46146438,-2.29470075

>  <Name>
2oe8_lig

>  <RI>
0

>  <Rbt.Current_Directory>
/home/itssahil/PROJECTS/Mol_Feturizer/New_Systems/rnas/2oe8

>  <Rbt.Executable>
rbdock ($Id: //depot/dev/client3/rdock/2013.1/src/exe/rbdock.cxx#4 $)

>  <Rbt.Library>
libRbt.so (2013.1, Build901 2013/11/27)

>  <Rbt.Parameter_File>
/export/apps/rDock/src/rDock_2013.1_src/data/scripts/dock_solv.prm

>  <Rbt.Receptor>
prm/blind_docking_100.prm

>  <SCORE>
-17.0263

>  <SCORE.INTER>
-16.3336

>  <SCORE.INTER.CONST>
1

>  <SCORE.INTER.POLAR>
-0.96417

>  <SCORE.INTER.ROT>
6

>  <SCORE.INTER.SOLV>
13.9077

>  <SCORE.INTER.VDW>
-19.911

>  <SCORE.INTER.norm>
-0.441447

>  <SCORE.INTRA>
-0.692722

>  <SCORE.INTRA.DIHEDRAL>
-2.58978

>  <SCORE.INTRA.DIHEDRAL.0>
16.4056

>  <SCORE.INTRA.POLAR>
0

>  <SCORE.INTRA.POLAR.0>
0

>  <SCORE.INTRA.REPUL>
0

>  <SCORE.INTRA.REPUL.0>
0

>  <SCORE.INTRA.SOLV>
1.16727

>  <SCORE.INTRA.SOLV.lig_0>
-90.9627

>  <SCORE.INTRA.VDW>
0.0185294

>  <SCORE.INTRA.VDW.0>
-3.28744

>  <SCORE.INTRA.norm>
-0.0187222

>  <SCORE.RESTR>
0

>  <SCORE.RESTR.CAVITY>
0

>  <SCORE.RESTR.norm>
0

>  <SCORE.SYSTEM>
0

>  <SCORE.SYSTEM.CONST>
0

>  <SCORE.SYSTEM.DIHEDRAL>
0

>  <SCORE.SYSTEM.SOLV>
0

>  <SCORE.SYSTEM.norm>
0

>  <SCORE.heavy>
37

>  <SCORE.norm>
-0.46017

>  <RMSD>
7.601

$$$$
2oe8_lig
 OpenBabel11021811463D
libRbt.so/2013.1/901 2013/11/27
 37 40  0  0  0  0  0  0  0  0999 V2000
   21.1561   -2.3197   48.1186 C   0  0  1  0  0  0  0  0  0  0  0  0
   19.8238   -1.7105   48.6994 C   0  0  1  0  0  0  0  0  0  0  0  0
   18.6618   -2.6951   48.4521 C   0  0  0  0  0  0  0  0  0  0  0  0
   18.5737   -2.8809   46.9049 C   0  0  1  0  0  0  0  0  0  0  0  0
   19.9396   -3.4853   46.2925 C   0  0  1  0  0  0  0  0  0  0  0  0
   19.8669   -3.6560   44.7467 C   0  0  1  0  0  0  0  0  0  0  0  0
   18.6404   -4.6075   44.4348 C   0  0  1  0  0  0  0  0  0  0  0  0
   17.3498   -4.0015   45.0881 C   0  0  2  0  0  0  0  0  0  0  0  0
   17.7289   -6.0127   42.4121 C   0  0  0  0  0  0  0  0  0  0  0  0
   19.9609   -1.4525   50.1680 N   0  0  0  0  0  0  0  0  0  0  0  0
   18.4575   -4.7991   42.9317 N   0  0  0  0  0  0  0  0  0  0  0  0
   21.5018   -3.5508   48.7659 O   0  0  0  0  0  0  0  0  0  0  0  0
   21.0453   -2.5876   46.6545 O   0  0  0  0  0  0  0  0  0  0  0  0
   17.4838   -3.7863   46.5590 O   0  0  0  0  0  0  0  0  0  0  0  0
   19.7006   -2.3520   44.1874 O   0  0  0  0  0  0  0  0  0  0  0  0
   16.2912   -4.8611   44.8704 O   0  0  0  0  0  0  0  0  0  0  0  0
   15.0117   -4.2737   45.1620 C   0  0  2  0  0  0  0  0  0  0  0  0
   14.0249   -5.3570   45.6601 C   0  0  1  0  0  0  0  0  0  0  0  0
   13.6872   -6.3912   44.5427 C   0  0  2  0  0  0  0  0  0  0  0  0
   13.0755   -5.6462   43.3196 C   0  0  1  0  0  0  0  0  0  0  0  0
   14.1678   -4.6138   42.8153 C   0  0  1  0  0  0  0  0  0  0  0  0
   13.6783   -3.8028   41.6188 C   0  0  0  0  0  0  0  0  0  0  0  0
   12.7516   -6.6328   42.2499 N   0  0  0  0  0  0  0  0  0  0  0  0
   14.4688   -3.6462   43.9291 O   0  0  0  0  0  0  0  0  0  0  0  0
   14.6235   -5.9830   46.8111 O   0  0  0  0  0  0  0  0  0  0  0  0
   12.7491   -7.3128   45.0574 O   0  0  0  0  0  0  0  0  0  0  0  0
   14.7353   -3.0299   41.1143 O   0  0  0  0  0  0  0  0  0  0  0  0
   22.8734   -3.8752   48.6702 C   0  0  1  0  0  0  0  0  0  0  0  0
   23.6581   -2.9735   49.6765 C   0  0  1  0  0  0  0  0  0  0  0  0
   25.1758   -3.2985   49.5589 C   0  0  2  0  0  0  0  0  0  0  0  0
   25.4462   -4.8031   49.8698 C   0  0  1  0  0  0  0  0  0  0  0  0
   24.6494   -5.7210   48.8661 C   0  0  0  0  0  0  0  0  0  0  0  0
   23.1043   -5.3914   48.9935 C   0  0  2  0  0  0  0  0  0  0  0  0
   26.9023   -5.0898   49.7455 N   0  0  0  0  0  0  0  0  0  0  0  0
   22.3637   -6.2600   48.0510 N   0  0  0  0  0  0  0  0  0  0  0  0
   23.4497   -1.5823   49.3693 O   0  0  0  0  0  0  0  0  0  0  0  0
   25.8624   -2.4732   50.4855 O   0  0  0  0  0  0  0  0  0  0  0  0
  1  2  1  0  0  0  0
  1 12  1  1  0  0  0
  1 13  1  0  0  0  0
  2  3  1  0  0  0  0
  2 10  1  1  0  0  0
  4  3  1  1  0  0  0
  4  5  1  0  0  0  0
  4 14  1  0  0  0  0
  5  6  1  0  0  0  0
  5 13  1  6  0  0  0
  6  7  1  0  0  0  0
  6 15  1  6  0  0  0
  7  8  1  0  0  0  0
  7 11  1  6  0  0  0
  8 14  1  0  0  0  0
  8 16  1  1  0  0  0
  9 11  1  0  0  0  0
 17 16  1  6  0  0  0
 17 18  1  0  0  0  0
 17 24  1  0  0  0  0
 18 19  1  0  0  0  0
 18 25  1  1  0  0  0
 19 20  1  0  0  0  0
 19 26  1  1  0  0  0
 20 21  1  0  0  0  0
 20 23  1  6  0  0  0
 21 22  1  6  0  0  0
 21 24  1  0  0  0  0
 22 27  1  0  0  0  0
 28 12  1  1  0  0  0
 28 29  1  0  0  0  0
 28 33  1  0  0  0  0
 29 30  1  0  0  0  0
 29 36  1  6  0  0  0
 30 31  1  0  0  0  0
 30 37  1  1  0  0  0
 31 32  1  0  0  0  0
 31 34  1  6  0  0  0
 32 33  1  0  0  0  0
 33 35  1  6  0  0  0
M  END
>  <CHROM.1>
-157.49192703,157.26892308,-166.95330867,-148.76213274,-172.75510008,76.13747581
18.95613489,-4.12205209,46.32322263,0.55299558,0.04016575,1.37804303

>  <Name>
2oe8_lig

>  <RI>
0

>  <Rbt.Current_Directory>
/home/itssahil/PROJECTS/Mol_Feturizer/New_Systems/rnas/2oe8

>  <Rbt.Executable>
rbdock ($Id: //depot/dev/client3/rdock/2013.1/src/exe/rbdock.cxx#4 $)

>  <Rbt.Library>
libRbt.so (2013.1, Build901 2013/11/27)

>  <Rbt.Parameter_File>
/export/apps/rDock/src/rDock_2013.1_src/data/scripts/dock_solv.prm

>  <Rbt.Receptor>
prm/blind_docking_60.prm

>  <SCORE>
-21.917

>  <SCORE.INTER>
-17.4678

>  <SCORE.INTER.CONST>
1

>  <SCORE.INTER.POLAR>
-0.878656

>  <SCORE.INTER.ROT>
6

>  <SCORE.INTER.SOLV>
10.4551

>  <SCORE.INTER.VDW>
-19.8014

>  <SCORE.INTER.norm>
-0.472103

>  <SCORE.INTRA>
-4.44916

>  <SCORE.INTRA.DIHEDRAL>
-7.72217

>  <SCORE.INTRA.DIHEDRAL.0>
16.4056

>  <SCORE.INTRA.POLAR>
0

>  <SCORE.INTRA.POLAR.0>
0

>  <SCORE.INTRA.REPUL>
0

>  <SCORE.INTRA.REPUL.0>
0

>  <SCORE.INTRA.SOLV>
-2.15593

>  <SCORE.INTRA.SOLV.lig_0>
-90.9627

>  <SCORE.INTRA.VDW>
0.489891

>  <SCORE.INTRA.VDW.0>
-3.28744

>  <SCORE.INTRA.norm>
-0.120248

>  <SCORE.RESTR>
0

>  <SCORE.RESTR.CAVITY>
0

>  <SCORE.RESTR.norm>
0

>  <SCORE.SYSTEM>
0

>  <SCORE.SYSTEM.CONST>
0

>  <SCORE.SYSTEM.DIHEDRAL>
0

>  <SCORE.SYSTEM.SOLV>
0

>  <SCORE.SYSTEM.norm>
0

>  <SCORE.heavy>
37

>  <SCORE.norm>
-0.592351

>  <RMSD>
7.649

$$$$
2oe8_lig
 OpenBabel11021811463D
libRbt.so/2013.1/901 2013/11/27
 37 40  0  0  0  0  0  0  0  0999 V2000
   19.9179   -3.6744   49.4060 C   0  0  1  0  0  0  0  0  0  0  0  0
   18.4671   -3.6845   50.0212 C   0  0  1  0  0  0  0  0  0  0  0  0
   17.6275   -4.7799   49.3313 C   0  0  0  0  0  0  0  0  0  0  0  0
   17.5984   -4.4122   47.8148 C   0  0  1  0  0  0  0  0  0  0  0  0
   19.0802   -4.3777   47.1751 C   0  0  1  0  0  0  0  0  0  0  0  0
   19.0615   -3.9929   45.6666 C   0  0  1  0  0  0  0  0  0  0  0  0
   18.1510   -5.0522   44.9213 C   0  0  1  0  0  0  0  0  0  0  0  0
   16.7409   -5.0804   45.6074 C   0  0  2  0  0  0  0  0  0  0  0  0
   19.0221   -5.3138   42.4577 C   0  0  0  0  0  0  0  0  0  0  0  0
   18.5233   -3.9464   51.4944 N   0  0  0  0  0  0  0  0  0  0  0  0
   18.0323   -4.7302   43.4341 N   0  0  0  0  0  0  0  0  0  0  0  0
   20.5928   -4.9204   49.6205 O   0  0  0  0  0  0  0  0  0  0  0  0
   19.8898   -3.4161   47.9363 O   0  0  0  0  0  0  0  0  0  0  0  0
   16.8061   -5.3823   47.0676 O   0  0  0  0  0  0  0  0  0  0  0  0
   18.5383   -2.6666   45.5778 O   0  0  0  0  0  0  0  0  0  0  0  0
   15.9655   -6.0476   44.9989 O   0  0  0  0  0  0  0  0  0  0  0  0
   14.5797   -5.9872   45.3769 C   0  0  2  0  0  0  0  0  0  0  0  0
   13.7726   -7.0790   44.6337 C   0  0  1  0  0  0  0  0  0  0  0  0
   13.7262   -6.8198   43.0965 C   0  0  2  0  0  0  0  0  0  0  0  0
   13.0909   -5.4234   42.8288 C   0  0  1  0  0  0  0  0  0  0  0  0
   14.0112   -4.3525   43.5496 C   0  0  1  0  0  0  0  0  0  0  0  0
   13.4810   -2.9324   43.3733 C   0  0  0  0  0  0  0  0  0  0  0  0
   13.0452   -5.1733   41.3598 N   0  0  0  0  0  0  0  0  0  0  0  0
   14.0342   -4.6503   45.0254 O   0  0  0  0  0  0  0  0  0  0  0  0
   14.3791   -8.3470   44.9486 O   0  0  0  0  0  0  0  0  0  0  0  0
   12.9356   -7.8257   42.4987 O   0  0  0  0  0  0  0  0  0  0  0  0
   14.3759   -2.0236   43.9584 O   0  0  0  0  0  0  0  0  0  0  0  0
   21.9891   -4.8505   49.4174 C   0  0  1  0  0  0  0  0  0  0  0  0
   22.6336   -4.2048   50.6859 C   0  0  1  0  0  0  0  0  0  0  0  0
   24.1700   -4.0926   50.4627 C   0  0  2  0  0  0  0  0  0  0  0  0
   24.7966   -5.4976   50.2038 C   0  0  1  0  0  0  0  0  0  0  0  0
   24.1442   -6.1618   48.9318 C   0  0  0  0  0  0  0  0  0  0  0  0
   22.5810   -6.2798   49.1657 C   0  0  2  0  0  0  0  0  0  0  0  0
   26.2640   -5.3631   49.9881 N   0  0  0  0  0  0  0  0  0  0  0  0
   21.9772   -6.9077   47.9688 N   0  0  0  0  0  0  0  0  0  0  0  0
   22.0929   -2.8888   50.9070 O   0  0  0  0  0  0  0  0  0  0  0  0
   24.7297   -3.5112   51.6288 O   0  0  0  0  0  0  0  0  0  0  0  0
  1  2  1  0  0  0  0
  1 12  1  6  0  0  0
  1 13  1  0  0  0  0
  2  3  1  0  0  0  0
  2 10  1  1  0  0  0
  4  3  1  1  0  0  0
  4  5  1  0  0  0  0
  4 14  1  0  0  0  0
  5  6  1  0  0  0  0
  5 13  1  1  0  0  0
  6  7  1  0  0  0  0
  6 15  1  1  0  0  0
  7  8  1  0  0  0  0
  7 11  1  6  0  0  0
  8 14  1  0  0  0  0
  8 16  1  6  0  0  0
  9 11  1  0  0  0  0
 17 16  1  6  0  0  0
 17 18  1  0  0  0  0
 17 24  1  0  0  0  0
 18 19  1  0  0  0  0
 18 25  1  6  0  0  0
 19 20  1  0  0  0  0
 19 26  1  6  0  0  0
 20 21  1  0  0  0  0
 20 23  1  6  0  0  0
 21 22  1  1  0  0  0
 21 24  1  0  0  0  0
 22 27  1  0  0  0  0
 28 12  1  1  0  0  0
 28 29  1  0  0  0  0
 28 33  1  0  0  0  0
 29 30  1  0  0  0  0
 29 36  1  6  0  0  0
 30 31  1  0  0  0  0
 30 37  1  1  0  0  0
 31 32  1  0  0  0  0
 31 34  1  6  0  0  0
 32 33  1  0  0  0  0
 33 35  1  6  0  0  0
M  END
>  <CHROM.1>
-163.98141949,90.41166998,-168.91501828,178.79205372,-176.37120556,78.84718064
18.36831242,-4.90408343,46.80589927,0.55390992,-0.33639768,0.94495614

>  <Name>
2oe8_lig

>  <RI>
0

>  <Rbt.Current_Directory>
/home/itssahil/PROJECTS/Mol_Feturizer/New_Systems/rnas/2oe8

>  <Rbt.Executable>
rbdock ($Id: //depot/dev/client3/rdock/2013.1/src/exe/rbdock.cxx#4 $)

>  <Rbt.Library>
libRbt.so (2013.1, Build901 2013/11/27)

>  <Rbt.Parameter_File>
/export/apps/rDock/src/rDock_2013.1_src/data/scripts/dock_solv.prm

>  <Rbt.Receptor>
prm/blind_docking_100.prm

>  <SCORE>
-24.3406

>  <SCORE.INTER>
-17.9266

>  <SCORE.INTER.CONST>
1

>  <SCORE.INTER.POLAR>
-1.99411

>  <SCORE.INTER.ROT>
6

>  <SCORE.INTER.SOLV>
13.0238

>  <SCORE.INTER.VDW>
-17.2452

>  <SCORE.INTER.norm>
-0.484502

>  <SCORE.INTRA>
-6.58397

>  <SCORE.INTRA.DIHEDRAL>
-12.2856

>  <SCORE.INTRA.DIHEDRAL.0>
16.4056

>  <SCORE.INTRA.POLAR>
0

>  <SCORE.INTRA.POLAR.0>
0

>  <SCORE.INTRA.REPUL>
0

>  <SCORE.INTRA.REPUL.0>
0

>  <SCORE.INTRA.SOLV>
-2.31344

>  <SCORE.INTRA.SOLV.lig_0>
-90.9627

>  <SCORE.INTRA.VDW>
0.715551

>  <SCORE.INTRA.VDW.0>
-3.28744

>  <SCORE.INTRA.norm>
-0.177945

>  <SCORE.RESTR>
0.169953

>  <SCORE.RESTR.CAVITY>
0.169953

>  <SCORE.RESTR.norm>
0.00459334

>  <SCORE.SYSTEM>
0

>  <SCORE.SYSTEM.CONST>
0

>  <SCORE.SYSTEM.DIHEDRAL>
0

>  <SCORE.SYSTEM.SOLV>
0

>  <SCORE.SYSTEM.norm>
0

>  <SCORE.heavy>
37

>  <SCORE.norm>
-0.657853

>  <RMSD>
7.720

$$$$
2oe8_lig
 OpenBabel11021811463D
libRbt.so/2013.1/901 2013/11/27
 37 40  0  0  0  0  0  0  0  0999 V2000
   20.9413   -2.5402   48.1472 C   0  0  1  0  0  0  0  0  0  0  0  0
   19.6264   -1.7846   48.5757 C   0  0  1  0  0  0  0  0  0  0  0  0
   18.4040   -2.6774   48.2769 C   0  0  0  0  0  0  0  0  0  0  0  0
   18.4292   -2.9455   46.7396 C   0  0  1  0  0  0  0  0  0  0  0  0
   19.7805   -3.7011   46.2823 C   0  0  1  0  0  0  0  0  0  0  0  0
   19.8222   -3.9554   44.7468 C   0  0  1  0  0  0  0  0  0  0  0  0
   18.5442   -4.8136   44.3764 C   0  0  1  0  0  0  0  0  0  0  0  0
   17.2643   -4.0604   44.8809 C   0  0  2  0  0  0  0  0  0  0  0  0
   18.3558   -3.9198   41.9142 C   0  0  0  0  0  0  0  0  0  0  0  0
   19.6632   -1.4536   50.0356 N   0  0  0  0  0  0  0  0  0  0  0  0
   18.4710   -5.0765   42.8747 N   0  0  0  0  0  0  0  0  0  0  0  0
   21.1174   -3.7565   48.8845 O   0  0  0  0  0  0  0  0  0  0  0  0
   20.9295   -2.8831   46.6946 O   0  0  0  0  0  0  0  0  0  0  0  0
   17.2938   -3.7716   46.3450 O   0  0  0  0  0  0  0  0  0  0  0  0
   19.8233   -2.6771   44.1091 O   0  0  0  0  0  0  0  0  0  0  0  0
   16.1534   -4.8362   44.6144 O   0  0  0  0  0  0  0  0  0  0  0  0
   14.9289   -4.0837   44.5786 C   0  0  2  0  0  0  0  0  0  0  0  0
   13.7111   -5.0383   44.6165 C   0  0  1  0  0  0  0  0  0  0  0  0
   13.6203   -5.9132   43.3287 C   0  0  2  0  0  0  0  0  0  0  0  0
   13.5217   -4.9854   42.0818 C   0  0  1  0  0  0  0  0  0  0  0  0
   14.8345   -4.0968   42.0635 C   0  0  1  0  0  0  0  0  0  0  0  0
   14.8504   -3.1251   40.8869 C   0  0  0  0  0  0  0  0  0  0  0  0
   13.4346   -5.8195   40.8493 N   0  0  0  0  0  0  0  0  0  0  0  0
   14.8837   -3.2814   43.3285 O   0  0  0  0  0  0  0  0  0  0  0  0
   13.8346   -5.8410   45.8061 O   0  0  0  0  0  0  0  0  0  0  0  0
   12.4628   -6.7174   43.4171 O   0  0  0  0  0  0  0  0  0  0  0  0
   16.0531   -2.4022   40.8942 O   0  0  0  0  0  0  0  0  0  0  0  0
   22.4262   -4.2824   48.8053 C   0  0  1  0  0  0  0  0  0  0  0  0
   23.2830   -3.6278   49.9363 C   0  0  1  0  0  0  0  0  0  0  0  0
   24.7371   -4.1751   49.8408 C   0  0  2  0  0  0  0  0  0  0  0  0
   24.7558   -5.7279   49.9897 C   0  0  1  0  0  0  0  0  0  0  0  0
   23.8845   -6.3967   48.8591 C   0  0  0  0  0  0  0  0  0  0  0  0
   22.4036   -5.8415   48.9637 C   0  0  2  0  0  0  0  0  0  0  0  0
   26.1553   -6.2270   49.8895 N   0  0  0  0  0  0  0  0  0  0  0  0
   21.5919   -6.4772   47.9015 N   0  0  0  0  0  0  0  0  0  0  0  0
   23.3077   -2.1967   49.7806 O   0  0  0  0  0  0  0  0  0  0  0  0
   25.4896   -3.5718   50.8803 O   0  0  0  0  0  0  0  0  0  0  0  0
  1  2  1  0  0  0  0
  1 12  1  1  0  0  0
  1 13  1  0  0  0  0
  2  3  1  0  0  0  0
  2 10  1  1  0  0  0
  4  3  1  1  0  0  0
  4  5  1  0  0  0  0
  4 14  1  0  0  0  0
  5  6  1  0  0  0  0
  5 13  1  6  0  0  0
  6  7  1  0  0  0  0
  6 15  1  6  0  0  0
  7  8  1  0  0  0  0
  7 11  1  6  0  0  0
  8 14  1  0  0  0  0
  8 16  1  1  0  0  0
  9 11  1  0  0  0  0
 17 16  1  6  0  0  0
 17 18  1  0  0  0  0
 17 24  1  0  0  0  0
 18 19  1  0  0  0  0
 18 25  1  1  0  0  0
 19 20  1  0  0  0  0
 19 26  1  1  0  0  0
 20 21  1  0  0  0  0
 20 23  1  6  0  0  0
 21 22  1  6  0  0  0
 21 24  1  0  0  0  0
 22 27  1  0  0  0  0
 28 12  1  1  0  0  0
 28 29  1  0  0  0  0
 28 33  1  0  0  0  0
 29 30  1  0  0  0  0
 29 36  1  6  0  0  0
 30 31  1  0  0  0  0
 30 37  1  1  0  0  0
 31 32  1  0  0  0  0
 31 34  1  6  0  0  0
 32 33  1  0  0  0  0
 33 35  1  6  0  0  0
M  END
>  <CHROM.1>
-164.06859699,-61.50234429,-158.81206028,-166.46913331,-177.86839120,87.33147828
18.85793542,-4.16369482,46.03469104,0.64825050,0.02258117,1.53723526

>  <Name>
2oe8_lig

>  <RI>
0

>  <Rbt.Current_Directory>
/home/itssahil/PROJECTS/Mol_Feturizer/New_Systems/rnas/2oe8

>  <Rbt.Executable>
rbdock ($Id: //depot/dev/client3/rdock/2013.1/src/exe/rbdock.cxx#4 $)

>  <Rbt.Library>
libRbt.so (2013.1, Build901 2013/11/27)

>  <Rbt.Parameter_File>
/export/apps/rDock/src/rDock_2013.1_src/data/scripts/dock_solv.prm

>  <Rbt.Receptor>
prm/blind_docking_80.prm

>  <SCORE>
-19.9332

>  <SCORE.INTER>
-15.7803

>  <SCORE.INTER.CONST>
1

>  <SCORE.INTER.POLAR>
-0.881971

>  <SCORE.INTER.ROT>
6

>  <SCORE.INTER.SOLV>
8.58766

>  <SCORE.INTER.VDW>
-18.0428

>  <SCORE.INTER.norm>
-0.426494

>  <SCORE.INTRA>
-4.24919

>  <SCORE.INTRA.DIHEDRAL>
-9.20483

>  <SCORE.INTRA.DIHEDRAL.0>
16.4056

>  <SCORE.INTRA.POLAR>
0

>  <SCORE.INTRA.POLAR.0>
0

>  <SCORE.INTRA.REPUL>
0

>  <SCORE.INTRA.REPUL.0>
0

>  <SCORE.INTRA.SOLV>
-1.09778

>  <SCORE.INTRA.SOLV.lig_0>
-90.9627

>  <SCORE.INTRA.VDW>
0.902116

>  <SCORE.INTRA.VDW.0>
-3.28744

>  <SCORE.INTRA.norm>
-0.114843

>  <SCORE.RESTR>
0.0963014

>  <SCORE.RESTR.CAVITY>
0.0963014

>  <SCORE.RESTR.norm>
0.00260274

>  <SCORE.SYSTEM>
0

>  <SCORE.SYSTEM.CONST>
0

>  <SCORE.SYSTEM.DIHEDRAL>
0

>  <SCORE.SYSTEM.SOLV>
0

>  <SCORE.SYSTEM.norm>
0

>  <SCORE.heavy>
37

>  <SCORE.norm>
-0.538734

>  <RMSD>
7.728

$$$$
2oe8_lig
 OpenBabel11021811463D
libRbt.so/2013.1/901 2013/11/27
 37 40  0  0  0  0  0  0  0  0999 V2000
   19.8906   -3.7170   49.4007 C   0  0  1  0  0  0  0  0  0  0  0  0
   18.4439   -3.7075   50.0256 C   0  0  1  0  0  0  0  0  0  0  0  0
   17.5910   -4.8047   49.3554 C   0  0  0  0  0  0  0  0  0  0  0  0
   17.5546   -4.4561   47.8345 C   0  0  1  0  0  0  0  0  0  0  0  0
   19.0322   -4.4417   47.1846 C   0  0  1  0  0  0  0  0  0  0  0  0
   19.0065   -4.0759   45.6715 C   0  0  1  0  0  0  0  0  0  0  0  0
   18.0824   -5.1372   44.9458 C   0  0  1  0  0  0  0  0  0  0  0  0
   16.6768   -5.1452   45.6415 C   0  0  2  0  0  0  0  0  0  0  0  0
   19.1077   -5.1297   42.5281 C   0  0  0  0  0  0  0  0  0  0  0  0
   18.5080   -3.9512   51.5017 N   0  0  0  0  0  0  0  0  0  0  0  0
   17.9563   -4.8331   43.4555 N   0  0  0  0  0  0  0  0  0  0  0  0
   20.5569   -4.9656   49.6266 O   0  0  0  0  0  0  0  0  0  0  0  0
   19.8546   -3.4770   47.9280 O   0  0  0  0  0  0  0  0  0  0  0  0
   16.7495   -5.4291   47.1051 O   0  0  0  0  0  0  0  0  0  0  0  0
   18.4933   -2.7466   45.5692 O   0  0  0  0  0  0  0  0  0  0  0  0
   15.8896   -6.1138   45.0506 O   0  0  0  0  0  0  0  0  0  0  0  0
   14.5251   -6.0923   45.5028 C   0  0  2  0  0  0  0  0  0  0  0  0
   13.7304   -7.2582   44.8667 C   0  0  1  0  0  0  0  0  0  0  0  0
   13.5887   -7.0886   43.3229 C   0  0  2  0  0  0  0  0  0  0  0  0
   12.8756   -5.7384   43.0166 C   0  0  1  0  0  0  0  0  0  0  0  0
   13.7829   -4.5896   43.6251 C   0  0  1  0  0  0  0  0  0  0  0  0
   13.1786   -3.2060   43.4028 C   0  0  0  0  0  0  0  0  0  0  0  0
   12.7387   -5.5740   41.5412 N   0  0  0  0  0  0  0  0  0  0  0  0
   13.8998   -4.8023   45.1112 O   0  0  0  0  0  0  0  0  0  0  0  0
   14.4113   -8.4789   45.2147 O   0  0  0  0  0  0  0  0  0  0  0  0
   12.8143   -8.1600   42.8261 O   0  0  0  0  0  0  0  0  0  0  0  0
   11.8842   -3.1692   43.9434 O   0  0  0  0  0  0  0  0  0  0  0  0
   21.9525   -4.9093   49.4144 C   0  0  1  0  0  0  0  0  0  0  0  0
   22.6049   -4.2106   50.6505 C   0  0  1  0  0  0  0  0  0  0  0  0
   24.1406   -4.1135   50.4157 C   0  0  2  0  0  0  0  0  0  0  0  0
   24.7616   -5.5305   50.2159 C   0  0  1  0  0  0  0  0  0  0  0  0
   24.1012   -6.2477   48.9772 C   0  0  0  0  0  0  0  0  0  0  0  0
   22.5388   -6.3502   49.2231 C   0  0  2  0  0  0  0  0  0  0  0  0
   26.2283   -5.4105   49.9880 N   0  0  0  0  0  0  0  0  0  0  0  0
   21.9275   -7.0280   48.0576 N   0  0  0  0  0  0  0  0  0  0  0  0
   22.0693   -2.8844   50.8160 O   0  0  0  0  0  0  0  0  0  0  0  0
   24.7074   -3.4833   51.5526 O   0  0  0  0  0  0  0  0  0  0  0  0
  1  2  1  0  0  0  0
  1 12  1  6  0  0  0
  1 13  1  0  0  0  0
  2  3  1  0  0  0  0
  2 10  1  1  0  0  0
  4  3  1  1  0  0  0
  4  5  1  0  0  0  0
  4 14  1  0  0  0  0
  5  6  1  0  0  0  0
  5 13  1  1  0  0  0
  6  7  1  0  0  0  0
  6 15  1  1  0  0  0
  7  8  1  0  0  0  0
  7 11  1  6  0  0  0
  8 14  1  0  0  0  0
  8 16  1  6  0  0  0
  9 11  1  0  0  0  0
 17 16  1  6  0  0  0
 17 18  1  0  0  0  0
 17 24  1  0  0  0  0
 18 19  1  0  0  0  0
 18 25  1  6  0  0  0
 19 20  1  0  0  0  0
 19 26  1  1  0  0  0
 20 21  1  0  0  0  0
 20 23  1  6  0  0  0
 21 22  1  1  0  0  0
 21 24  1  0  0  0  0
 22 27  1  0  0  0  0
 28 12  1  1  0  0  0
 28 29  1  0  0  0  0
 28 33  1  0  0  0  0
 29 30  1  0  0  0  0
 29 36  1  6  0  0  0
 30 31  1  0  0  0  0
 30 37  1  1  0  0  0
 31 32  1  0  0  0  0
 31 34  1  6  0  0  0
 32 33  1  0  0  0  0
 33 35  1  6  0  0  0
M  END
>  <CHROM.1>
-163.93253445,74.76428685,-172.71743966,-176.40873464,56.25409947,77.01485945
18.22653297,-5.03129137,46.85905596,0.55079619,-0.27156232,0.99586227

>  <Name>
2oe8_lig

>  <RI>
0

>  <Rbt.Current_Directory>
/home/itssahil/PROJECTS/Mol_Feturizer/New_Systems/rnas/2oe8

>  <Rbt.Executable>
rbdock ($Id: //depot/dev/client3/rdock/2013.1/src/exe/rbdock.cxx#4 $)

>  <Rbt.Library>
libRbt.so (2013.1, Build901 2013/11/27)

>  <Rbt.Parameter_File>
/export/apps/rDock/src/rDock_2013.1_src/data/scripts/dock_solv.prm

>  <Rbt.Receptor>
prm/blind_docking_100.prm

>  <SCORE>
-19.1828

>  <SCORE.INTER>
-12.9935

>  <SCORE.INTER.CONST>
1

>  <SCORE.INTER.POLAR>
-0.957326

>  <SCORE.INTER.ROT>
6

>  <SCORE.INTER.SOLV>
13.253

>  <SCORE.INTER.VDW>
-17.4889

>  <SCORE.INTER.norm>
-0.351174

>  <SCORE.INTRA>
-6.32489

>  <SCORE.INTRA.DIHEDRAL>
-13.2653

>  <SCORE.INTRA.DIHEDRAL.0>
16.4056

>  <SCORE.INTRA.POLAR>
0

>  <SCORE.INTRA.POLAR.0>
0

>  <SCORE.INTRA.REPUL>
0

>  <SCORE.INTRA.REPUL.0>
0

>  <SCORE.INTRA.SOLV>
-1.72804

>  <SCORE.INTRA.SOLV.lig_0>
-90.9627

>  <SCORE.INTRA.VDW>
1.1718

>  <SCORE.INTRA.VDW.0>
-3.28744

>  <SCORE.INTRA.norm>
-0.170943

>  <SCORE.RESTR>
0.135528

>  <SCORE.RESTR.CAVITY>
0.135528

>  <SCORE.RESTR.norm>
0.00366291

>  <SCORE.SYSTEM>
0

>  <SCORE.SYSTEM.CONST>
0

>  <SCORE.SYSTEM.DIHEDRAL>
0

>  <SCORE.SYSTEM.SOLV>
0

>  <SCORE.SYSTEM.norm>
0

>  <SCORE.heavy>
37

>  <SCORE.norm>
-0.518454

>  <RMSD>
7.814

$$$$
2oe8_lig
 OpenBabel11021811463D
libRbt.so/2013.1/901 2013/11/27
 37 40  0  0  0  0  0  0  0  0999 V2000
   19.6641   -5.0871   48.5896 C   0  0  1  0  0  0  0  0  0  0  0  0
   20.3644   -6.0779   47.5840 C   0  0  1  0  0  0  0  0  0  0  0  0
   20.2578   -5.5123   46.1524 C   0  0  0  0  0  0  0  0  0  0  0  0
   18.7321   -5.3820   45.8509 C   0  0  1  0  0  0  0  0  0  0  0  0
   17.9967   -4.3856   46.8865 C   0  0  1  0  0  0  0  0  0  0  0  0
   16.4704   -4.2648   46.6043 C   0  0  1  0  0  0  0  0  0  0  0  0
   16.3054   -3.7516   45.1156 C   0  0  1  0  0  0  0  0  0  0  0  0
   17.0737   -4.7255   44.1558 C   0  0  2  0  0  0  0  0  0  0  0  0
   14.4287   -2.8153   43.5351 C   0  0  0  0  0  0  0  0  0  0  0  0
   21.8056   -6.2622   47.9464 N   0  0  0  0  0  0  0  0  0  0  0  0
   14.8332   -3.6453   44.7273 N   0  0  0  0  0  0  0  0  0  0  0  0
   20.2989   -3.8022   48.5958 O   0  0  0  0  0  0  0  0  0  0  0  0
   18.2249   -4.8851   48.2495 O   0  0  0  0  0  0  0  0  0  0  0  0
   18.5184   -4.8701   44.5020 O   0  0  0  0  0  0  0  0  0  0  0  0
   15.9031   -5.5614   46.7995 O   0  0  0  0  0  0  0  0  0  0  0  0
   16.9835   -4.2456   42.8640 O   0  0  0  0  0  0  0  0  0  0  0  0
   17.5746   -5.1211   41.8889 C   0  0  2  0  0  0  0  0  0  0  0  0
   17.8205   -4.3603   40.5636 C   0  0  1  0  0  0  0  0  0  0  0  0
   16.4834   -3.9335   39.8838 C   0  0  2  0  0  0  0  0  0  0  0  0
   15.6182   -5.1990   39.6100 C   0  0  1  0  0  0  0  0  0  0  0  0
   15.3397   -5.8797   41.0144 C   0  0  1  0  0  0  0  0  0  0  0  0
   14.5068   -7.1511   40.8781 C   0  0  0  0  0  0  0  0  0  0  0  0
   14.3393   -4.7936   38.9598 N   0  0  0  0  0  0  0  0  0  0  0  0
   16.6570   -6.2623   41.6355 O   0  0  0  0  0  0  0  0  0  0  0  0
   18.6552   -3.2271   40.8704 O   0  0  0  0  0  0  0  0  0  0  0  0
   16.7891   -3.2919   38.6634 O   0  0  0  0  0  0  0  0  0  0  0  0
   14.2461   -7.6777   42.1524 O   0  0  0  0  0  0  0  0  0  0  0  0
   20.2043   -3.1297   49.8345 C   0  0  1  0  0  0  0  0  0  0  0  0
   21.2629   -3.7456   50.8048 C   0  0  1  0  0  0  0  0  0  0  0  0
   21.1482   -3.0347   52.1848 C   0  0  2  0  0  0  0  0  0  0  0  0
   21.3885   -1.5002   52.0395 C   0  0  1  0  0  0  0  0  0  0  0  0
   20.3315   -0.8717   51.0532 C   0  0  0  0  0  0  0  0  0  0  0  0
   20.4559   -1.5939   49.6478 C   0  0  2  0  0  0  0  0  0  0  0  0
   21.2681   -0.8428   53.3703 N   0  0  0  0  0  0  0  0  0  0  0  0
   19.4632   -0.9955   48.7272 N   0  0  0  0  0  0  0  0  0  0  0  0
   21.0215   -5.1543   50.9797 O   0  0  0  0  0  0  0  0  0  0  0  0
   22.1223   -3.6065   53.0422 O   0  0  0  0  0  0  0  0  0  0  0  0
  1  2  1  0  0  0  0
  1 12  1  6  0  0  0
  1 13  1  0  0  0  0
  2  3  1  0  0  0  0
  2 10  1  1  0  0  0
  4  3  1  1  0  0  0
  4  5  1  0  0  0  0
  4 14  1  0  0  0  0
  5  6  1  0  0  0  0
  5 13  1  1  0  0  0
  6  7  1  0  0  0  0
  6 15  1  6  0  0  0
  7  8  1  0  0  0  0
  7 11  1  6  0  0  0
  8 14  1  0  0  0  0
  8 16  1  6  0  0  0
  9 11  1  0  0  0  0
 17 16  1  1  0  0  0
 17 18  1  0  0  0  0
 17 24  1  0  0  0  0
 18 19  1  0  0  0  0
 18 25  1  1  0  0  0
 19 20  1  0  0  0  0
 19 26  1  6  0  0  0
 20 21  1  0  0  0  0
 20 23  1  1  0  0  0
 21 22  1  6  0  0  0
 21 24  1  0  0  0  0
 22 27  1  0  0  0  0
 28 12  1  6  0  0  0
 28 29  1  0  0  0  0
 28 33  1  0  0  0  0
 29 30  1  0  0  0  0
 29 36  1  1  0  0  0
 30 31  1  0  0  0  0
 30 37  1  1  0  0  0
 31 32  1  0  0  0  0
 31 34  1  1  0  0  0
 32 33  1  0  0  0  0
 33 35  1  6  0  0  0
M  END
>  <CHROM.1>
-150.44413262,162.15278493,-175.69988665,-163.08798009,-177.58598618,78.37196295
18.21208457,-4.25529495,45.80441999,-0.06334157,1.11661344,3.01715141

>  <Name>
2oe8_lig

>  <RI>
0

>  <Rbt.Current_Directory>
/home/itssahil/PROJECTS/Mol_Feturizer/New_Systems/rnas/2oe8

>  <Rbt.Executable>
rbdock ($Id: //depot/dev/client3/rdock/2013.1/src/exe/rbdock.cxx#4 $)

>  <Rbt.Library>
libRbt.so (2013.1, Build901 2013/11/27)

>  <Rbt.Parameter_File>
/export/apps/rDock/src/rDock_2013.1_src/data/scripts/dock_solv.prm

>  <Rbt.Receptor>
prm/blind_docking_100.prm

>  <SCORE>
-20.0925

>  <SCORE.INTER>
-14.9907

>  <SCORE.INTER.CONST>
1

>  <SCORE.INTER.POLAR>
-1.89158

>  <SCORE.INTER.ROT>
6

>  <SCORE.INTER.SOLV>
13.8681

>  <SCORE.INTER.VDW>
-15.9112

>  <SCORE.INTER.norm>
-0.405155

>  <SCORE.INTRA>
-5.10176

>  <SCORE.INTRA.DIHEDRAL>
-9.63003

>  <SCORE.INTRA.DIHEDRAL.0>
16.4056

>  <SCORE.INTRA.POLAR>
0

>  <SCORE.INTRA.POLAR.0>
0

>  <SCORE.INTRA.REPUL>
0

>  <SCORE.INTRA.REPUL.0>
0

>  <SCORE.INTRA.SOLV>
-1.98351

>  <SCORE.INTRA.SOLV.lig_0>
-90.9627

>  <SCORE.INTRA.VDW>
0.705009

>  <SCORE.INTRA.VDW.0>
-3.28744

>  <SCORE.INTRA.norm>
-0.137886

>  <SCORE.RESTR>
0

>  <SCORE.RESTR.CAVITY>
0

>  <SCORE.RESTR.norm>
0

>  <SCORE.SYSTEM>
0

>  <SCORE.SYSTEM.CONST>
0

>  <SCORE.SYSTEM.DIHEDRAL>
0

>  <SCORE.SYSTEM.SOLV>
0

>  <SCORE.SYSTEM.norm>
0

>  <SCORE.heavy>
37

>  <SCORE.norm>
-0.543041

>  <RMSD>
7.924

$$$$
2oe8_lig
 OpenBabel11021811463D
libRbt.so/2013.1/901 2013/11/27
 37 40  0  0  0  0  0  0  0  0999 V2000
   20.8849   -2.6894   47.7065 C   0  0  1  0  0  0  0  0  0  0  0  0
   19.6345   -1.8962   48.2457 C   0  0  1  0  0  0  0  0  0  0  0  0
   18.3505   -2.6916   47.9305 C   0  0  0  0  0  0  0  0  0  0  0  0
   18.3027   -2.8388   46.3775 C   0  0  1  0  0  0  0  0  0  0  0  0
   19.5884   -3.6318   45.8081 C   0  0  1  0  0  0  0  0  0  0  0  0
   19.5580   -3.7662   44.2573 C   0  0  1  0  0  0  0  0  0  0  0  0
   18.2180   -4.5184   43.8756 C   0  0  1  0  0  0  0  0  0  0  0  0
   17.0051   -3.7357   44.4890 C   0  0  2  0  0  0  0  0  0  0  0  0
   18.7475   -5.8004   41.6457 C   0  0  0  0  0  0  0  0  0  0  0  0
   19.7449   -1.6839   49.7239 N   0  0  0  0  0  0  0  0  0  0  0  0
   18.0738   -4.6577   42.3626 N   0  0  0  0  0  0  0  0  0  0  0  0
   21.0148   -3.9680   48.3407 O   0  0  0  0  0  0  0  0  0  0  0  0
   20.7989   -2.9155   46.2337 O   0  0  0  0  0  0  0  0  0  0  0  0
   17.1060   -3.5652   45.9683 O   0  0  0  0  0  0  0  0  0  0  0  0
   19.6123   -2.4438   43.7197 O   0  0  0  0  0  0  0  0  0  0  0  0
   15.8405   -4.4235   44.2102 O   0  0  0  0  0  0  0  0  0  0  0  0
   14.6928   -3.5684   44.0752 C   0  0  2  0  0  0  0  0  0  0  0  0
   13.3986   -4.4144   44.0036 C   0  0  1  0  0  0  0  0  0  0  0  0
   13.3430   -5.2797   42.7074 C   0  0  2  0  0  0  0  0  0  0  0  0
   13.4310   -4.3482   41.4624 C   0  0  1  0  0  0  0  0  0  0  0  0
   14.8121   -3.5761   41.5612 C   0  0  1  0  0  0  0  0  0  0  0  0
   15.0116   -2.6107   40.3963 C   0  0  0  0  0  0  0  0  0  0  0  0
   13.3778   -5.1732   40.2218 N   0  0  0  0  0  0  0  0  0  0  0  0
   14.8233   -2.7666   42.8309 O   0  0  0  0  0  0  0  0  0  0  0  0
   13.3510   -5.2234   45.1944 O   0  0  0  0  0  0  0  0  0  0  0  0
   12.1174   -5.9811   42.6922 O   0  0  0  0  0  0  0  0  0  0  0  0
   16.3537   -2.2034   40.3516 O   0  0  0  0  0  0  0  0  0  0  0  0
   22.3548   -4.3803   48.5149 C   0  0  1  0  0  0  0  0  0  0  0  0
   23.0265   -3.4259   49.5539 C   0  0  1  0  0  0  0  0  0  0  0  0
   24.5137   -3.8495   49.7320 C   0  0  2  0  0  0  0  0  0  0  0  0
   24.6142   -5.3267   50.2233 C   0  0  1  0  0  0  0  0  0  0  0  0
   23.9291   -6.2962   49.1863 C   0  0  0  0  0  0  0  0  0  0  0  0
   22.4137   -5.8653   49.0126 C   0  0  2  0  0  0  0  0  0  0  0  0
   26.0448   -5.7094   50.3805 N   0  0  0  0  0  0  0  0  0  0  0  0
   21.7772   -6.7827   48.0407 N   0  0  0  0  0  0  0  0  0  0  0  0
   22.9776   -2.0645   49.0875 O   0  0  0  0  0  0  0  0  0  0  0  0
   25.0963   -2.9737   50.6829 O   0  0  0  0  0  0  0  0  0  0  0  0
  1  2  1  0  0  0  0
  1 12  1  1  0  0  0
  1 13  1  0  0  0  0
  2  3  1  0  0  0  0
  2 10  1  1  0  0  0
  4  3  1  1  0  0  0
  4  5  1  0  0  0  0
  4 14  1  0  0  0  0
  5  6  1  0  0  0  0
  5 13  1  6  0  0  0
  6  7  1  0  0  0  0
  6 15  1  6  0  0  0
  7  8  1  0  0  0  0
  7 11  1  6  0  0  0
  8 14  1  0  0  0  0
  8 16  1  1  0  0  0
  9 11  1  0  0  0  0
 17 16  1  6  0  0  0
 17 18  1  0  0  0  0
 17 24  1  0  0  0  0
 18 19  1  0  0  0  0
 18 25  1  1  0  0  0
 19 20  1  0  0  0  0
 19 26  1  6  0  0  0
 20 21  1  0  0  0  0
 20 23  1  6  0  0  0
 21 22  1  6  0  0  0
 21 24  1  0  0  0  0
 22 27  1  0  0  0  0
 28 12  1  1  0  0  0
 28 29  1  0  0  0  0
 28 33  1  0  0  0  0
 29 30  1  0  0  0  0
 29 36  1  6  0  0  0
 30 31  1  0  0  0  0
 30 37  1  1  0  0  0
 31 32  1  0  0  0  0
 31 34  1  6  0  0  0
 32 33  1  0  0  0  0
 33 35  1  6  0  0  0
M  END
>  <CHROM.1>
-146.41382959,84.03461541,-149.58019957,-170.46520496,-165.86726407,67.26014276
18.72596743,-3.95890565,45.66783267,0.67056324,-0.10002415,1.43391229

>  <Name>
2oe8_lig

>  <RI>
0

>  <Rbt.Current_Directory>
/home/itssahil/PROJECTS/Mol_Feturizer/New_Systems/rnas/2oe8

>  <Rbt.Executable>
rbdock ($Id: //depot/dev/client3/rdock/2013.1/src/exe/rbdock.cxx#4 $)

>  <Rbt.Library>
libRbt.so (2013.1, Build901 2013/11/27)

>  <Rbt.Parameter_File>
/export/apps/rDock/src/rDock_2013.1_src/data/scripts/dock_solv.prm

>  <Rbt.Receptor>
prm/blind_docking_100.prm

>  <SCORE>
-21.0532

>  <SCORE.INTER>
-18.2717

>  <SCORE.INTER.CONST>
1

>  <SCORE.INTER.POLAR>
-0.986705

>  <SCORE.INTER.ROT>
6

>  <SCORE.INTER.SOLV>
11.0936

>  <SCORE.INTER.VDW>
-20.19

>  <SCORE.INTER.norm>
-0.49383

>  <SCORE.INTRA>
-2.78153

>  <SCORE.INTRA.DIHEDRAL>
-6.65545

>  <SCORE.INTRA.DIHEDRAL.0>
16.4056

>  <SCORE.INTRA.POLAR>
0

>  <SCORE.INTRA.POLAR.0>
0

>  <SCORE.INTRA.REPUL>
0

>  <SCORE.INTRA.REPUL.0>
0

>  <SCORE.INTRA.SOLV>
-1.23929

>  <SCORE.INTRA.SOLV.lig_0>
-90.9627

>  <SCORE.INTRA.VDW>
1.16584

>  <SCORE.INTRA.VDW.0>
-3.28744

>  <SCORE.INTRA.norm>
-0.0751766

>  <SCORE.RESTR>
0

>  <SCORE.RESTR.CAVITY>
0

>  <SCORE.RESTR.norm>
0

>  <SCORE.SYSTEM>
0

>  <SCORE.SYSTEM.CONST>
0

>  <SCORE.SYSTEM.DIHEDRAL>
0

>  <SCORE.SYSTEM.SOLV>
0

>  <SCORE.SYSTEM.norm>
0

>  <SCORE.heavy>
37

>  <SCORE.norm>
-0.569006

>  <RMSD>
7.929

$$$$
2oe8_lig
 OpenBabel11021811463D
libRbt.so/2013.1/901 2013/11/27
 37 40  0  0  0  0  0  0  0  0999 V2000
   18.5526   -4.0913   48.9180 C   0  0  1  0  0  0  0  0  0  0  0  0
   19.5599   -5.0177   48.1367 C   0  0  1  0  0  0  0  0  0  0  0  0
   19.4932   -4.6887   46.6307 C   0  0  0  0  0  0  0  0  0  0  0  0
   18.0191   -4.9575   46.1938 C   0  0  1  0  0  0  0  0  0  0  0  0
   16.9733   -4.0298   47.0010 C   0  0  1  0  0  0  0  0  0  0  0  0
   15.4986   -4.3054   46.5846 C   0  0  1  0  0  0  0  0  0  0  0  0
   15.3930   -4.0481   45.0259 C   0  0  1  0  0  0  0  0  0  0  0  0
   16.4575   -4.9363   44.2924 C   0  0  2  0  0  0  0  0  0  0  0  0
   13.3679   -3.4446   43.4667 C   0  0  0  0  0  0  0  0  0  0  0  0
   20.9569   -4.8124   48.6353 N   0  0  0  0  0  0  0  0  0  0  0  0
   13.9859   -4.3391   44.5116 N   0  0  0  0  0  0  0  0  0  0  0  0
   18.8872   -2.7052   48.7742 O   0  0  0  0  0  0  0  0  0  0  0  0
   17.1512   -4.2761   48.4388 O   0  0  0  0  0  0  0  0  0  0  0  0
   17.8509   -4.6941   44.7692 O   0  0  0  0  0  0  0  0  0  0  0  0
   15.2096   -5.6602   46.9338 O   0  0  0  0  0  0  0  0  0  0  0  0
   16.4096   -4.6674   42.9387 O   0  0  0  0  0  0  0  0  0  0  0  0
   17.0604   -5.6671   42.1364 C   0  0  2  0  0  0  0  0  0  0  0  0
   17.0922   -5.2275   40.6527 C   0  0  1  0  0  0  0  0  0  0  0  0
   15.6610   -5.1636   40.0365 C   0  0  2  0  0  0  0  0  0  0  0  0
   14.9863   -6.5621   40.1556 C   0  0  1  0  0  0  0  0  0  0  0  0
   14.9155   -6.9098   41.7007 C   0  0  1  0  0  0  0  0  0  0  0  0
   14.2833   -8.2760   41.9506 C   0  0  0  0  0  0  0  0  0  0  0  0
   13.6179   -6.5037   39.5669 N   0  0  0  0  0  0  0  0  0  0  0  0
   16.3163   -6.9483   42.2518 O   0  0  0  0  0  0  0  0  0  0  0  0
   17.7596   -3.9521   40.5995 O   0  0  0  0  0  0  0  0  0  0  0  0
   15.7774   -4.8048   38.6756 O   0  0  0  0  0  0  0  0  0  0  0  0
   12.9696   -8.2802   41.4572 O   0  0  0  0  0  0  0  0  0  0  0  0
   19.8928   -2.2698   49.6659 C   0  0  1  0  0  0  0  0  0  0  0  0
   20.6432   -1.0693   49.0046 C   0  0  1  0  0  0  0  0  0  0  0  0
   21.7756   -0.5995   49.9637 C   0  0  2  0  0  0  0  0  0  0  0  0
   21.1895   -0.1662   51.3430 C   0  0  1  0  0  0  0  0  0  0  0  0
   20.4207   -1.3683   52.0129 C   0  0  0  0  0  0  0  0  0  0  0  0
   19.2649   -1.8395   51.0361 C   0  0  2  0  0  0  0  0  0  0  0  0
   22.2914    0.2731   52.2433 N   0  0  0  0  0  0  0  0  0  0  0  0
   18.5461   -2.9653   51.6741 N   0  0  0  0  0  0  0  0  0  0  0  0
   21.2255   -1.4726   47.7510 O   0  0  0  0  0  0  0  0  0  0  0  0
   22.4345    0.4926   49.3439 O   0  0  0  0  0  0  0  0  0  0  0  0
  1  2  1  0  0  0  0
  1 12  1  6  0  0  0
  1 13  1  0  0  0  0
  2  3  1  0  0  0  0
  2 10  1  1  0  0  0
  4  3  1  1  0  0  0
  4  5  1  0  0  0  0
  4 14  1  0  0  0  0
  5  6  1  0  0  0  0
  5 13  1  1  0  0  0
  6  7  1  0  0  0  0
  6 15  1  6  0  0  0
  7  8  1  0  0  0  0
  7 11  1  6  0  0  0
  8 14  1  0  0  0  0
  8 16  1  6  0  0  0
  9 11  1  0  0  0  0
 17 16  1  1  0  0  0
 17 18  1  0  0  0  0
 17 24  1  0  0  0  0
 18 19  1  0  0  0  0
 18 25  1  1  0  0  0
 19 20  1  0  0  0  0
 19 26  1  6  0  0  0
 20 21  1  0  0  0  0
 20 23  1  1  0  0  0
 21 22  1  6  0  0  0
 21 24  1  0  0  0  0
 22 27  1  0  0  0  0
 28 12  1  6  0  0  0
 28 29  1  0  0  0  0
 28 33  1  0  0  0  0
 29 30  1  0  0  0  0
 29 36  1  6  0  0  0
 30 31  1  0  0  0  0
 30 37  1  6  0  0  0
 31 32  1  0  0  0  0
 31 34  1  1  0  0  0
 32 33  1  0  0  0  0
 33 35  1  1  0  0  0
M  END
>  <CHROM.1>
-82.64372661,140.70416294,-163.67461356,-174.24378915,-60.92230260,152.58805381
17.59703826,-4.06461612,45.74095965,0.93649813,0.61950018,1.51123152

>  <Name>
2oe8_lig

>  <RI>
0

>  <Rbt.Current_Directory>
/home/itssahil/PROJECTS/Mol_Feturizer/New_Systems/rnas/2oe8

>  <Rbt.Executable>
rbdock ($Id: //depot/dev/client3/rdock/2013.1/src/exe/rbdock.cxx#4 $)

>  <Rbt.Library>
libRbt.so (2013.1, Build901 2013/11/27)

>  <Rbt.Parameter_File>
/export/apps/rDock/src/rDock_2013.1_src/data/scripts/dock_solv.prm

>  <Rbt.Receptor>
prm/blind_docking_100.prm

>  <SCORE>
-21.213

>  <SCORE.INTER>
-17.3573

>  <SCORE.INTER.CONST>
1

>  <SCORE.INTER.POLAR>
-1.99912

>  <SCORE.INTER.ROT>
6

>  <SCORE.INTER.SOLV>
14.8319

>  <SCORE.INTER.VDW>
-17.4517

>  <SCORE.INTER.norm>
-0.469115

>  <SCORE.INTRA>
-3.8557

>  <SCORE.INTRA.DIHEDRAL>
-8.72456

>  <SCORE.INTRA.DIHEDRAL.0>
16.4056

>  <SCORE.INTRA.POLAR>
0

>  <SCORE.INTRA.POLAR.0>
0

>  <SCORE.INTRA.REPUL>
0

>  <SCORE.INTRA.REPUL.0>
0

>  <SCORE.INTRA.SOLV>
1.09893

>  <SCORE.INTRA.SOLV.lig_0>
-90.9627

>  <SCORE.INTRA.VDW>
-0.0428841

>  <SCORE.INTRA.VDW.0>
-3.28744

>  <SCORE.INTRA.norm>
-0.104208

>  <SCORE.RESTR>
0

>  <SCORE.RESTR.CAVITY>
0

>  <SCORE.RESTR.norm>
0

>  <SCORE.SYSTEM>
0

>  <SCORE.SYSTEM.CONST>
0

>  <SCORE.SYSTEM.DIHEDRAL>
0

>  <SCORE.SYSTEM.SOLV>
0

>  <SCORE.SYSTEM.norm>
0

>  <SCORE.heavy>
37

>  <SCORE.norm>
-0.573323

>  <RMSD>
7.985

$$$$
2oe8_lig
 OpenBabel11021811463D
libRbt.so/2013.1/901 2013/11/27
 37 40  0  0  0  0  0  0  0  0999 V2000
   20.5757   -2.6793   47.6701 C   0  0  1  0  0  0  0  0  0  0  0  0
   19.1622   -2.0777   48.0215 C   0  0  1  0  0  0  0  0  0  0  0  0
   18.0645   -3.0859   47.6225 C   0  0  0  0  0  0  0  0  0  0  0  0
   18.2200   -3.3095   46.0857 C   0  0  1  0  0  0  0  0  0  0  0  0
   19.6716   -3.9065   45.7080 C   0  0  1  0  0  0  0  0  0  0  0  0
   19.8418   -4.1146   44.1745 C   0  0  1  0  0  0  0  0  0  0  0  0
   18.6901   -5.0924   43.7009 C   0  0  1  0  0  0  0  0  0  0  0  0
   17.3066   -4.4915   44.1305 C   0  0  2  0  0  0  0  0  0  0  0  0
   18.2987   -4.2331   41.2504 C   0  0  0  0  0  0  0  0  0  0  0  0
   19.0665   -1.7830   49.4866 N   0  0  0  0  0  0  0  0  0  0  0  0
   18.7452   -5.3221   42.1930 N   0  0  0  0  0  0  0  0  0  0  0  0
   20.8312   -3.8892   48.3945 O   0  0  0  0  0  0  0  0  0  0  0  0
   20.6969   -2.9833   46.2139 O   0  0  0  0  0  0  0  0  0  0  0  0
   17.2079   -4.2397   45.5984 O   0  0  0  0  0  0  0  0  0  0  0  0
   19.7489   -2.8269   43.5629 O   0  0  0  0  0  0  0  0  0  0  0  0
   16.3049   -5.3725   43.7735 O   0  0  0  0  0  0  0  0  0  0  0  0
   15.0083   -4.7570   43.6905 C   0  0  2  0  0  0  0  0  0  0  0  0
   14.0636   -5.3484   44.7644 C   0  0  1  0  0  0  0  0  0  0  0  0
   13.7528   -6.8531   44.4975 C   0  0  2  0  0  0  0  0  0  0  0  0
   13.1058   -7.0032   43.0890 C   0  0  1  0  0  0  0  0  0  0  0  0
   14.1575   -6.4538   42.0377 C   0  0  1  0  0  0  0  0  0  0  0  0
   13.6305   -6.5322   40.6077 C   0  0  0  0  0  0  0  0  0  0  0  0
   12.8075   -8.4410   42.8315 N   0  0  0  0  0  0  0  0  0  0  0  0
   14.4339   -5.0053   42.3426 O   0  0  0  0  0  0  0  0  0  0  0  0
   14.6929   -5.1466   46.0443 O   0  0  0  0  0  0  0  0  0  0  0  0
   12.8514   -7.3042   45.4866 O   0  0  0  0  0  0  0  0  0  0  0  0
   13.5443   -7.8766   40.2146 O   0  0  0  0  0  0  0  0  0  0  0  0
   22.1994   -4.2362   48.4527 C   0  0  1  0  0  0  0  0  0  0  0  0
   22.9137   -3.2387   49.4204 C   0  0  1  0  0  0  0  0  0  0  0  0
   24.4293   -3.5902   49.4695 C   0  0  2  0  0  0  0  0  0  0  0  0
   24.6430   -5.0549   49.9620 C   0  0  1  0  0  0  0  0  0  0  0  0
   23.9162   -6.0680   48.9977 C   0  0  0  0  0  0  0  0  0  0  0  0
   22.3726   -5.7107   48.9554 C   0  0  2  0  0  0  0  0  0  0  0  0
   26.0985   -5.3683   49.9951 N   0  0  0  0  0  0  0  0  0  0  0  0
   21.6974   -6.6687   48.0511 N   0  0  0  0  0  0  0  0  0  0  0  0
   22.7592   -1.8870   48.9490 O   0  0  0  0  0  0  0  0  0  0  0  0
   25.0511   -2.6764   50.3580 O   0  0  0  0  0  0  0  0  0  0  0  0
  1  2  1  0  0  0  0
  1 12  1  1  0  0  0
  1 13  1  0  0  0  0
  2  3  1  0  0  0  0
  2 10  1  1  0  0  0
  4  3  1  1  0  0  0
  4  5  1  0  0  0  0
  4 14  1  0  0  0  0
  5  6  1  0  0  0  0
  5 13  1  6  0  0  0
  6  7  1  0  0  0  0
  6 15  1  6  0  0  0
  7  8  1  0  0  0  0
  7 11  1  6  0  0  0
  8 14  1  0  0  0  0
  8 16  1  1  0  0  0
  9 11  1  0  0  0  0
 17 16  1  6  0  0  0
 17 18  1  0  0  0  0
 17 24  1  0  0  0  0
 18 19  1  0  0  0  0
 18 25  1  1  0  0  0
 19 20  1  0  0  0  0
 19 26  1  1  0  0  0
 20 21  1  0  0  0  0
 20 23  1  6  0  0  0
 21 22  1  6  0  0  0
 21 24  1  0  0  0  0
 22 27  1  0  0  0  0
 28 12  1  1  0  0  0
 28 29  1  0  0  0  0
 28 33  1  0  0  0  0
 29 30  1  0  0  0  0
 29 36  1  6  0  0  0
 30 31  1  0  0  0  0
 30 37  1  1  0  0  0
 31 32  1  0  0  0  0
 31 34  1  6  0  0  0
 32 33  1  0  0  0  0
 33 35  1  6  0  0  0
M  END
>  <CHROM.1>
-161.04692314,-73.90201988,-159.82336856,-115.42912957,-69.11755265,71.98551529
18.63049001,-4.71284522,45.80250656,0.62411391,0.19771904,1.46453577

>  <Name>
2oe8_lig

>  <RI>
0

>  <Rbt.Current_Directory>
/home/itssahil/PROJECTS/Mol_Feturizer/New_Systems/rnas/2oe8

>  <Rbt.Executable>
rbdock ($Id: //depot/dev/client3/rdock/2013.1/src/exe/rbdock.cxx#4 $)

>  <Rbt.Library>
libRbt.so (2013.1, Build901 2013/11/27)

>  <Rbt.Parameter_File>
/export/apps/rDock/src/rDock_2013.1_src/data/scripts/dock_solv.prm

>  <Rbt.Receptor>
prm/blind_docking_100.prm

>  <SCORE>
-18.1711

>  <SCORE.INTER>
-17.1345

>  <SCORE.INTER.CONST>
1

>  <SCORE.INTER.POLAR>
-0.970876

>  <SCORE.INTER.ROT>
6

>  <SCORE.INTER.SOLV>
11.2608

>  <SCORE.INTER.VDW>
-19.5403

>  <SCORE.INTER.norm>
-0.463094

>  <SCORE.INTRA>
-1.03829

>  <SCORE.INTRA.DIHEDRAL>
-4.67263

>  <SCORE.INTRA.DIHEDRAL.0>
16.4056

>  <SCORE.INTRA.POLAR>
0

>  <SCORE.INTRA.POLAR.0>
0

>  <SCORE.INTRA.REPUL>
0

>  <SCORE.INTRA.REPUL.0>
0

>  <SCORE.INTRA.SOLV>
-1.05341

>  <SCORE.INTRA.SOLV.lig_0>
-90.9627

>  <SCORE.INTRA.VDW>
1.82473

>  <SCORE.INTRA.VDW.0>
-3.28744

>  <SCORE.INTRA.norm>
-0.028062

>  <SCORE.RESTR>
0.00168334

>  <SCORE.RESTR.CAVITY>
0.00168334

>  <SCORE.RESTR.norm>
4.54957e-05

>  <SCORE.SYSTEM>
0

>  <SCORE.SYSTEM.CONST>
0

>  <SCORE.SYSTEM.DIHEDRAL>
0

>  <SCORE.SYSTEM.SOLV>
0

>  <SCORE.SYSTEM.norm>
0

>  <SCORE.heavy>
37

>  <SCORE.norm>
-0.49111

>  <RMSD>
8.016

$$$$
2oe8_lig
 OpenBabel11021811463D
libRbt.so/2013.1/901 2013/11/27
 37 40  0  0  0  0  0  0  0  0999 V2000
   20.7047   -2.6304   47.7273 C   0  0  1  0  0  0  0  0  0  0  0  0
   19.3730   -1.9318   48.1987 C   0  0  1  0  0  0  0  0  0  0  0  0
   18.1712   -2.8325   47.8453 C   0  0  0  0  0  0  0  0  0  0  0  0
   18.2023   -3.0072   46.2947 C   0  0  1  0  0  0  0  0  0  0  0  0
   19.5703   -3.7033   45.7946 C   0  0  1  0  0  0  0  0  0  0  0  0
   19.6176   -3.8639   44.2468 C   0  0  1  0  0  0  0  0  0  0  0  0
   18.3594   -4.7270   43.8239 C   0  0  1  0  0  0  0  0  0  0  0  0
   17.0629   -4.0347   44.3710 C   0  0  2  0  0  0  0  0  0  0  0  0
   18.7662   -6.1862   41.6786 C   0  0  0  0  0  0  0  0  0  0  0  0
   19.4023   -1.6882   49.6758 N   0  0  0  0  0  0  0  0  0  0  0  0
   18.2922   -4.9010   42.3090 N   0  0  0  0  0  0  0  0  0  0  0  0
   20.9083   -3.8844   48.3906 O   0  0  0  0  0  0  0  0  0  0  0  0
   20.7006   -2.8857   46.2568 O   0  0  0  0  0  0  0  0  0  0  0  0
   17.0859   -3.8336   45.8498 O   0  0  0  0  0  0  0  0  0  0  0  0
   19.5898   -2.5499   43.6869 O   0  0  0  0  0  0  0  0  0  0  0  0
   15.9697   -4.8180   44.0570 O   0  0  0  0  0  0  0  0  0  0  0  0
   14.7284   -4.2874   44.5512 C   0  0  2  0  0  0  0  0  0  0  0  0
   13.6068   -5.3474   44.4334 C   0  0  1  0  0  0  0  0  0  0  0  0
   13.2765   -5.6787   42.9457 C   0  0  2  0  0  0  0  0  0  0  0  0
   12.8459   -4.3747   42.2113 C   0  0  1  0  0  0  0  0  0  0  0  0
   14.0679   -3.3690   42.3029 C   0  0  1  0  0  0  0  0  0  0  0  0
   13.7621   -2.0350   41.6277 C   0  0  0  0  0  0  0  0  0  0  0  0
   12.5293   -4.6888   40.7887 N   0  0  0  0  0  0  0  0  0  0  0  0
   14.3560   -3.0896   43.7542 O   0  0  0  0  0  0  0  0  0  0  0  0
   14.0417   -6.5119   45.1613 O   0  0  0  0  0  0  0  0  0  0  0  0
   12.2165   -6.6116   42.9216 O   0  0  0  0  0  0  0  0  0  0  0  0
   12.6517   -1.4415   42.2474 O   0  0  0  0  0  0  0  0  0  0  0  0
   22.2648   -4.2722   48.4647 C   0  0  1  0  0  0  0  0  0  0  0  0
   22.9991   -3.2912   49.4343 C   0  0  1  0  0  0  0  0  0  0  0  0
   24.5028   -3.6879   49.5008 C   0  0  2  0  0  0  0  0  0  0  0  0
   24.6672   -5.1556   50.0034 C   0  0  1  0  0  0  0  0  0  0  0  0
   23.9198   -6.1518   49.0371 C   0  0  0  0  0  0  0  0  0  0  0  0
   22.3882   -5.7483   48.9770 C   0  0  2  0  0  0  0  0  0  0  0  0
   26.1121   -5.5126   50.0530 N   0  0  0  0  0  0  0  0  0  0  0  0
   21.6935   -6.6906   48.0711 N   0  0  0  0  0  0  0  0  0  0  0  0
   22.8903   -1.9381   48.9540 O   0  0  0  0  0  0  0  0  0  0  0  0
   25.1429   -2.7883   50.3907 O   0  0  0  0  0  0  0  0  0  0  0  0
  1  2  1  0  0  0  0
  1 12  1  1  0  0  0
  1 13  1  0  0  0  0
  2  3  1  0  0  0  0
  2 10  1  1  0  0  0
  4  3  1  1  0  0  0
  4  5  1  0  0  0  0
  4 14  1  0  0  0  0
  5  6  1  0  0  0  0
  5 13  1  6  0  0  0
  6  7  1  0  0  0  0
  6 15  1  6  0  0  0
  7  8  1  0  0  0  0
  7 11  1  6  0  0  0
  8 14  1  0  0  0  0
  8 16  1  1  0  0  0
  9 11  1  0  0  0  0
 17 16  1  6  0  0  0
 17 18  1  0  0  0  0
 17 24  1  0  0  0  0
 18 19  1  0  0  0  0
 18 25  1  1  0  0  0
 19 20  1  0  0  0  0
 19 26  1  1  0  0  0
 20 21  1  0  0  0  0
 20 23  1  6  0  0  0
 21 22  1  6  0  0  0
 21 24  1  0  0  0  0
 22 27  1  0  0  0  0
 28 12  1  1  0  0  0
 28 29  1  0  0  0  0
 28 33  1  0  0  0  0
 29 30  1  0  0  0  0
 29 36  1  6  0  0  0
 30 31  1  0  0  0  0
 30 37  1  1  0  0  0
 31 32  1  0  0  0  0
 31 34  1  6  0  0  0
 32 33  1  0  0  0  0
 33 35  1  6  0  0  0
M  END
>  <CHROM.1>
-154.63180724,100.40602945,178.29289757,-167.88041193,59.72491934,68.41936177
18.51510470,-4.04570976,45.81346806,0.25996844,-0.54341324,0.43075576

>  <Name>
2oe8_lig

>  <RI>
0

>  <Rbt.Current_Directory>
/home/itssahil/PROJECTS/Mol_Feturizer/New_Systems/rnas/2oe8

>  <Rbt.Executable>
rbdock ($Id: //depot/dev/client3/rdock/2013.1/src/exe/rbdock.cxx#4 $)

>  <Rbt.Library>
libRbt.so (2013.1, Build901 2013/11/27)

>  <Rbt.Parameter_File>
/export/apps/rDock/src/rDock_2013.1_src/data/scripts/dock_solv.prm

>  <Rbt.Receptor>
prm/blind_docking_100.prm

>  <SCORE>
-24.3746

>  <SCORE.INTER>
-19.702

>  <SCORE.INTER.CONST>
1

>  <SCORE.INTER.POLAR>
-1

>  <SCORE.INTER.ROT>
6

>  <SCORE.INTER.SOLV>
11.0653

>  <SCORE.INTER.VDW>
-21.0898

>  <SCORE.INTER.norm>
-0.532487

>  <SCORE.INTRA>
-4.69438

>  <SCORE.INTRA.DIHEDRAL>
-11.6503

>  <SCORE.INTRA.DIHEDRAL.0>
16.4056

>  <SCORE.INTRA.POLAR>
0

>  <SCORE.INTRA.POLAR.0>
0

>  <SCORE.INTRA.REPUL>
0

>  <SCORE.INTRA.REPUL.0>
0

>  <SCORE.INTRA.SOLV>
-1.89865

>  <SCORE.INTRA.SOLV.lig_0>
-90.9627

>  <SCORE.INTRA.VDW>
2.0801

>  <SCORE.INTRA.VDW.0>
-3.28744

>  <SCORE.INTRA.norm>
-0.126875

>  <SCORE.RESTR>
0.0218336

>  <SCORE.RESTR.CAVITY>
0.0218336

>  <SCORE.RESTR.norm>
0.000590097

>  <SCORE.SYSTEM>
0

>  <SCORE.SYSTEM.CONST>
0

>  <SCORE.SYSTEM.DIHEDRAL>
0

>  <SCORE.SYSTEM.SOLV>
0

>  <SCORE.SYSTEM.norm>
0

>  <SCORE.heavy>
37

>  <SCORE.norm>
-0.658772

>  <RMSD>
8.056

$$$$
2oe8_lig
 OpenBabel11021811463D
libRbt.so/2013.1/901 2013/11/27
 37 40  0  0  0  0  0  0  0  0999 V2000
   20.6591   -2.6881   47.6482 C   0  0  1  0  0  0  0  0  0  0  0  0
   19.3079   -2.0289   48.1207 C   0  0  1  0  0  0  0  0  0  0  0  0
   18.1301   -2.9507   47.7417 C   0  0  0  0  0  0  0  0  0  0  0  0
   18.1775   -3.0972   46.1886 C   0  0  1  0  0  0  0  0  0  0  0  0
   19.5652   -3.7525   45.6877 C   0  0  1  0  0  0  0  0  0  0  0  0
   19.6284   -3.8846   44.1377 C   0  0  1  0  0  0  0  0  0  0  0  0
   18.3940   -4.7689   43.6894 C   0  0  1  0  0  0  0  0  0  0  0  0
   17.0774   -4.1165   44.2379 C   0  0  2  0  0  0  0  0  0  0  0  0
   18.7989   -6.2019   41.5262 C   0  0  0  0  0  0  0  0  0  0  0  0
   19.3199   -1.8109   49.6022 N   0  0  0  0  0  0  0  0  0  0  0  0
   18.3426   -4.9175   42.1713 N   0  0  0  0  0  0  0  0  0  0  0  0
   20.8866   -3.9486   48.2911 O   0  0  0  0  0  0  0  0  0  0  0  0
   20.6724   -2.9173   46.1735 O   0  0  0  0  0  0  0  0  0  0  0  0
   17.0841   -3.9412   45.7201 O   0  0  0  0  0  0  0  0  0  0  0  0
   19.5744   -2.5619   43.6008 O   0  0  0  0  0  0  0  0  0  0  0  0
   16.0053   -4.9192   43.9011 O   0  0  0  0  0  0  0  0  0  0  0  0
   14.7910   -4.5631   44.5836 C   0  0  2  0  0  0  0  0  0  0  0  0
   13.6852   -5.6056   44.2906 C   0  0  1  0  0  0  0  0  0  0  0  0
   13.2588   -5.5920   42.7906 C   0  0  2  0  0  0  0  0  0  0  0  0
   12.7523   -4.1688   42.4122 C   0  0  1  0  0  0  0  0  0  0  0  0
   13.9576   -3.1695   42.6606 C   0  0  1  0  0  0  0  0  0  0  0  0
   13.5792   -1.7265   42.3389 C   0  0  0  0  0  0  0  0  0  0  0  0
   12.3438   -4.1533   40.9785 N   0  0  0  0  0  0  0  0  0  0  0  0
   14.3404   -3.2265   44.1158 O   0  0  0  0  0  0  0  0  0  0  0  0
   14.1927   -6.8915   44.6953 O   0  0  0  0  0  0  0  0  0  0  0  0
   12.2184   -6.5306   42.6146 O   0  0  0  0  0  0  0  0  0  0  0  0
   13.3394   -1.6023   40.9619 O   0  0  0  0  0  0  0  0  0  0  0  0
   22.2518   -4.3016   48.3783 C   0  0  1  0  0  0  0  0  0  0  0  0
   22.9375   -3.3437   49.4050 C   0  0  1  0  0  0  0  0  0  0  0  0
   24.4502   -3.7012   49.4876 C   0  0  2  0  0  0  0  0  0  0  0  0
   24.6459   -5.1842   49.9303 C   0  0  1  0  0  0  0  0  0  0  0  0
   23.9476   -6.1578   48.9061 C   0  0  0  0  0  0  0  0  0  0  0  0
   22.4067   -5.7946   48.8296 C   0  0  2  0  0  0  0  0  0  0  0  0
   26.0991   -5.5029   49.9964 N   0  0  0  0  0  0  0  0  0  0  0  0
   21.7582   -6.7155   47.8691 N   0  0  0  0  0  0  0  0  0  0  0  0
   22.8000   -1.9746   48.9809 O   0  0  0  0  0  0  0  0  0  0  0  0
   25.0456   -2.8237   50.4290 O   0  0  0  0  0  0  0  0  0  0  0  0
  1  2  1  0  0  0  0
  1 12  1  1  0  0  0
  1 13  1  0  0  0  0
  2  3  1  0  0  0  0
  2 10  1  1  0  0  0
  4  3  1  1  0  0  0
  4  5  1  0  0  0  0
  4 14  1  0  0  0  0
  5  6  1  0  0  0  0
  5 13  1  6  0  0  0
  6  7  1  0  0  0  0
  6 15  1  6  0  0  0
  7  8  1  0  0  0  0
  7 11  1  6  0  0  0
  8 14  1  0  0  0  0
  8 16  1  1  0  0  0
  9 11  1  0  0  0  0
 17 16  1  6  0  0  0
 17 18  1  0  0  0  0
 17 24  1  0  0  0  0
 18 19  1  0  0  0  0
 18 25  1  6  0  0  0
 19 20  1  0  0  0  0
 19 26  1  1  0  0  0
 20 21  1  0  0  0  0
 20 23  1  6  0  0  0
 21 22  1  1  0  0  0
 21 24  1  0  0  0  0
 22 27  1  0  0  0  0
 28 12  1  1  0  0  0
 28 29  1  0  0  0  0
 28 33  1  0  0  0  0
 29 30  1  0  0  0  0
 29 36  1  6  0  0  0
 30 31  1  0  0  0  0
 30 37  1  1  0  0  0
 31 32  1  0  0  0  0
 31 34  1  6  0  0  0
 32 33  1  0  0  0  0
 33 35  1  6  0  0  0
M  END
>  <CHROM.1>
-154.19197326,102.90451590,167.97387839,-173.09027668,-66.22234850,69.86845676
18.51761563,-4.07723602,45.72773222,0.23963086,-0.55840763,0.39794630

>  <Name>
2oe8_lig

>  <RI>
0

>  <Rbt.Current_Directory>
/home/itssahil/PROJECTS/Mol_Feturizer/New_Systems/rnas/2oe8

>  <Rbt.Executable>
rbdock ($Id: //depot/dev/client3/rdock/2013.1/src/exe/rbdock.cxx#4 $)

>  <Rbt.Library>
libRbt.so (2013.1, Build901 2013/11/27)

>  <Rbt.Parameter_File>
/export/apps/rDock/src/rDock_2013.1_src/data/scripts/dock_solv.prm

>  <Rbt.Receptor>
prm/blind_docking_100.prm

>  <SCORE>
-26.0265

>  <SCORE.INTER>
-22.2524

>  <SCORE.INTER.CONST>
1

>  <SCORE.INTER.POLAR>
-1.64047

>  <SCORE.INTER.ROT>
6

>  <SCORE.INTER.SOLV>
11.0731

>  <SCORE.INTER.VDW>
-20.6577

>  <SCORE.INTER.norm>
-0.601415

>  <SCORE.INTRA>
-3.77892

>  <SCORE.INTRA.DIHEDRAL>
-11.0396

>  <SCORE.INTRA.DIHEDRAL.0>
16.4056

>  <SCORE.INTRA.POLAR>
0

>  <SCORE.INTRA.POLAR.0>
0

>  <SCORE.INTRA.REPUL>
0

>  <SCORE.INTRA.REPUL.0>
0

>  <SCORE.INTRA.SOLV>
-1.49252

>  <SCORE.INTRA.SOLV.lig_0>
-90.9627

>  <SCORE.INTRA.VDW>
2.48715

>  <SCORE.INTRA.VDW.0>
-3.28744

>  <SCORE.INTRA.norm>
-0.102133

>  <SCORE.RESTR>
0.00479853

>  <SCORE.RESTR.CAVITY>
0.00479853

>  <SCORE.RESTR.norm>
0.00012969

>  <SCORE.SYSTEM>
0

>  <SCORE.SYSTEM.CONST>
0

>  <SCORE.SYSTEM.DIHEDRAL>
0

>  <SCORE.SYSTEM.SOLV>
0

>  <SCORE.SYSTEM.norm>
0

>  <SCORE.heavy>
37

>  <SCORE.norm>
-0.703419

>  <RMSD>
8.125

$$$$
2oe8_lig
 OpenBabel11021811463D
libRbt.so/2013.1/901 2013/11/27
 37 40  0  0  0  0  0  0  0  0999 V2000
   19.4781   -5.4859   48.6246 C   0  0  1  0  0  0  0  0  0  0  0  0
   20.0207   -6.6236   47.6787 C   0  0  1  0  0  0  0  0  0  0  0  0
   19.9675   -6.1390   46.2148 C   0  0  0  0  0  0  0  0  0  0  0  0
   18.4685   -5.8212   45.9182 C   0  0  1  0  0  0  0  0  0  0  0  0
   17.8924   -4.6714   46.8939 C   0  0  1  0  0  0  0  0  0  0  0  0
   16.3919   -4.3618   46.6173 C   0  0  1  0  0  0  0  0  0  0  0  0
   16.2727   -3.9247   45.1002 C   0  0  1  0  0  0  0  0  0  0  0  0
   16.8858   -5.0520   44.1984 C   0  0  2  0  0  0  0  0  0  0  0  0
   14.5133   -2.8500   43.4736 C   0  0  0  0  0  0  0  0  0  0  0  0
   21.4296   -6.9794   48.0401 N   0  0  0  0  0  0  0  0  0  0  0  0
   14.8221   -3.6433   44.7182 N   0  0  0  0  0  0  0  0  0  0  0  0
   20.2810   -4.3016   48.5432 O   0  0  0  0  0  0  0  0  0  0  0  0
   18.0740   -5.1115   48.2842 O   0  0  0  0  0  0  0  0  0  0  0  0
   18.3032   -5.3701   44.5412 O   0  0  0  0  0  0  0  0  0  0  0  0
   15.6578   -5.5544   46.8998 O   0  0  0  0  0  0  0  0  0  0  0  0
   16.8394   -4.6457   42.8794 O   0  0  0  0  0  0  0  0  0  0  0  0
   17.3307   -5.6366   41.9609 C   0  0  2  0  0  0  0  0  0  0  0  0
   17.7091   -4.9778   40.6124 C   0  0  1  0  0  0  0  0  0  0  0  0
   16.4587   -4.4083   39.8747 C   0  0  2  0  0  0  0  0  0  0  0  0
   15.4377   -5.5582   39.6291 C   0  0  1  0  0  0  0  0  0  0  0  0
   15.0359   -6.1297   41.0522 C   0  0  1  0  0  0  0  0  0  0  0  0
   14.0428   -7.2835   40.9452 C   0  0  0  0  0  0  0  0  0  0  0  0
   14.2413   -5.0162   38.9237 N   0  0  0  0  0  0  0  0  0  0  0  0
   16.2741   -6.6556   41.7288 O   0  0  0  0  0  0  0  0  0  0  0  0
   18.6811   -3.9532   40.8957 O   0  0  0  0  0  0  0  0  0  0  0  0
   16.8776   -3.8705   38.6379 O   0  0  0  0  0  0  0  0  0  0  0  0
   12.8306   -6.8094   40.4210 O   0  0  0  0  0  0  0  0  0  0  0  0
   20.4472   -3.6438   49.7823 C   0  0  1  0  0  0  0  0  0  0  0  0
   21.7821   -2.8333   49.7278 C   0  0  1  0  0  0  0  0  0  0  0  0
   21.9939   -2.1281   51.0992 C   0  0  2  0  0  0  0  0  0  0  0  0
   20.8037   -1.1723   51.4207 C   0  0  1  0  0  0  0  0  0  0  0  0
   19.4506   -1.9797   51.4667 C   0  0  0  0  0  0  0  0  0  0  0  0
   19.2356   -2.6910   50.0667 C   0  0  2  0  0  0  0  0  0  0  0  0
   21.0268   -0.5148   52.7382 N   0  0  0  0  0  0  0  0  0  0  0  0
   17.9617   -3.4432   50.1172 N   0  0  0  0  0  0  0  0  0  0  0  0
   22.8925   -3.7146   49.4754 O   0  0  0  0  0  0  0  0  0  0  0  0
   23.2058   -1.3959   51.0203 O   0  0  0  0  0  0  0  0  0  0  0  0
  1  2  1  0  0  0  0
  1 12  1  6  0  0  0
  1 13  1  0  0  0  0
  2  3  1  0  0  0  0
  2 10  1  1  0  0  0
  4  3  1  1  0  0  0
  4  5  1  0  0  0  0
  4 14  1  0  0  0  0
  5  6  1  0  0  0  0
  5 13  1  1  0  0  0
  6  7  1  0  0  0  0
  6 15  1  6  0  0  0
  7  8  1  0  0  0  0
  7 11  1  6  0  0  0
  8 14  1  0  0  0  0
  8 16  1  6  0  0  0
  9 11  1  0  0  0  0
 17 16  1  1  0  0  0
 17 18  1  0  0  0  0
 17 24  1  0  0  0  0
 18 19  1  0  0  0  0
 18 25  1  1  0  0  0
 19 20  1  0  0  0  0
 19 26  1  6  0  0  0
 20 21  1  0  0  0  0
 20 23  1  1  0  0  0
 21 22  1  6  0  0  0
 21 24  1  0  0  0  0
 22 27  1  0  0  0  0
 28 12  1  6  0  0  0
 28 29  1  0  0  0  0
 28 33  1  0  0  0  0
 29 30  1  0  0  0  0
 29 36  1  1  0  0  0
 30 31  1  0  0  0  0
 30 37  1  6  0  0  0
 31 32  1  0  0  0  0
 31 34  1  1  0  0  0
 32 33  1  0  0  0  0
 33 35  1  1  0  0  0
M  END
>  <CHROM.1>
-142.34638143,162.57205253,-177.60313495,-160.49866702,-65.48110724,154.28161031
18.07038750,-4.44920928,45.63564166,-1.07360670,0.01837083,-1.83385386

>  <Name>
2oe8_lig

>  <RI>
0

>  <Rbt.Current_Directory>
/home/itssahil/PROJECTS/Mol_Feturizer/New_Systems/rnas/2oe8

>  <Rbt.Executable>
rbdock ($Id: //depot/dev/client3/rdock/2013.1/src/exe/rbdock.cxx#4 $)

>  <Rbt.Library>
libRbt.so (2013.1, Build901 2013/11/27)

>  <Rbt.Parameter_File>
/export/apps/rDock/src/rDock_2013.1_src/data/scripts/dock_solv.prm

>  <Rbt.Receptor>
prm/blind_docking_60.prm

>  <SCORE>
-16.9599

>  <SCORE.INTER>
-14.9085

>  <SCORE.INTER.CONST>
1

>  <SCORE.INTER.POLAR>
-1.85123

>  <SCORE.INTER.ROT>
6

>  <SCORE.INTER.SOLV>
11.5655

>  <SCORE.INTER.VDW>
-15.2234

>  <SCORE.INTER.norm>
-0.402932

>  <SCORE.INTRA>
-2.05147

>  <SCORE.INTRA.DIHEDRAL>
-6.48349

>  <SCORE.INTRA.DIHEDRAL.0>
16.4056

>  <SCORE.INTRA.POLAR>
0

>  <SCORE.INTRA.POLAR.0>
0

>  <SCORE.INTRA.REPUL>
0

>  <SCORE.INTRA.REPUL.0>
0

>  <SCORE.INTRA.SOLV>
0.631429

>  <SCORE.INTRA.SOLV.lig_0>
-90.9627

>  <SCORE.INTRA.VDW>
0.874562

>  <SCORE.INTRA.VDW.0>
-3.28744

>  <SCORE.INTRA.norm>
-0.0554451

>  <SCORE.RESTR>
0

>  <SCORE.RESTR.CAVITY>
0

>  <SCORE.RESTR.norm>
0

>  <SCORE.SYSTEM>
0

>  <SCORE.SYSTEM.CONST>
0

>  <SCORE.SYSTEM.DIHEDRAL>
0

>  <SCORE.SYSTEM.SOLV>
0

>  <SCORE.SYSTEM.norm>
0

>  <SCORE.heavy>
37

>  <SCORE.norm>
-0.458377

>  <RMSD>
8.166

$$$$
2oe8_lig
 OpenBabel11021811463D
libRbt.so/2013.1/901 2013/11/27
 37 40  0  0  0  0  0  0  0  0999 V2000
   20.6830   -2.7581   47.7893 C   0  0  1  0  0  0  0  0  0  0  0  0
   19.3746   -2.0017   48.2358 C   0  0  1  0  0  0  0  0  0  0  0  0
   18.1396   -2.8217   47.8080 C   0  0  0  0  0  0  0  0  0  0  0  0
   18.2204   -2.9475   46.2544 C   0  0  1  0  0  0  0  0  0  0  0  0
   19.5663   -3.7025   45.7807 C   0  0  1  0  0  0  0  0  0  0  0  0
   19.6639   -3.8152   44.2310 C   0  0  1  0  0  0  0  0  0  0  0  0
   18.3774   -4.5922   43.7330 C   0  0  1  0  0  0  0  0  0  0  0  0
   17.1007   -3.8464   44.2562 C   0  0  2  0  0  0  0  0  0  0  0  0
   18.6694   -6.0363   41.5591 C   0  0  0  0  0  0  0  0  0  0  0  0
   19.3607   -1.8082   49.7205 N   0  0  0  0  0  0  0  0  0  0  0  0
   18.3587   -4.7129   42.2117 N   0  0  0  0  0  0  0  0  0  0  0  0
   20.7922   -4.0425   48.4159 O   0  0  0  0  0  0  0  0  0  0  0  0
   20.7212   -2.9649   46.3117 O   0  0  0  0  0  0  0  0  0  0  0  0
   17.0782   -3.6951   45.7409 O   0  0  0  0  0  0  0  0  0  0  0  0
   19.7296   -2.4842   43.7162 O   0  0  0  0  0  0  0  0  0  0  0  0
   15.9792   -4.5567   43.8758 O   0  0  0  0  0  0  0  0  0  0  0  0
   14.7595   -3.8066   44.0048 C   0  0  2  0  0  0  0  0  0  0  0  0
   13.5513   -4.7650   44.1357 C   0  0  1  0  0  0  0  0  0  0  0  0
   13.3190   -5.5862   42.8304 C   0  0  2  0  0  0  0  0  0  0  0  0
   13.0868   -4.6079   41.6412 C   0  0  1  0  0  0  0  0  0  0  0  0
   14.3914   -3.7159   41.5167 C   0  0  1  0  0  0  0  0  0  0  0  0
   14.2808   -2.6963   40.3866 C   0  0  0  0  0  0  0  0  0  0  0  0
   12.8643   -5.3906   40.3920 N   0  0  0  0  0  0  0  0  0  0  0  0
   14.5798   -2.9534   42.8014 O   0  0  0  0  0  0  0  0  0  0  0  0
   13.8023   -5.6160   45.2705 O   0  0  0  0  0  0  0  0  0  0  0  0
   12.1766   -6.3965   43.0111 O   0  0  0  0  0  0  0  0  0  0  0  0
   15.5415   -2.1301   40.1431 O   0  0  0  0  0  0  0  0  0  0  0  0
   22.0892   -4.5980   48.3465 C   0  0  1  0  0  0  0  0  0  0  0  0
   22.9946   -3.8505   49.3775 C   0  0  1  0  0  0  0  0  0  0  0  0
   24.4359   -4.4317   49.2894 C   0  0  2  0  0  0  0  0  0  0  0  0
   24.4360   -5.9620   49.5922 C   0  0  1  0  0  0  0  0  0  0  0  0
   23.5158   -6.7235   48.5635 C   0  0  0  0  0  0  0  0  0  0  0  0
   22.0481   -6.1331   48.6608 C   0  0  2  0  0  0  0  0  0  0  0  0
   25.8233   -6.4948   49.4964 N   0  0  0  0  0  0  0  0  0  0  0  0
   21.1904   -6.8558   47.6948 N   0  0  0  0  0  0  0  0  0  0  0  0
   23.0359   -2.4426   49.0787 O   0  0  0  0  0  0  0  0  0  0  0  0
   25.2332   -3.7421   50.2379 O   0  0  0  0  0  0  0  0  0  0  0  0
  1  2  1  0  0  0  0
  1 12  1  1  0  0  0
  1 13  1  0  0  0  0
  2  3  1  0  0  0  0
  2 10  1  1  0  0  0
  4  3  1  1  0  0  0
  4  5  1  0  0  0  0
  4 14  1  0  0  0  0
  5  6  1  0  0  0  0
  5 13  1  6  0  0  0
  6  7  1  0  0  0  0
  6 15  1  6  0  0  0
  7  8  1  0  0  0  0
  7 11  1  6  0  0  0
  8 14  1  0  0  0  0
  8 16  1  1  0  0  0
  9 11  1  0  0  0  0
 17 16  1  6  0  0  0
 17 18  1  0  0  0  0
 17 24  1  0  0  0  0
 18 19  1  0  0  0  0
 18 25  1  1  0  0  0
 19 20  1  0  0  0  0
 19 26  1  1  0  0  0
 20 21  1  0  0  0  0
 20 23  1  6  0  0  0
 21 22  1  6  0  0  0
 21 24  1  0  0  0  0
 22 27  1  0  0  0  0
 28 12  1  1  0  0  0
 28 29  1  0  0  0  0
 28 33  1  0  0  0  0
 29 30  1  0  0  0  0
 29 36  1  6  0  0  0
 30 31  1  0  0  0  0
 30 37  1  1  0  0  0
 31 32  1  0  0  0  0
 31 34  1  6  0  0  0
 32 33  1  0  0  0  0
 33 35  1  6  0  0  0
M  END
>  <CHROM.1>
-163.64009897,105.71548180,-165.29150288,-156.83961057,-168.01856928,75.29495333
18.59461195,-4.19204175,45.54318700,0.52121112,-0.41306271,0.98134083

>  <Name>
2oe8_lig

>  <RI>
0

>  <Rbt.Current_Directory>
/home/itssahil/PROJECTS/Mol_Feturizer/New_Systems/rnas/2oe8

>  <Rbt.Executable>
rbdock ($Id: //depot/dev/client3/rdock/2013.1/src/exe/rbdock.cxx#4 $)

>  <Rbt.Library>
libRbt.so (2013.1, Build901 2013/11/27)

>  <Rbt.Parameter_File>
/export/apps/rDock/src/rDock_2013.1_src/data/scripts/dock_solv.prm

>  <Rbt.Receptor>
prm/blind_docking_100.prm

>  <SCORE>
-21.2586

>  <SCORE.INTER>
-16.3791

>  <SCORE.INTER.CONST>
1

>  <SCORE.INTER.POLAR>
-0.917763

>  <SCORE.INTER.ROT>
6

>  <SCORE.INTER.SOLV>
10.6264

>  <SCORE.INTER.VDW>
-19.0023

>  <SCORE.INTER.norm>
-0.442677

>  <SCORE.INTRA>
-5.10505

>  <SCORE.INTRA.DIHEDRAL>
-9.12578

>  <SCORE.INTRA.DIHEDRAL.0>
16.4056

>  <SCORE.INTRA.POLAR>
0

>  <SCORE.INTRA.POLAR.0>
0

>  <SCORE.INTRA.REPUL>
0

>  <SCORE.INTRA.REPUL.0>
0

>  <SCORE.INTRA.SOLV>
-2.45936

>  <SCORE.INTRA.SOLV.lig_0>
-90.9627

>  <SCORE.INTRA.VDW>
0.68752

>  <SCORE.INTRA.VDW.0>
-3.28744

>  <SCORE.INTRA.norm>
-0.137974

>  <SCORE.RESTR>
0.2255

>  <SCORE.RESTR.CAVITY>
0.2255

>  <SCORE.RESTR.norm>
0.00609459

>  <SCORE.SYSTEM>
0

>  <SCORE.SYSTEM.CONST>
0

>  <SCORE.SYSTEM.DIHEDRAL>
0

>  <SCORE.SYSTEM.SOLV>
0

>  <SCORE.SYSTEM.norm>
0

>  <SCORE.heavy>
37

>  <SCORE.norm>
-0.574557

>  <RMSD>
8.185

$$$$
2oe8_lig
 OpenBabel11021811463D
libRbt.so/2013.1/901 2013/11/27
 37 40  0  0  0  0  0  0  0  0999 V2000
   20.7349   -2.8152   47.6565 C   0  0  1  0  0  0  0  0  0  0  0  0
   19.3939   -2.2179   48.2293 C   0  0  1  0  0  0  0  0  0  0  0  0
   18.2158   -3.1290   47.8260 C   0  0  0  0  0  0  0  0  0  0  0  0
   18.2040   -3.1561   46.2655 C   0  0  1  0  0  0  0  0  0  0  0  0
   19.5804   -3.7467   45.6633 C   0  0  1  0  0  0  0  0  0  0  0  0
   19.5844   -3.7594   44.1065 C   0  0  1  0  0  0  0  0  0  0  0  0
   18.3464   -4.6289   43.6391 C   0  0  1  0  0  0  0  0  0  0  0  0
   17.0430   -4.0434   44.2859 C   0  0  2  0  0  0  0  0  0  0  0  0
   18.8001   -5.8320   41.3493 C   0  0  0  0  0  0  0  0  0  0  0  0
   19.4611   -2.1130   49.7215 N   0  0  0  0  0  0  0  0  0  0  0  0
   18.2375   -4.6625   42.1171 N   0  0  0  0  0  0  0  0  0  0  0  0
   21.0062   -4.1168   48.1917 O   0  0  0  0  0  0  0  0  0  0  0  0
   20.6935   -2.9314   46.1690 O   0  0  0  0  0  0  0  0  0  0  0  0
   17.1056   -3.9812   45.7758 O   0  0  0  0  0  0  0  0  0  0  0  0
   19.4898   -2.4009   43.6750 O   0  0  0  0  0  0  0  0  0  0  0  0
   15.9704   -4.8371   43.9298 O   0  0  0  0  0  0  0  0  0  0  0  0
   14.7608   -4.5088   44.6340 C   0  0  2  0  0  0  0  0  0  0  0  0
   13.6833   -5.5913   44.3835 C   0  0  1  0  0  0  0  0  0  0  0  0
   13.2232   -5.6169   42.8936 C   0  0  2  0  0  0  0  0  0  0  0  0
   12.6622   -4.2175   42.5038 C   0  0  1  0  0  0  0  0  0  0  0  0
   13.8395   -3.1757   42.7082 C   0  0  1  0  0  0  0  0  0  0  0  0
   13.4070   -1.7513   42.3718 C   0  0  0  0  0  0  0  0  0  0  0  0
   12.2213   -4.2395   41.0798 N   0  0  0  0  0  0  0  0  0  0  0  0
   14.2564   -3.1955   44.1550 O   0  0  0  0  0  0  0  0  0  0  0  0
   14.2414   -6.8531   44.7972 O   0  0  0  0  0  0  0  0  0  0  0  0
   12.2103   -6.5915   42.7568 O   0  0  0  0  0  0  0  0  0  0  0  0
   13.2381   -1.6298   40.9841 O   0  0  0  0  0  0  0  0  0  0  0  0
   22.3831   -4.3839   48.3605 C   0  0  1  0  0  0  0  0  0  0  0  0
   22.7792   -3.9929   49.8206 C   0  0  1  0  0  0  0  0  0  0  0  0
   24.3021   -4.2528   50.0111 C   0  0  2  0  0  0  0  0  0  0  0  0
   24.6455   -5.7519   49.7496 C   0  0  1  0  0  0  0  0  0  0  0  0
   24.2389   -6.1586   48.2820 C   0  0  0  0  0  0  0  0  0  0  0  0
   22.6868   -5.8984   48.0943 C   0  0  2  0  0  0  0  0  0  0  0  0
   26.1067   -5.9736   49.9324 N   0  0  0  0  0  0  0  0  0  0  0  0
   22.3129   -6.2863   46.7155 N   0  0  0  0  0  0  0  0  0  0  0  0
   22.5066   -2.5990   50.0568 O   0  0  0  0  0  0  0  0  0  0  0  0
   24.6327   -3.8971   51.3434 O   0  0  0  0  0  0  0  0  0  0  0  0
  1  2  1  0  0  0  0
  1 12  1  1  0  0  0
  1 13  1  0  0  0  0
  2  3  1  0  0  0  0
  2 10  1  1  0  0  0
  4  3  1  1  0  0  0
  4  5  1  0  0  0  0
  4 14  1  0  0  0  0
  5  6  1  0  0  0  0
  5 13  1  6  0  0  0
  6  7  1  0  0  0  0
  6 15  1  6  0  0  0
  7  8  1  0  0  0  0
  7 11  1  6  0  0  0
  8 14  1  0  0  0  0
  8 16  1  1  0  0  0
  9 11  1  0  0  0  0
 17 16  1  6  0  0  0
 17 18  1  0  0  0  0
 17 24  1  0  0  0  0
 18 19  1  0  0  0  0
 18 25  1  6  0  0  0
 19 20  1  0  0  0  0
 19 26  1  1  0  0  0
 20 21  1  0  0  0  0
 20 23  1  6  0  0  0
 21 22  1  1  0  0  0
 21 24  1  0  0  0  0
 22 27  1  0  0  0  0
 28 12  1  1  0  0  0
 28 29  1  0  0  0  0
 28 33  1  0  0  0  0
 29 30  1  0  0  0  0
 29 36  1  6  0  0  0
 30 31  1  0  0  0  0
 30 37  1  1  0  0  0
 31 32  1  0  0  0  0
 31 34  1  6  0  0  0
 32 33  1  0  0  0  0
 33 35  1  6  0  0  0
M  END
>  <CHROM.1>
-146.45477277,97.39188661,171.02439078,-169.57525478,-71.00303681,92.95297208
18.50886419,-4.17806477,45.76581878,0.41555172,-0.45477465,0.81887756

>  <Name>
2oe8_lig

>  <RI>
0

>  <Rbt.Current_Directory>
/home/itssahil/PROJECTS/Mol_Feturizer/New_Systems/rnas/2oe8

>  <Rbt.Executable>
rbdock ($Id: //depot/dev/client3/rdock/2013.1/src/exe/rbdock.cxx#4 $)

>  <Rbt.Library>
libRbt.so (2013.1, Build901 2013/11/27)

>  <Rbt.Parameter_File>
/export/apps/rDock/src/rDock_2013.1_src/data/scripts/dock_solv.prm

>  <Rbt.Receptor>
prm/blind_docking_80.prm

>  <SCORE>
-24.4312

>  <SCORE.INTER>
-22.0038

>  <SCORE.INTER.CONST>
1

>  <SCORE.INTER.POLAR>
-1.67989

>  <SCORE.INTER.ROT>
6

>  <SCORE.INTER.SOLV>
12.5145

>  <SCORE.INTER.VDW>
-20.8411

>  <SCORE.INTER.norm>
-0.594698

>  <SCORE.INTRA>
-2.43413

>  <SCORE.INTRA.DIHEDRAL>
-5.79095

>  <SCORE.INTRA.DIHEDRAL.0>
16.4056

>  <SCORE.INTRA.POLAR>
0

>  <SCORE.INTRA.POLAR.0>
0

>  <SCORE.INTRA.REPUL>
0

>  <SCORE.INTRA.REPUL.0>
0

>  <SCORE.INTRA.SOLV>
-0.473119

>  <SCORE.INTRA.SOLV.lig_0>
-90.9627

>  <SCORE.INTRA.VDW>
0.697904

>  <SCORE.INTRA.VDW.0>
-3.28744

>  <SCORE.INTRA.norm>
-0.0657874

>  <SCORE.RESTR>
0.00673058

>  <SCORE.RESTR.CAVITY>
0.00673058

>  <SCORE.RESTR.norm>
0.000181907

>  <SCORE.SYSTEM>
0

>  <SCORE.SYSTEM.CONST>
0

>  <SCORE.SYSTEM.DIHEDRAL>
0

>  <SCORE.SYSTEM.SOLV>
0

>  <SCORE.SYSTEM.norm>
0

>  <SCORE.heavy>
37

>  <SCORE.norm>
-0.660303

>  <RMSD>
8.203

$$$$
2oe8_lig
 OpenBabel11021811463D
libRbt.so/2013.1/901 2013/11/27
 37 40  0  0  0  0  0  0  0  0999 V2000
   20.2324   -2.7312   48.0591 C   0  0  1  0  0  0  0  0  0  0  0  0
   18.8499   -2.7116   48.8151 C   0  0  1  0  0  0  0  0  0  0  0  0
   17.9191   -3.7804   48.2051 C   0  0  0  0  0  0  0  0  0  0  0  0
   17.7491   -3.3990   46.7013 C   0  0  1  0  0  0  0  0  0  0  0  0
   19.1606   -3.3946   45.9180 C   0  0  1  0  0  0  0  0  0  0  0  0
   19.0022   -2.9964   44.4213 C   0  0  1  0  0  0  0  0  0  0  0  0
   17.9963   -4.0270   43.7633 C   0  0  1  0  0  0  0  0  0  0  0  0
   16.6608   -4.0271   44.5858 C   0  0  2  0  0  0  0  0  0  0  0  0
   17.5333   -4.7977   41.2959 C   0  0  0  0  0  0  0  0  0  0  0  0
   19.0452   -2.9876   50.2739 N   0  0  0  0  0  0  0  0  0  0  0  0
   17.7389   -3.6893   42.2973 N   0  0  0  0  0  0  0  0  0  0  0  0
   20.8940   -3.9949   48.1977 O   0  0  0  0  0  0  0  0  0  0  0  0
   20.0653   -2.4595   46.6010 O   0  0  0  0  0  0  0  0  0  0  0  0
   16.8628   -4.3432   46.0304 O   0  0  0  0  0  0  0  0  0  0  0  0
   18.5059   -1.6571   44.3931 O   0  0  0  0  0  0  0  0  0  0  0  0
   15.8051   -4.9700   44.0512 O   0  0  0  0  0  0  0  0  0  0  0  0
   14.4518   -4.8406   44.5187 C   0  0  2  0  0  0  0  0  0  0  0  0
   13.5654   -5.9548   43.9115 C   0  0  1  0  0  0  0  0  0  0  0  0
   13.4169   -5.7998   42.3668 C   0  0  2  0  0  0  0  0  0  0  0  0
   12.8013   -4.4058   42.0461 C   0  0  1  0  0  0  0  0  0  0  0  0
   13.7984   -3.3174   42.6246 C   0  0  1  0  0  0  0  0  0  0  0  0
   13.2947   -1.8968   42.3859 C   0  0  0  0  0  0  0  0  0  0  0  0
   12.6581   -4.2553   40.5698 N   0  0  0  0  0  0  0  0  0  0  0  0
   13.9182   -3.5144   44.1126 O   0  0  0  0  0  0  0  0  0  0  0  0
   14.1590   -7.2167   44.2722 O   0  0  0  0  0  0  0  0  0  0  0  0
   12.5595   -6.8190   41.8972 O   0  0  0  0  0  0  0  0  0  0  0  0
   13.3253   -1.6149   41.0116 O   0  0  0  0  0  0  0  0  0  0  0  0
   22.0203   -3.9540   49.0495 C   0  0  1  0  0  0  0  0  0  0  0  0
   22.7055   -5.3581   49.0181 C   0  0  1  0  0  0  0  0  0  0  0  0
   23.9310   -5.3368   49.9775 C   0  0  2  0  0  0  0  0  0  0  0  0
   24.9511   -4.2370   49.5494 C   0  0  1  0  0  0  0  0  0  0  0  0
   24.2654   -2.8177   49.5673 C   0  0  0  0  0  0  0  0  0  0  0  0
   23.0221   -2.8418   48.5846 C   0  0  2  0  0  0  0  0  0  0  0  0
   26.1101   -4.2329   50.4845 N   0  0  0  0  0  0  0  0  0  0  0  0
   22.3867   -1.5050   48.6046 N   0  0  0  0  0  0  0  0  0  0  0  0
   21.7837   -6.3745   49.4546 O   0  0  0  0  0  0  0  0  0  0  0  0
   24.5370   -6.6177   49.9247 O   0  0  0  0  0  0  0  0  0  0  0  0
  1  2  1  0  0  0  0
  1 12  1  6  0  0  0
  1 13  1  0  0  0  0
  2  3  1  0  0  0  0
  2 10  1  1  0  0  0
  4  3  1  1  0  0  0
  4  5  1  0  0  0  0
  4 14  1  0  0  0  0
  5  6  1  0  0  0  0
  5 13  1  1  0  0  0
  6  7  1  0  0  0  0
  6 15  1  1  0  0  0
  7  8  1  0  0  0  0
  7 11  1  6  0  0  0
  8 14  1  0  0  0  0
  8 16  1  6  0  0  0
  9 11  1  0  0  0  0
 17 16  1  6  0  0  0
 17 18  1  0  0  0  0
 17 24  1  0  0  0  0
 18 19  1  0  0  0  0
 18 25  1  6  0  0  0
 19 20  1  0  0  0  0
 19 26  1  1  0  0  0
 20 21  1  0  0  0  0
 20 23  1  6  0  0  0
 21 22  1  1  0  0  0
 21 24  1  0  0  0  0
 22 27  1  0  0  0  0
 28 12  1  6  0  0  0
 28 29  1  0  0  0  0
 28 33  1  0  0  0  0
 29 30  1  0  0  0  0
 29 36  1  1  0  0  0
 30 31  1  0  0  0  0
 30 37  1  6  0  0  0
 31 32  1  0  0  0  0
 31 34  1  1  0  0  0
 32 33  1  0  0  0  0
 33 35  1  1  0  0  0
M  END
>  <CHROM.1>
-107.90253547,144.82363175,-166.21539944,-178.26264644,-67.79359326,-175.52314319
18.27425932,-4.04356929,45.84518615,-0.20040397,-0.61374445,-0.37172209

>  <Name>
2oe8_lig

>  <RI>
0

>  <Rbt.Current_Directory>
/home/itssahil/PROJECTS/Mol_Feturizer/New_Systems/rnas/2oe8

>  <Rbt.Executable>
rbdock ($Id: //depot/dev/client3/rdock/2013.1/src/exe/rbdock.cxx#4 $)

>  <Rbt.Library>
libRbt.so (2013.1, Build901 2013/11/27)

>  <Rbt.Parameter_File>
/export/apps/rDock/src/rDock_2013.1_src/data/scripts/dock_solv.prm

>  <Rbt.Receptor>
prm/blind_docking_80.prm

>  <SCORE>
-17.6639

>  <SCORE.INTER>
-16.4795

>  <SCORE.INTER.CONST>
1

>  <SCORE.INTER.POLAR>
-1.3345

>  <SCORE.INTER.ROT>
6

>  <SCORE.INTER.SOLV>
12.8068

>  <SCORE.INTER.VDW>
-18.4069

>  <SCORE.INTER.norm>
-0.445392

>  <SCORE.INTRA>
-1.21049

>  <SCORE.INTRA.DIHEDRAL>
-7.90435

>  <SCORE.INTRA.DIHEDRAL.0>
16.4056

>  <SCORE.INTRA.POLAR>
0

>  <SCORE.INTRA.POLAR.0>
0

>  <SCORE.INTRA.REPUL>
0

>  <SCORE.INTRA.REPUL.0>
0

>  <SCORE.INTRA.SOLV>
0.534931

>  <SCORE.INTRA.SOLV.lig_0>
-90.9627

>  <SCORE.INTRA.VDW>
2.47422

>  <SCORE.INTRA.VDW.0>
-3.28744

>  <SCORE.INTRA.norm>
-0.032716

>  <SCORE.RESTR>
0.0260308

>  <SCORE.RESTR.CAVITY>
0.0260308

>  <SCORE.RESTR.norm>
0.000703534

>  <SCORE.SYSTEM>
0

>  <SCORE.SYSTEM.CONST>
0

>  <SCORE.SYSTEM.DIHEDRAL>
0

>  <SCORE.SYSTEM.SOLV>
0

>  <SCORE.SYSTEM.norm>
0

>  <SCORE.heavy>
37

>  <SCORE.norm>
-0.477404

>  <RMSD>
8.215

$$$$
2oe8_lig
 OpenBabel11021811463D
libRbt.so/2013.1/901 2013/11/27
 37 40  0  0  0  0  0  0  0  0999 V2000
   20.5153   -3.0748   47.8557 C   0  0  1  0  0  0  0  0  0  0  0  0
   19.3369   -2.0908   48.2115 C   0  0  1  0  0  0  0  0  0  0  0  0
   18.0008   -2.7033   47.7418 C   0  0  0  0  0  0  0  0  0  0  0  0
   18.1322   -2.8970   46.1988 C   0  0  1  0  0  0  0  0  0  0  0  0
   19.3491   -3.8869   45.8177 C   0  0  1  0  0  0  0  0  0  0  0  0
   19.4990   -4.0705   44.2789 C   0  0  1  0  0  0  0  0  0  0  0  0
   18.1230   -4.6344   43.7353 C   0  0  1  0  0  0  0  0  0  0  0  0
   16.9704   -3.6636   44.1697 C   0  0  2  0  0  0  0  0  0  0  0  0
   17.4168   -5.9512   41.5757 C   0  0  0  0  0  0  0  0  0  0  0  0
   19.2862   -1.8443   49.6876 N   0  0  0  0  0  0  0  0  0  0  0  0
   18.1558   -4.8050   42.2190 N   0  0  0  0  0  0  0  0  0  0  0  0
   20.3721   -4.3355   48.5222 O   0  0  0  0  0  0  0  0  0  0  0  0
   20.5871   -3.3382   46.3884 O   0  0  0  0  0  0  0  0  0  0  0  0
   16.9040   -3.4571   45.6464 O   0  0  0  0  0  0  0  0  0  0  0  0
   19.8169   -2.7897   43.7320 O   0  0  0  0  0  0  0  0  0  0  0  0
   15.7626   -4.1856   43.7502 O   0  0  0  0  0  0  0  0  0  0  0  0
   14.7346   -3.1919   43.5994 C   0  0  2  0  0  0  0  0  0  0  0  0
   13.3388   -3.8607   43.5905 C   0  0  1  0  0  0  0  0  0  0  0  0
   13.1372   -4.7641   42.3354 C   0  0  2  0  0  0  0  0  0  0  0  0
   13.3161   -3.9052   41.0488 C   0  0  1  0  0  0  0  0  0  0  0  0
   14.7890   -3.3200   41.0864 C   0  0  1  0  0  0  0  0  0  0  0  0
   15.0849   -2.4389   39.8760 C   0  0  0  0  0  0  0  0  0  0  0  0
   13.1236   -4.7667   39.8474 N   0  0  0  0  0  0  0  0  0  0  0  0
   14.9386   -2.4670   42.3183 O   0  0  0  0  0  0  0  0  0  0  0  0
   13.2148   -4.6060   44.8169 O   0  0  0  0  0  0  0  0  0  0  0  0
   11.8298   -5.2965   42.3751 O   0  0  0  0  0  0  0  0  0  0  0  0
   16.4525   -2.1262   39.8489 O   0  0  0  0  0  0  0  0  0  0  0  0
   21.5391   -4.7536   49.1998 C   0  0  1  0  0  0  0  0  0  0  0  0
   22.6105   -5.1408   48.1303 C   0  0  1  0  0  0  0  0  0  0  0  0
   23.8920   -5.6338   48.8637 C   0  0  2  0  0  0  0  0  0  0  0  0
   24.4550   -4.5230   49.8032 C   0  0  1  0  0  0  0  0  0  0  0  0
   23.3764   -4.1178   50.8790 C   0  0  0  0  0  0  0  0  0  0  0  0
   22.0758   -3.6106   50.1284 C   0  0  2  0  0  0  0  0  0  0  0  0
   25.6756   -5.0201   50.4964 N   0  0  0  0  0  0  0  0  0  0  0  0
   21.0703   -3.2288   51.1454 N   0  0  0  0  0  0  0  0  0  0  0  0
   22.1157   -6.1970   47.2861 O   0  0  0  0  0  0  0  0  0  0  0  0
   24.8482   -5.9713   47.8724 O   0  0  0  0  0  0  0  0  0  0  0  0
  1  2  1  0  0  0  0
  1 12  1  1  0  0  0
  1 13  1  0  0  0  0
  2  3  1  0  0  0  0
  2 10  1  1  0  0  0
  4  3  1  1  0  0  0
  4  5  1  0  0  0  0
  4 14  1  0  0  0  0
  5  6  1  0  0  0  0
  5 13  1  6  0  0  0
  6  7  1  0  0  0  0
  6 15  1  6  0  0  0
  7  8  1  0  0  0  0
  7 11  1  6  0  0  0
  8 14  1  0  0  0  0
  8 16  1  1  0  0  0
  9 11  1  0  0  0  0
 17 16  1  6  0  0  0
 17 18  1  0  0  0  0
 17 24  1  0  0  0  0
 18 19  1  0  0  0  0
 18 25  1  1  0  0  0
 19 20  1  0  0  0  0
 19 26  1  1  0  0  0
 20 21  1  0  0  0  0
 20 23  1  6  0  0  0
 21 22  1  6  0  0  0
 21 24  1  0  0  0  0
 22 27  1  0  0  0  0
 28 12  1  6  0  0  0
 28 29  1  0  0  0  0
 28 33  1  0  0  0  0
 29 30  1  0  0  0  0
 29 36  1  6  0  0  0
 30 31  1  0  0  0  0
 30 37  1  6  0  0  0
 31 32  1  0  0  0  0
 31 34  1  1  0  0  0
 32 33  1  0  0  0  0
 33 35  1  1  0  0  0
M  END
>  <CHROM.1>
-129.89867286,145.08026840,-156.37589571,-161.43207620,-170.62251284,-70.28838261
18.45268803,-3.97291235,45.46908693,0.69331439,-0.23227881,1.37002867

>  <Name>
2oe8_lig

>  <RI>
0

>  <Rbt.Current_Directory>
/home/itssahil/PROJECTS/Mol_Feturizer/New_Systems/rnas/2oe8

>  <Rbt.Executable>
rbdock ($Id: //depot/dev/client3/rdock/2013.1/src/exe/rbdock.cxx#4 $)

>  <Rbt.Library>
libRbt.so (2013.1, Build901 2013/11/27)

>  <Rbt.Parameter_File>
/export/apps/rDock/src/rDock_2013.1_src/data/scripts/dock_solv.prm

>  <Rbt.Receptor>
prm/blind_docking_80.prm

>  <SCORE>
-14.7453

>  <SCORE.INTER>
-13.9096

>  <SCORE.INTER.CONST>
1

>  <SCORE.INTER.POLAR>
-0.794009

>  <SCORE.INTER.ROT>
6

>  <SCORE.INTER.SOLV>
12.7889

>  <SCORE.INTER.VDW>
-18.4893

>  <SCORE.INTER.norm>
-0.375935

>  <SCORE.INTRA>
-0.863374

>  <SCORE.INTRA.DIHEDRAL>
-4.12227

>  <SCORE.INTRA.DIHEDRAL.0>
16.4056

>  <SCORE.INTRA.POLAR>
0

>  <SCORE.INTRA.POLAR.0>
0

>  <SCORE.INTRA.REPUL>
0

>  <SCORE.INTRA.REPUL.0>
0

>  <SCORE.INTRA.SOLV>
1.31837

>  <SCORE.INTRA.SOLV.lig_0>
-90.9627

>  <SCORE.INTRA.VDW>
0.538578

>  <SCORE.INTRA.VDW.0>
-3.28744

>  <SCORE.INTRA.norm>
-0.0233344

>  <SCORE.RESTR>
0.0276282

>  <SCORE.RESTR.CAVITY>
0.0276282

>  <SCORE.RESTR.norm>
0.000746708

>  <SCORE.SYSTEM>
0

>  <SCORE.SYSTEM.CONST>
0

>  <SCORE.SYSTEM.DIHEDRAL>
0

>  <SCORE.SYSTEM.SOLV>
0

>  <SCORE.SYSTEM.norm>
0

>  <SCORE.heavy>
37

>  <SCORE.norm>
-0.398523

>  <RMSD>
8.226

$$$$
2oe8_lig
 OpenBabel11021811463D
libRbt.so/2013.1/901 2013/11/27
 37 40  0  0  0  0  0  0  0  0999 V2000
   18.5942   -4.6620   48.4717 C   0  0  1  0  0  0  0  0  0  0  0  0
   19.6189   -5.3260   47.4754 C   0  0  1  0  0  0  0  0  0  0  0  0
   19.5637   -4.5900   46.1204 C   0  0  0  0  0  0  0  0  0  0  0  0
   18.0970   -4.7368   45.6075 C   0  0  1  0  0  0  0  0  0  0  0  0
   17.0334   -4.0791   46.6284 C   0  0  1  0  0  0  0  0  0  0  0  0
   15.5660   -4.2382   46.1333 C   0  0  1  0  0  0  0  0  0  0  0  0
   15.4733   -3.5565   44.7072 C   0  0  1  0  0  0  0  0  0  0  0  0
   16.5542   -4.1968   43.7683 C   0  0  2  0  0  0  0  0  0  0  0  0
   13.4595   -5.0716   43.9684 C   0  0  0  0  0  0  0  0  0  0  0  0
   21.0085   -5.2580   48.0289 N   0  0  0  0  0  0  0  0  0  0  0  0
   14.0744   -3.7026   44.1145 N   0  0  0  0  0  0  0  0  0  0  0  0
   18.9157   -3.2885   48.7247 O   0  0  0  0  0  0  0  0  0  0  0  0
   17.1996   -4.7158   47.9424 O   0  0  0  0  0  0  0  0  0  0  0  0
   17.9402   -4.0873   44.3111 O   0  0  0  0  0  0  0  0  0  0  0  0
   15.2877   -5.6386   46.0867 O   0  0  0  0  0  0  0  0  0  0  0  0
   16.5170   -3.5609   42.5430 O   0  0  0  0  0  0  0  0  0  0  0  0
   16.0419   -4.4029   41.4789 C   0  0  2  0  0  0  0  0  0  0  0  0
   16.7565   -4.0468   40.1529 C   0  0  1  0  0  0  0  0  0  0  0  0
   16.3818   -2.6159   39.6589 C   0  0  2  0  0  0  0  0  0  0  0  0
   14.8393   -2.5258   39.4647 C   0  0  1  0  0  0  0  0  0  0  0  0
   14.1791   -2.8217   40.8753 C   0  0  1  0  0  0  0  0  0  0  0  0
   12.6549   -2.7785   40.8132 C   0  0  0  0  0  0  0  0  0  0  0  0
   14.4785   -1.1586   38.9921 N   0  0  0  0  0  0  0  0  0  0  0  0
   14.5782   -4.2055   41.3147 O   0  0  0  0  0  0  0  0  0  0  0  0
   18.1722   -4.1852   40.3804 O   0  0  0  0  0  0  0  0  0  0  0  0
   17.0317   -2.3856   38.4264 O   0  0  0  0  0  0  0  0  0  0  0  0
   12.2370   -1.4777   40.4932 O   0  0  0  0  0  0  0  0  0  0  0  0
   20.0478   -3.1149   49.5517 C   0  0  1  0  0  0  0  0  0  0  0  0
   20.5764   -1.6579   49.3537 C   0  0  1  0  0  0  0  0  0  0  0  0
   21.8437   -1.4627   50.2362 C   0  0  2  0  0  0  0  0  0  0  0  0
   21.5147   -1.7096   51.7410 C   0  0  1  0  0  0  0  0  0  0  0  0
   20.9699   -3.1741   51.9488 C   0  0  0  0  0  0  0  0  0  0  0  0
   19.6763   -3.3667   51.0535 C   0  0  2  0  0  0  0  0  0  0  0  0
   22.7425   -1.5225   52.5627 N   0  0  0  0  0  0  0  0  0  0  0  0
   19.1693   -4.7424   51.2575 N   0  0  0  0  0  0  0  0  0  0  0  0
   20.9246   -1.4351   47.9744 O   0  0  0  0  0  0  0  0  0  0  0  0
   22.2978   -0.1332   50.0433 O   0  0  0  0  0  0  0  0  0  0  0  0
  1  2  1  0  0  0  0
  1 12  1  6  0  0  0
  1 13  1  0  0  0  0
  2  3  1  0  0  0  0
  2 10  1  1  0  0  0
  4  3  1  1  0  0  0
  4  5  1  0  0  0  0
  4 14  1  0  0  0  0
  5  6  1  0  0  0  0
  5 13  1  1  0  0  0
  6  7  1  0  0  0  0
  6 15  1  6  0  0  0
  7  8  1  0  0  0  0
  7 11  1  6  0  0  0
  8 14  1  0  0  0  0
  8 16  1  6  0  0  0
  9 11  1  0  0  0  0
 17 16  1  1  0  0  0
 17 18  1  0  0  0  0
 17 24  1  0  0  0  0
 18 19  1  0  0  0  0
 18 25  1  1  0  0  0
 19 20  1  0  0  0  0
 19 26  1  6  0  0  0
 20 21  1  0  0  0  0
 20 23  1  1  0  0  0
 21 22  1  6  0  0  0
 21 24  1  0  0  0  0
 22 27  1  0  0  0  0
 28 12  1  6  0  0  0
 28 29  1  0  0  0  0
 28 33  1  0  0  0  0
 29 30  1  0  0  0  0
 29 36  1  6  0  0  0
 30 31  1  0  0  0  0
 30 37  1  1  0  0  0
 31 32  1  0  0  0  0
 31 34  1  1  0  0  0
 32 33  1  0  0  0  0
 33 35  1  6  0  0  0
M  END
>  <CHROM.1>
-73.10885306,-55.28625644,-112.03801809,-146.26871137,-64.48916918,160.83742223
17.59746240,-3.38875804,45.41589039,0.93040021,0.51593943,1.88503999

>  <Name>
2oe8_lig

>  <RI>
0

>  <Rbt.Current_Directory>
/home/itssahil/PROJECTS/Mol_Feturizer/New_Systems/rnas/2oe8

>  <Rbt.Executable>
rbdock ($Id: //depot/dev/client3/rdock/2013.1/src/exe/rbdock.cxx#4 $)

>  <Rbt.Library>
libRbt.so (2013.1, Build901 2013/11/27)

>  <Rbt.Parameter_File>
/export/apps/rDock/src/rDock_2013.1_src/data/scripts/dock_solv.prm

>  <Rbt.Receptor>
prm/blind_docking_100.prm

>  <SCORE>
-12.7087

>  <SCORE.INTER>
-14.6034

>  <SCORE.INTER.CONST>
1

>  <SCORE.INTER.POLAR>
-2.01925

>  <SCORE.INTER.ROT>
6

>  <SCORE.INTER.SOLV>
15.1067

>  <SCORE.INTER.VDW>
-15.6403

>  <SCORE.INTER.norm>
-0.394687

>  <SCORE.INTRA>
1.88037

>  <SCORE.INTRA.DIHEDRAL>
-2.65056

>  <SCORE.INTRA.DIHEDRAL.0>
16.4056

>  <SCORE.INTRA.POLAR>
0

>  <SCORE.INTRA.POLAR.0>
0

>  <SCORE.INTRA.REPUL>
0

>  <SCORE.INTRA.REPUL.0>
0

>  <SCORE.INTRA.SOLV>
3.5125

>  <SCORE.INTRA.SOLV.lig_0>
-90.9627

>  <SCORE.INTRA.VDW>
1.4494

>  <SCORE.INTRA.VDW.0>
-3.28744

>  <SCORE.INTRA.norm>
0.0508209

>  <SCORE.RESTR>
0.0143531

>  <SCORE.RESTR.CAVITY>
0.0143531

>  <SCORE.RESTR.norm>
0.000387921

>  <SCORE.SYSTEM>
0

>  <SCORE.SYSTEM.CONST>
0

>  <SCORE.SYSTEM.DIHEDRAL>
0

>  <SCORE.SYSTEM.SOLV>
0

>  <SCORE.SYSTEM.norm>
0

>  <SCORE.heavy>
37

>  <SCORE.norm>
-0.343478

>  <RMSD>
8.337

$$$$
2oe8_lig
 OpenBabel11021811463D
libRbt.so/2013.1/901 2013/11/27
 37 40  0  0  0  0  0  0  0  0999 V2000
   19.5785   -4.7761   49.4510 C   0  0  1  0  0  0  0  0  0  0  0  0
   18.1935   -5.2914   49.9985 C   0  0  1  0  0  0  0  0  0  0  0  0
   17.4365   -6.0194   48.8683 C   0  0  0  0  0  0  0  0  0  0  0  0
   17.2417   -4.9686   47.7309 C   0  0  1  0  0  0  0  0  0  0  0  0
   18.6525   -4.4159   47.1738 C   0  0  1  0  0  0  0  0  0  0  0  0
   18.4667   -3.3527   46.0517 C   0  0  1  0  0  0  0  0  0  0  0  0
   17.6307   -4.0329   44.8918 C   0  0  1  0  0  0  0  0  0  0  0  0
   16.2939   -4.5924   45.4915 C   0  0  2  0  0  0  0  0  0  0  0  0
   18.0085   -3.2482   42.4142 C   0  0  0  0  0  0  0  0  0  0  0  0
   18.3991   -6.2262   51.1501 N   0  0  0  0  0  0  0  0  0  0  0  0
   17.3551   -3.0485   43.7585 N   0  0  0  0  0  0  0  0  0  0  0  0
   20.4112   -5.8580   49.0149 O   0  0  0  0  0  0  0  0  0  0  0  0
   19.4014   -3.8421   48.3004 O   0  0  0  0  0  0  0  0  0  0  0  0
   16.5121   -5.5541   46.6120 O   0  0  0  0  0  0  0  0  0  0  0  0
   17.7847   -2.2412   46.6349 O   0  0  0  0  0  0  0  0  0  0  0  0
   15.5918   -5.2405   44.4945 O   0  0  0  0  0  0  0  0  0  0  0  0
   14.2182   -5.4914   44.8364 C   0  0  2  0  0  0  0  0  0  0  0  0
   13.6186   -6.5651   43.8965 C   0  0  1  0  0  0  0  0  0  0  0  0
   13.5246   -6.0592   42.4243 C   0  0  2  0  0  0  0  0  0  0  0  0
   12.6491   -4.7721   42.3772 C   0  0  1  0  0  0  0  0  0  0  0  0
   13.3637   -3.6948   43.2948 C   0  0  1  0  0  0  0  0  0  0  0  0
   12.5875   -2.3818   43.3448 C   0  0  0  0  0  0  0  0  0  0  0  0
   12.5575   -4.2866   40.9706 N   0  0  0  0  0  0  0  0  0  0  0  0
   13.4416   -4.2318   44.6994 O   0  0  0  0  0  0  0  0  0  0  0  0
   14.4428   -7.7409   44.0109 O   0  0  0  0  0  0  0  0  0  0  0  0
   12.9261   -7.0717   41.6426 O   0  0  0  0  0  0  0  0  0  0  0  0
   12.5729   -1.7987   42.0685 O   0  0  0  0  0  0  0  0  0  0  0  0
   21.7530   -5.4819   48.7829 C   0  0  1  0  0  0  0  0  0  0  0  0
   22.3812   -5.0534   50.1480 C   0  0  1  0  0  0  0  0  0  0  0  0
   23.8517   -4.6061   49.9019 C   0  0  2  0  0  0  0  0  0  0  0  0
   24.6856   -5.7645   49.2724 C   0  0  1  0  0  0  0  0  0  0  0  0
   24.0525   -6.2112   47.8997 C   0  0  0  0  0  0  0  0  0  0  0  0
   22.5576   -6.6717   48.1556 C   0  0  2  0  0  0  0  0  0  0  0  0
   26.0851   -5.3107   49.0419 N   0  0  0  0  0  0  0  0  0  0  0  0
   21.9723   -7.0929   46.8629 N   0  0  0  0  0  0  0  0  0  0  0  0
   21.6438   -3.9545   50.7152 O   0  0  0  0  0  0  0  0  0  0  0  0
   24.3991   -4.2299   51.1549 O   0  0  0  0  0  0  0  0  0  0  0  0
  1  2  1  0  0  0  0
  1 12  1  6  0  0  0
  1 13  1  0  0  0  0
  2  3  1  0  0  0  0
  2 10  1  1  0  0  0
  4  3  1  1  0  0  0
  4  5  1  0  0  0  0
  4 14  1  0  0  0  0
  5  6  1  0  0  0  0
  5 13  1  1  0  0  0
  6  7  1  0  0  0  0
  6 15  1  1  0  0  0
  7  8  1  0  0  0  0
  7 11  1  6  0  0  0
  8 14  1  0  0  0  0
  8 16  1  6  0  0  0
  9 11  1  0  0  0  0
 17 16  1  6  0  0  0
 17 18  1  0  0  0  0
 17 24  1  0  0  0  0
 18 19  1  0  0  0  0
 18 25  1  6  0  0  0
 19 20  1  0  0  0  0
 19 26  1  6  0  0  0
 20 21  1  0  0  0  0
 20 23  1  6  0  0  0
 21 22  1  1  0  0  0
 21 24  1  0  0  0  0
 22 27  1  0  0  0  0
 28 12  1  1  0  0  0
 28 29  1  0  0  0  0
 28 33  1  0  0  0  0
 29 30  1  0  0  0  0
 29 36  1  6  0  0  0
 30 31  1  0  0  0  0
 30 37  1  1  0  0  0
 31 32  1  0  0  0  0
 31 34  1  6  0  0  0
 32 33  1  0  0  0  0
 33 35  1  6  0  0  0
M  END
>  <CHROM.1>
-167.37842925,111.84702911,-165.03727317,-162.98906206,-64.71541903,65.27857066
17.96776553,-4.88109919,46.39837773,0.58519290,0.22046891,1.98573758

>  <Name>
2oe8_lig

>  <RI>
0

>  <Rbt.Current_Directory>
/home/itssahil/PROJECTS/Mol_Feturizer/New_Systems/rnas/2oe8

>  <Rbt.Executable>
rbdock ($Id: //depot/dev/client3/rdock/2013.1/src/exe/rbdock.cxx#4 $)

>  <Rbt.Library>
libRbt.so (2013.1, Build901 2013/11/27)

>  <Rbt.Parameter_File>
/export/apps/rDock/src/rDock_2013.1_src/data/scripts/dock_solv.prm

>  <Rbt.Receptor>
prm/blind_docking_60.prm

>  <SCORE>
-15.5642

>  <SCORE.INTER>
-10.8569

>  <SCORE.INTER.CONST>
1

>  <SCORE.INTER.POLAR>
0

>  <SCORE.INTER.ROT>
6

>  <SCORE.INTER.SOLV>
16.2563

>  <SCORE.INTER.VDW>
-20.2567

>  <SCORE.INTER.norm>
-0.293429

>  <SCORE.INTRA>
-4.70733

>  <SCORE.INTRA.DIHEDRAL>
-11.8443

>  <SCORE.INTRA.DIHEDRAL.0>
16.4056

>  <SCORE.INTRA.POLAR>
0

>  <SCORE.INTRA.POLAR.0>
0

>  <SCORE.INTRA.REPUL>
0

>  <SCORE.INTRA.REPUL.0>
0

>  <SCORE.INTRA.SOLV>
-1.83632

>  <SCORE.INTRA.SOLV.lig_0>
-90.9627

>  <SCORE.INTRA.VDW>
2.13296

>  <SCORE.INTRA.VDW.0>
-3.28744

>  <SCORE.INTRA.norm>
-0.127225

>  <SCORE.RESTR>
0

>  <SCORE.RESTR.CAVITY>
0

>  <SCORE.RESTR.norm>
0

>  <SCORE.SYSTEM>
0

>  <SCORE.SYSTEM.CONST>
0

>  <SCORE.SYSTEM.DIHEDRAL>
0

>  <SCORE.SYSTEM.SOLV>
0

>  <SCORE.SYSTEM.norm>
0

>  <SCORE.heavy>
37

>  <SCORE.norm>
-0.420654

>  <RMSD>
8.389

$$$$
2oe8_lig
 OpenBabel11021811463D
libRbt.so/2013.1/901 2013/11/27
 37 40  0  0  0  0  0  0  0  0999 V2000
   20.6089   -2.8901   47.5664 C   0  0  1  0  0  0  0  0  0  0  0  0
   19.3329   -2.0921   48.0339 C   0  0  1  0  0  0  0  0  0  0  0  0
   18.0657   -2.8203   47.5395 C   0  0  0  0  0  0  0  0  0  0  0  0
   18.1701   -2.8624   45.9828 C   0  0  1  0  0  0  0  0  0  0  0  0
   19.4841   -3.6594   45.4889 C   0  0  1  0  0  0  0  0  0  0  0  0
   19.6059   -3.6895   43.9370 C   0  0  1  0  0  0  0  0  0  0  0  0
   18.2908   -4.3683   43.3742 C   0  0  1  0  0  0  0  0  0  0  0  0
   17.0445   -3.5869   43.9182 C   0  0  2  0  0  0  0  0  0  0  0  0
   18.1349   -3.1213   41.0683 C   0  0  0  0  0  0  0  0  0  0  0  0
   19.3002   -1.9822   49.5269 N   0  0  0  0  0  0  0  0  0  0  0  0
   18.2955   -4.4018   41.8483 N   0  0  0  0  0  0  0  0  0  0  0  0
   20.6393   -4.2117   48.1200 O   0  0  0  0  0  0  0  0  0  0  0  0
   20.6650   -3.0149   46.0801 O   0  0  0  0  0  0  0  0  0  0  0  0
   17.0010   -3.5186   45.4086 O   0  0  0  0  0  0  0  0  0  0  0  0
   19.7503   -2.3369   43.5006 O   0  0  0  0  0  0  0  0  0  0  0  0
   15.8953   -4.2144   43.4792 O   0  0  0  0  0  0  0  0  0  0  0  0
   15.2560   -3.5323   42.3870 C   0  0  2  0  0  0  0  0  0  0  0  0
   13.9447   -2.8637   42.8656 C   0  0  1  0  0  0  0  0  0  0  0  0
   12.8777   -3.9189   43.2900 C   0  0  2  0  0  0  0  0  0  0  0  0
   12.5780   -4.8608   42.0866 C   0  0  1  0  0  0  0  0  0  0  0  0
   13.9440   -5.5687   41.7040 C   0  0  1  0  0  0  0  0  0  0  0  0
   13.7847   -6.5140   40.5167 C   0  0  0  0  0  0  0  0  0  0  0  0
   11.5579   -5.8705   42.4898 N   0  0  0  0  0  0  0  0  0  0  0  0
   14.9431   -4.5118   41.3141 O   0  0  0  0  0  0  0  0  0  0  0  0
   14.2876   -1.9780   43.9486 O   0  0  0  0  0  0  0  0  0  0  0  0
   11.7001   -3.2357   43.6653 O   0  0  0  0  0  0  0  0  0  0  0  0
   12.9563   -7.5864   40.8811 O   0  0  0  0  0  0  0  0  0  0  0  0
   21.9340   -4.7746   48.1712 C   0  0  1  0  0  0  0  0  0  0  0  0
   22.7668   -3.9840   49.2310 C   0  0  1  0  0  0  0  0  0  0  0  0
   24.2066   -4.5739   49.2753 C   0  0  2  0  0  0  0  0  0  0  0  0
   24.1738   -6.0887   49.6464 C   0  0  1  0  0  0  0  0  0  0  0  0
   23.3260   -6.8931   48.5885 C   0  0  0  0  0  0  0  0  0  0  0  0
   21.8593   -6.2935   48.5510 C   0  0  2  0  0  0  0  0  0  0  0  0
   25.5606   -6.6304   49.6769 N   0  0  0  0  0  0  0  0  0  0  0  0
   21.0695   -7.0565   47.5584 N   0  0  0  0  0  0  0  0  0  0  0  0
   22.8397   -2.5914   48.8724 O   0  0  0  0  0  0  0  0  0  0  0  0
   24.9372   -3.8446   50.2475 O   0  0  0  0  0  0  0  0  0  0  0  0
  1  2  1  0  0  0  0
  1 12  1  1  0  0  0
  1 13  1  0  0  0  0
  2  3  1  0  0  0  0
  2 10  1  1  0  0  0
  4  3  1  1  0  0  0
  4  5  1  0  0  0  0
  4 14  1  0  0  0  0
  5  6  1  0  0  0  0
  5 13  1  1  0  0  0
  6  7  1  0  0  0  0
  6 15  1  6  0  0  0
  7  8  1  0  0  0  0
  7 11  1  6  0  0  0
  8 14  1  0  0  0  0
  8 16  1  1  0  0  0
  9 11  1  0  0  0  0
 17 16  1  1  0  0  0
 17 18  1  0  0  0  0
 17 24  1  0  0  0  0
 18 19  1  0  0  0  0
 18 25  1  1  0  0  0
 19 20  1  0  0  0  0
 19 26  1  6  0  0  0
 20 21  1  0  0  0  0
 20 23  1  1  0  0  0
 21 22  1  6  0  0  0
 21 24  1  0  0  0  0
 22 27  1  0  0  0  0
 28 12  1  1  0  0  0
 28 29  1  0  0  0  0
 28 33  1  0  0  0  0
 29 30  1  0  0  0  0
 29 36  1  6  0  0  0
 30 31  1  0  0  0  0
 30 37  1  1  0  0  0
 31 32  1  0  0  0  0
 31 34  1  6  0  0  0
 32 33  1  0  0  0  0
 33 35  1  6  0  0  0
M  END
>  <CHROM.1>
-157.22513403,-70.31443128,-103.15544798,-108.49101049,-66.05883757,68.56276957
18.36719904,-4.19628842,45.37085900,0.33945658,-0.54664165,0.60061571

>  <Name>
2oe8_lig

>  <RI>
0

>  <Rbt.Current_Directory>
/home/itssahil/PROJECTS/Mol_Feturizer/New_Systems/rnas/2oe8

>  <Rbt.Executable>
rbdock ($Id: //depot/dev/client3/rdock/2013.1/src/exe/rbdock.cxx#4 $)

>  <Rbt.Library>
libRbt.so (2013.1, Build901 2013/11/27)

>  <Rbt.Parameter_File>
/export/apps/rDock/src/rDock_2013.1_src/data/scripts/dock_solv.prm

>  <Rbt.Receptor>
prm/blind_docking_80.prm

>  <SCORE>
-19.968

>  <SCORE.INTER>
-21.8493

>  <SCORE.INTER.CONST>
1

>  <SCORE.INTER.POLAR>
-1.91761

>  <SCORE.INTER.ROT>
6

>  <SCORE.INTER.SOLV>
14.461

>  <SCORE.INTER.VDW>
-20.5945

>  <SCORE.INTER.norm>
-0.590523

>  <SCORE.INTRA>
1.65132

>  <SCORE.INTRA.DIHEDRAL>
-1.11424

>  <SCORE.INTRA.DIHEDRAL.0>
16.4056

>  <SCORE.INTRA.POLAR>
0

>  <SCORE.INTRA.POLAR.0>
0

>  <SCORE.INTRA.REPUL>
0

>  <SCORE.INTRA.REPUL.0>
0

>  <SCORE.INTRA.SOLV>
-0.563599

>  <SCORE.INTRA.SOLV.lig_0>
-90.9627

>  <SCORE.INTRA.VDW>
2.49024

>  <SCORE.INTRA.VDW.0>
-3.28744

>  <SCORE.INTRA.norm>
0.0446302

>  <SCORE.RESTR>
0.230033

>  <SCORE.RESTR.CAVITY>
0.230033

>  <SCORE.RESTR.norm>
0.00621711

>  <SCORE.SYSTEM>
0

>  <SCORE.SYSTEM.CONST>
0

>  <SCORE.SYSTEM.DIHEDRAL>
0

>  <SCORE.SYSTEM.SOLV>
0

>  <SCORE.SYSTEM.norm>
0

>  <SCORE.heavy>
37

>  <SCORE.norm>
-0.539676

>  <RMSD>
8.458

$$$$
2oe8_lig
 OpenBabel11021811463D
libRbt.so/2013.1/901 2013/11/27
 37 40  0  0  0  0  0  0  0  0999 V2000
   19.0509   -6.2801   48.0445 C   0  0  1  0  0  0  0  0  0  0  0  0
   20.1655   -6.1416   46.9390 C   0  0  1  0  0  0  0  0  0  0  0  0
   19.5303   -5.6100   45.6373 C   0  0  0  0  0  0  0  0  0  0  0  0
   18.4485   -6.6567   45.2246 C   0  0  1  0  0  0  0  0  0  0  0  0
   17.3104   -6.8246   46.3571 C   0  0  1  0  0  0  0  0  0  0  0  0
   16.2375   -7.8812   45.9615 C   0  0  1  0  0  0  0  0  0  0  0  0
   15.6013   -7.4155   44.5885 C   0  0  1  0  0  0  0  0  0  0  0  0
   16.7493   -7.2229   43.5374 C   0  0  2  0  0  0  0  0  0  0  0  0
   13.1182   -8.2650   44.4924 C   0  0  0  0  0  0  0  0  0  0  0  0
   21.2417   -5.2047   47.3930 N   0  0  0  0  0  0  0  0  0  0  0  0
   14.5637   -8.4184   44.0915 N   0  0  0  0  0  0  0  0  0  0  0  0
   18.4517   -5.0155   48.3537 O   0  0  0  0  0  0  0  0  0  0  0  0
   17.9642   -7.2090   47.6158 O   0  0  0  0  0  0  0  0  0  0  0  0
   17.7955   -6.2563   43.9835 O   0  0  0  0  0  0  0  0  0  0  0  0
   16.9063   -9.1389   45.8531 O   0  0  0  0  0  0  0  0  0  0  0  0
   16.2034   -6.7570   42.3576 O   0  0  0  0  0  0  0  0  0  0  0  0
   15.4529   -5.5414   42.5186 C   0  0  2  0  0  0  0  0  0  0  0  0
   14.5344   -5.3116   41.2941 C   0  0  1  0  0  0  0  0  0  0  0  0
   15.3557   -5.0447   39.9956 C   0  0  2  0  0  0  0  0  0  0  0  0
   16.2669   -3.8001   40.2094 C   0  0  1  0  0  0  0  0  0  0  0  0
   17.2308   -4.1373   41.4220 C   0  0  1  0  0  0  0  0  0  0  0  0
   18.1711   -2.9792   41.7438 C   0  0  0  0  0  0  0  0  0  0  0  0
   17.0531   -3.5428   38.9691 N   0  0  0  0  0  0  0  0  0  0  0  0
   16.3939   -4.3983   42.6463 O   0  0  0  0  0  0  0  0  0  0  0  0
   13.6907   -6.4725   41.1695 O   0  0  0  0  0  0  0  0  0  0  0  0
   14.4515   -4.7977   38.9393 O   0  0  0  0  0  0  0  0  0  0  0  0
   19.0181   -3.3450   42.8011 O   0  0  0  0  0  0  0  0  0  0  0  0
   19.2647   -4.1849   49.1569 C   0  0  1  0  0  0  0  0  0  0  0  0
   18.9150   -2.6977   48.8287 C   0  0  1  0  0  0  0  0  0  0  0  0
   19.8265   -1.7704   49.6845 C   0  0  2  0  0  0  0  0  0  0  0  0
   19.6205   -2.0423   51.2068 C   0  0  1  0  0  0  0  0  0  0  0  0
   19.9603   -3.5438   51.5454 C   0  0  0  0  0  0  0  0  0  0  0  0
   19.0260   -4.4844   50.6767 C   0  0  2  0  0  0  0  0  0  0  0  0
   20.5061   -1.1481   52.0029 N   0  0  0  0  0  0  0  0  0  0  0  0
   19.3488   -5.8916   51.0035 N   0  0  0  0  0  0  0  0  0  0  0  0
   19.1447   -2.4258   47.4336 O   0  0  0  0  0  0  0  0  0  0  0  0
   19.4844   -0.4299   49.3731 O   0  0  0  0  0  0  0  0  0  0  0  0
  1  2  1  0  0  0  0
  1 12  1  6  0  0  0
  1 13  1  0  0  0  0
  2  3  1  0  0  0  0
  2 10  1  1  0  0  0
  4  3  1  1  0  0  0
  4  5  1  0  0  0  0
  4 14  1  0  0  0  0
  5  6  1  0  0  0  0
  5 13  1  1  0  0  0
  6  7  1  0  0  0  0
  6 15  1  6  0  0  0
  7  8  1  0  0  0  0
  7 11  1  6  0  0  0
  8 14  1  0  0  0  0
  8 16  1  6  0  0  0
  9 11  1  0  0  0  0
 17 16  1  6  0  0  0
 17 18  1  0  0  0  0
 17 24  1  0  0  0  0
 18 19  1  0  0  0  0
 18 25  1  6  0  0  0
 19 20  1  0  0  0  0
 19 26  1  6  0  0  0
 20 21  1  0  0  0  0
 20 23  1  6  0  0  0
 21 22  1  1  0  0  0
 21 24  1  0  0  0  0
 22 27  1  0  0  0  0
 28 12  1  6  0  0  0
 28 29  1  0  0  0  0
 28 33  1  0  0  0  0
 29 30  1  0  0  0  0
 29 36  1  6  0  0  0
 30 31  1  0  0  0  0
 30 37  1  1  0  0  0
 31 32  1  0  0  0  0
 31 34  1  1  0  0  0
 32 33  1  0  0  0  0
 33 35  1  6  0  0  0
M  END
>  <CHROM.1>
-75.85602084,90.29490725,56.30344887,-162.90146099,-178.65747680,151.24563274
17.59892881,-5.09421393,45.44419523,0.59294322,1.03740026,2.22312972

>  <Name>
2oe8_lig

>  <RI>
0

>  <Rbt.Current_Directory>
/home/itssahil/PROJECTS/Mol_Feturizer/New_Systems/rnas/2oe8

>  <Rbt.Executable>
rbdock ($Id: //depot/dev/client3/rdock/2013.1/src/exe/rbdock.cxx#4 $)

>  <Rbt.Library>
libRbt.so (2013.1, Build901 2013/11/27)

>  <Rbt.Parameter_File>
/export/apps/rDock/src/rDock_2013.1_src/data/scripts/dock_solv.prm

>  <Rbt.Receptor>
prm/blind_docking_80.prm

>  <SCORE>
-20.3442

>  <SCORE.INTER>
-16.8396

>  <SCORE.INTER.CONST>
1

>  <SCORE.INTER.POLAR>
-1.88715

>  <SCORE.INTER.ROT>
6

>  <SCORE.INTER.SOLV>
12.428

>  <SCORE.INTER.VDW>
-16.6786

>  <SCORE.INTER.norm>
-0.455125

>  <SCORE.INTRA>
-3.50453

>  <SCORE.INTRA.DIHEDRAL>
-9.77958

>  <SCORE.INTRA.DIHEDRAL.0>
16.4056

>  <SCORE.INTRA.POLAR>
0

>  <SCORE.INTRA.POLAR.0>
0

>  <SCORE.INTRA.REPUL>
0

>  <SCORE.INTRA.REPUL.0>
0

>  <SCORE.INTRA.SOLV>
1.68376

>  <SCORE.INTRA.SOLV.lig_0>
-90.9627

>  <SCORE.INTRA.VDW>
0.543384

>  <SCORE.INTRA.VDW.0>
-3.28744

>  <SCORE.INTRA.norm>
-0.0947169

>  <SCORE.RESTR>
0

>  <SCORE.RESTR.CAVITY>
0

>  <SCORE.RESTR.norm>
0

>  <SCORE.SYSTEM>
0

>  <SCORE.SYSTEM.CONST>
0

>  <SCORE.SYSTEM.DIHEDRAL>
0

>  <SCORE.SYSTEM.SOLV>
0

>  <SCORE.SYSTEM.norm>
0

>  <SCORE.heavy>
37

>  <SCORE.norm>
-0.549842

>  <RMSD>
8.541

$$$$
2oe8_lig
 OpenBabel11021811463D
libRbt.so/2013.1/901 2013/11/27
 37 40  0  0  0  0  0  0  0  0999 V2000
   18.6698   -6.3505   48.2326 C   0  0  1  0  0  0  0  0  0  0  0  0
   18.9157   -7.4941   47.1766 C   0  0  1  0  0  0  0  0  0  0  0  0
   19.1161   -6.8664   45.7814 C   0  0  0  0  0  0  0  0  0  0  0  0
   17.8059   -6.0778   45.4693 C   0  0  1  0  0  0  0  0  0  0  0  0
   17.5297   -4.9155   46.5550 C   0  0  1  0  0  0  0  0  0  0  0  0
   16.2142   -4.1363   46.2616 C   0  0  1  0  0  0  0  0  0  0  0  0
   16.3416   -3.5278   44.8055 C   0  0  1  0  0  0  0  0  0  0  0  0
   16.6544   -4.6877   43.7971 C   0  0  2  0  0  0  0  0  0  0  0  0
   13.9044   -3.5370   43.8275 C   0  0  0  0  0  0  0  0  0  0  0  0
   20.1240   -8.2981   47.5451 N   0  0  0  0  0  0  0  0  0  0  0  0
   15.0729   -2.7794   44.4060 N   0  0  0  0  0  0  0  0  0  0  0  0
   19.7932   -5.4655   48.3260 O   0  0  0  0  0  0  0  0  0  0  0  0
   17.4700   -5.5325   47.8874 O   0  0  0  0  0  0  0  0  0  0  0  0
   17.8835   -5.4566   44.1520 O   0  0  0  0  0  0  0  0  0  0  0  0
   15.1392   -5.0710   46.3692 O   0  0  0  0  0  0  0  0  0  0  0  0
   16.8275   -4.1513   42.5364 O   0  0  0  0  0  0  0  0  0  0  0  0
   17.2664   -5.1143   41.5634 C   0  0  2  0  0  0  0  0  0  0  0  0
   17.6062   -4.4107   40.2273 C   0  0  1  0  0  0  0  0  0  0  0  0
   16.3397   -3.7927   39.5594 C   0  0  2  0  0  0  0  0  0  0  0  0
   15.2898   -4.9153   39.3094 C   0  0  1  0  0  0  0  0  0  0  0  0
   14.9309   -5.5342   40.7242 C   0  0  1  0  0  0  0  0  0  0  0  0
   13.9140   -6.6664   40.6114 C   0  0  0  0  0  0  0  0  0  0  0  0
   14.0780   -4.3270   38.6707 N   0  0  0  0  0  0  0  0  0  0  0  0
   16.1838   -6.1060   41.3332 O   0  0  0  0  0  0  0  0  0  0  0  0
   18.6063   -3.4139   40.5121 O   0  0  0  0  0  0  0  0  0  0  0  0
   16.7220   -3.2150   38.3287 O   0  0  0  0  0  0  0  0  0  0  0  0
   13.6135   -7.1539   41.8924 O   0  0  0  0  0  0  0  0  0  0  0  0
   20.0612   -5.0275   49.6421 C   0  0  1  0  0  0  0  0  0  0  0  0
   21.5706   -4.6319   49.7255 C   0  0  1  0  0  0  0  0  0  0  0  0
   21.8875   -4.1769   51.1799 C   0  0  2  0  0  0  0  0  0  0  0  0
   20.9958   -2.9636   51.5879 C   0  0  1  0  0  0  0  0  0  0  0  0
   19.4704   -3.3501   51.4960 C   0  0  0  0  0  0  0  0  0  0  0  0
   19.1506   -3.8067   50.0123 C   0  0  2  0  0  0  0  0  0  0  0  0
   21.3135   -2.5511   52.9831 N   0  0  0  0  0  0  0  0  0  0  0  0
   17.7162   -4.1640   49.9340 N   0  0  0  0  0  0  0  0  0  0  0  0
   22.4024   -5.7593   49.3933 O   0  0  0  0  0  0  0  0  0  0  0  0
   23.2586   -3.8177   51.2259 O   0  0  0  0  0  0  0  0  0  0  0  0
  1  2  1  0  0  0  0
  1 12  1  6  0  0  0
  1 13  1  0  0  0  0
  2  3  1  0  0  0  0
  2 10  1  1  0  0  0
  4  3  1  1  0  0  0
  4  5  1  0  0  0  0
  4 14  1  0  0  0  0
  5  6  1  0  0  0  0
  5 13  1  1  0  0  0
  6  7  1  0  0  0  0
  6 15  1  6  0  0  0
  7  8  1  0  0  0  0
  7 11  1  6  0  0  0
  8 14  1  0  0  0  0
  8 16  1  6  0  0  0
  9 11  1  0  0  0  0
 17 16  1  1  0  0  0
 17 18  1  0  0  0  0
 17 24  1  0  0  0  0
 18 19  1  0  0  0  0
 18 25  1  1  0  0  0
 19 20  1  0  0  0  0
 19 26  1  6  0  0  0
 20 21  1  0  0  0  0
 20 23  1  1  0  0  0
 21 22  1  6  0  0  0
 21 24  1  0  0  0  0
 22 27  1  0  0  0  0
 28 12  1  6  0  0  0
 28 29  1  0  0  0  0
 28 33  1  0  0  0  0
 29 30  1  0  0  0  0
 29 36  1  1  0  0  0
 30 31  1  0  0  0  0
 30 37  1  6  0  0  0
 31 32  1  0  0  0  0
 31 34  1  1  0  0  0
 32 33  1  0  0  0  0
 33 35  1  1  0  0  0
M  END
>  <CHROM.1>
-142.07263904,-84.09857327,173.43984901,-172.97883206,-178.70482388,155.49275184
17.82468372,-4.85053339,45.44765788,1.08923539,0.00624534,1.53985072

>  <Name>
2oe8_lig

>  <RI>
0

>  <Rbt.Current_Directory>
/home/itssahil/PROJECTS/Mol_Feturizer/New_Systems/rnas/2oe8

>  <Rbt.Executable>
rbdock ($Id: //depot/dev/client3/rdock/2013.1/src/exe/rbdock.cxx#4 $)

>  <Rbt.Library>
libRbt.so (2013.1, Build901 2013/11/27)

>  <Rbt.Parameter_File>
/export/apps/rDock/src/rDock_2013.1_src/data/scripts/dock_solv.prm

>  <Rbt.Receptor>
prm/blind_docking_80.prm

>  <SCORE>
-23.5695

>  <SCORE.INTER>
-21.432

>  <SCORE.INTER.CONST>
1

>  <SCORE.INTER.POLAR>
-2.90988

>  <SCORE.INTER.ROT>
6

>  <SCORE.INTER.SOLV>
15.088

>  <SCORE.INTER.VDW>
-17.2177

>  <SCORE.INTER.norm>
-0.579242

>  <SCORE.INTRA>
-2.13754

>  <SCORE.INTRA.DIHEDRAL>
-7.87456

>  <SCORE.INTRA.DIHEDRAL.0>
16.4056

>  <SCORE.INTRA.POLAR>
0

>  <SCORE.INTRA.POLAR.0>
0

>  <SCORE.INTRA.REPUL>
0

>  <SCORE.INTRA.REPUL.0>
0

>  <SCORE.INTRA.SOLV>
-0.258735

>  <SCORE.INTRA.SOLV.lig_0>
-90.9627

>  <SCORE.INTRA.VDW>
1.92911

>  <SCORE.INTRA.VDW.0>
-3.28744

>  <SCORE.INTRA.norm>
-0.0577713

>  <SCORE.RESTR>
0

>  <SCORE.RESTR.CAVITY>
0

>  <SCORE.RESTR.norm>
0

>  <SCORE.SYSTEM>
0

>  <SCORE.SYSTEM.CONST>
0

>  <SCORE.SYSTEM.DIHEDRAL>
0

>  <SCORE.SYSTEM.SOLV>
0

>  <SCORE.SYSTEM.norm>
0

>  <SCORE.heavy>
37

>  <SCORE.norm>
-0.637013

>  <RMSD>
8.648

$$$$
2oe8_lig
 OpenBabel11021811463D
libRbt.so/2013.1/901 2013/11/27
 37 40  0  0  0  0  0  0  0  0999 V2000
   18.6476   -6.4153   48.2236 C   0  0  1  0  0  0  0  0  0  0  0  0
   18.8726   -7.5609   47.1650 C   0  0  1  0  0  0  0  0  0  0  0  0
   19.0879   -6.9337   45.7718 C   0  0  0  0  0  0  0  0  0  0  0  0
   17.7942   -6.1184   45.4595 C   0  0  1  0  0  0  0  0  0  0  0  0
   17.5392   -4.9537   46.5478 C   0  0  1  0  0  0  0  0  0  0  0  0
   16.2399   -4.1477   46.2542 C   0  0  1  0  0  0  0  0  0  0  0  0
   16.3820   -3.5381   44.7999 C   0  0  1  0  0  0  0  0  0  0  0  0
   16.6734   -4.7014   43.7891 C   0  0  2  0  0  0  0  0  0  0  0  0
   13.9258   -3.5027   43.8710 C   0  0  0  0  0  0  0  0  0  0  0  0
   20.0641   -8.3897   47.5335 N   0  0  0  0  0  0  0  0  0  0  0  0
   15.1290   -2.7637   44.4002 N   0  0  0  0  0  0  0  0  0  0  0  0
   19.7882   -5.5530   48.3212 O   0  0  0  0  0  0  0  0  0  0  0  0
   17.4649   -5.5728   47.8785 O   0  0  0  0  0  0  0  0  0  0  0  0
   17.8864   -5.4954   44.1440 O   0  0  0  0  0  0  0  0  0  0  0  0
   15.1464   -5.0611   46.3575 O   0  0  0  0  0  0  0  0  0  0  0  0
   16.8593   -4.1653   42.5301 O   0  0  0  0  0  0  0  0  0  0  0  0
   17.2751   -5.1354   41.5539 C   0  0  2  0  0  0  0  0  0  0  0  0
   17.6188   -4.4373   40.2160 C   0  0  1  0  0  0  0  0  0  0  0  0
   16.3591   -3.7969   39.5563 C   0  0  2  0  0  0  0  0  0  0  0  0
   15.2881   -4.9008   39.3126 C   0  0  1  0  0  0  0  0  0  0  0  0
   14.9274   -5.5139   40.7294 C   0  0  1  0  0  0  0  0  0  0  0  0
   13.8901   -6.6280   40.6227 C   0  0  0  0  0  0  0  0  0  0  0  0
   14.0828   -4.2910   38.6817 N   0  0  0  0  0  0  0  0  0  0  0  0
   16.1738   -6.1079   41.3303 O   0  0  0  0  0  0  0  0  0  0  0  0
   18.6380   -3.4584   40.4947 O   0  0  0  0  0  0  0  0  0  0  0  0
   16.7437   -3.2254   38.3234 O   0  0  0  0  0  0  0  0  0  0  0  0
   14.4693   -7.7483   40.0074 O   0  0  0  0  0  0  0  0  0  0  0  0
   19.9933   -5.0299   49.6174 C   0  0  1  0  0  0  0  0  0  0  0  0
   21.5229   -4.7677   49.8000 C   0  0  1  0  0  0  0  0  0  0  0  0
   21.7672   -4.2201   51.2364 C   0  0  2  0  0  0  0  0  0  0  0  0
   20.9693   -2.9001   51.4696 C   0  0  1  0  0  0  0  0  0  0  0  0
   19.4254   -3.1525   51.2765 C   0  0  0  0  0  0  0  0  0  0  0  0
   19.1802   -3.7039   49.8109 C   0  0  2  0  0  0  0  0  0  0  0  0
   21.2150   -2.3999   52.8506 N   0  0  0  0  0  0  0  0  0  0  0  0
   17.7284   -3.9344   49.6368 N   0  0  0  0  0  0  0  0  0  0  0  0
   22.2638   -5.9905   49.6301 O   0  0  0  0  0  0  0  0  0  0  0  0
   23.1590   -3.9848   51.3727 O   0  0  0  0  0  0  0  0  0  0  0  0
  1  2  1  0  0  0  0
  1 12  1  6  0  0  0
  1 13  1  0  0  0  0
  2  3  1  0  0  0  0
  2 10  1  1  0  0  0
  4  3  1  1  0  0  0
  4  5  1  0  0  0  0
  4 14  1  0  0  0  0
  5  6  1  0  0  0  0
  5 13  1  1  0  0  0
  6  7  1  0  0  0  0
  6 15  1  6  0  0  0
  7  8  1  0  0  0  0
  7 11  1  6  0  0  0
  8 14  1  0  0  0  0
  8 16  1  6  0  0  0
  9 11  1  0  0  0  0
 17 16  1  1  0  0  0
 17 18  1  0  0  0  0
 17 24  1  0  0  0  0
 18 19  1  0  0  0  0
 18 25  1  1  0  0  0
 19 20  1  0  0  0  0
 19 26  1  6  0  0  0
 20 21  1  0  0  0  0
 20 23  1  1  0  0  0
 21 22  1  6  0  0  0
 21 24  1  0  0  0  0
 22 27  1  0  0  0  0
 28 12  1  6  0  0  0
 28 29  1  0  0  0  0
 28 33  1  0  0  0  0
 29 30  1  0  0  0  0
 29 36  1  1  0  0  0
 30 31  1  0  0  0  0
 30 37  1  6  0  0  0
 31 32  1  0  0  0  0
 31 34  1  1  0  0  0
 32 33  1  0  0  0  0
 33 35  1  1  0  0  0
M  END
>  <CHROM.1>
-147.33202756,-81.57348435,173.69591264,-173.51798600,69.81281410,151.22726055
17.83710692,-4.88006906,45.37651080,-0.94744602,0.69190668,-2.04326108

>  <Name>
2oe8_lig

>  <RI>
0

>  <Rbt.Current_Directory>
/home/itssahil/PROJECTS/Mol_Feturizer/New_Systems/rnas/2oe8

>  <Rbt.Executable>
rbdock ($Id: //depot/dev/client3/rdock/2013.1/src/exe/rbdock.cxx#4 $)

>  <Rbt.Library>
libRbt.so (2013.1, Build901 2013/11/27)

>  <Rbt.Parameter_File>
/export/apps/rDock/src/rDock_2013.1_src/data/scripts/dock_solv.prm

>  <Rbt.Receptor>
prm/blind_docking_100.prm

>  <SCORE>
-23.4082

>  <SCORE.INTER>
-21.9111

>  <SCORE.INTER.CONST>
1

>  <SCORE.INTER.POLAR>
-2.90988

>  <SCORE.INTER.ROT>
6

>  <SCORE.INTER.SOLV>
15.7436

>  <SCORE.INTER.VDW>
-17.7557

>  <SCORE.INTER.norm>
-0.592192

>  <SCORE.INTRA>
-1.49706

>  <SCORE.INTRA.DIHEDRAL>
-7.81978

>  <SCORE.INTRA.DIHEDRAL.0>
16.4056

>  <SCORE.INTRA.POLAR>
0

>  <SCORE.INTRA.POLAR.0>
0

>  <SCORE.INTRA.REPUL>
0

>  <SCORE.INTRA.REPUL.0>
0

>  <SCORE.INTRA.SOLV>
0.440372

>  <SCORE.INTRA.SOLV.lig_0>
-90.9627

>  <SCORE.INTRA.VDW>
2.19264

>  <SCORE.INTRA.VDW.0>
-3.28744

>  <SCORE.INTRA.norm>
-0.0404612

>  <SCORE.RESTR>
0

>  <SCORE.RESTR.CAVITY>
0

>  <SCORE.RESTR.norm>
0

>  <SCORE.SYSTEM>
0

>  <SCORE.SYSTEM.CONST>
0

>  <SCORE.SYSTEM.DIHEDRAL>
0

>  <SCORE.SYSTEM.SOLV>
0

>  <SCORE.SYSTEM.norm>
0

>  <SCORE.heavy>
37

>  <SCORE.norm>
-0.632653

>  <RMSD>
8.675

$$$$
2oe8_lig
 OpenBabel11021811463D
libRbt.so/2013.1/901 2013/11/27
 37 40  0  0  0  0  0  0  0  0999 V2000
   20.6743   -4.7817   47.0094 C   0  0  1  0  0  0  0  0  0  0  0  0
   20.9474   -5.1571   45.5034 C   0  0  1  0  0  0  0  0  0  0  0  0
   19.9214   -4.4372   44.6036 C   0  0  0  0  0  0  0  0  0  0  0  0
   18.5160   -4.9337   45.0665 C   0  0  1  0  0  0  0  0  0  0  0  0
   18.2302   -4.5743   46.6141 C   0  0  1  0  0  0  0  0  0  0  0  0
   16.8376   -5.0831   47.0893 C   0  0  1  0  0  0  0  0  0  0  0  0
   15.7486   -4.4240   46.1477 C   0  0  1  0  0  0  0  0  0  0  0  0
   16.0958   -4.7634   44.6564 C   0  0  2  0  0  0  0  0  0  0  0  0
   13.8029   -6.1698   45.8972 C   0  0  0  0  0  0  0  0  0  0  0  0
   22.3343   -4.7566   45.1056 N   0  0  0  0  0  0  0  0  0  0  0  0
   14.3445   -4.9017   46.5076 N   0  0  0  0  0  0  0  0  0  0  0  0
   20.8249   -3.3753   47.2403 O   0  0  0  0  0  0  0  0  0  0  0  0
   19.2964   -5.1700   47.4314 O   0  0  0  0  0  0  0  0  0  0  0  0
   17.4657   -4.3233   44.2593 O   0  0  0  0  0  0  0  0  0  0  0  0
   16.8542   -6.5080   46.9886 O   0  0  0  0  0  0  0  0  0  0  0  0
   15.1831   -4.1379   43.8301 O   0  0  0  0  0  0  0  0  0  0  0  0
   14.9496   -4.8458   42.6007 C   0  0  2  0  0  0  0  0  0  0  0  0
   15.5581   -4.0675   41.4093 C   0  0  1  0  0  0  0  0  0  0  0  0
   14.8304   -2.7086   41.1726 C   0  0  2  0  0  0  0  0  0  0  0  0
   13.3184   -2.9733   40.9097 C   0  0  1  0  0  0  0  0  0  0  0  0
   12.7463   -3.6976   42.1986 C   0  0  1  0  0  0  0  0  0  0  0  0
   11.2632   -4.0282   42.0574 C   0  0  0  0  0  0  0  0  0  0  0  0
   12.6205   -1.6756   40.6829 N   0  0  0  0  0  0  0  0  0  0  0  0
   13.4859   -4.9950   42.3920 O   0  0  0  0  0  0  0  0  0  0  0  0
   16.9597   -3.8870   41.6884 O   0  0  0  0  0  0  0  0  0  0  0  0
   15.4081   -2.0842   40.0453 O   0  0  0  0  0  0  0  0  0  0  0  0
   11.0882   -4.9566   41.0199 O   0  0  0  0  0  0  0  0  0  0  0  0
   21.2906   -3.0609   48.5365 C   0  0  1  0  0  0  0  0  0  0  0  0
   22.7949   -3.4738   48.6267 C   0  0  1  0  0  0  0  0  0  0  0  0
   23.3128   -3.1617   50.0610 C   0  0  2  0  0  0  0  0  0  0  0  0
   23.1567   -1.6445   50.3888 C   0  0  1  0  0  0  0  0  0  0  0  0
   21.6429   -1.2161   50.2894 C   0  0  0  0  0  0  0  0  0  0  0  0
   21.1214   -1.5298   48.8259 C   0  0  2  0  0  0  0  0  0  0  0  0
   23.6532   -1.3727   51.7662 N   0  0  0  0  0  0  0  0  0  0  0  0
   19.7012   -1.1211   48.7401 N   0  0  0  0  0  0  0  0  0  0  0  0
   22.9433   -4.8826   48.3690 O   0  0  0  0  0  0  0  0  0  0  0  0
   24.6789   -3.5386   50.1132 O   0  0  0  0  0  0  0  0  0  0  0  0
  1  2  1  0  0  0  0
  1 12  1  6  0  0  0
  1 13  1  0  0  0  0
  2  3  1  0  0  0  0
  2 10  1  6  0  0  0
  4  3  1  6  0  0  0
  4  5  1  0  0  0  0
  4 14  1  0  0  0  0
  5  6  1  0  0  0  0
  5 13  1  1  0  0  0
  6  7  1  0  0  0  0
  6 15  1  6  0  0  0
  7  8  1  0  0  0  0
  7 11  1  1  0  0  0
  8 14  1  0  0  0  0
  8 16  1  6  0  0  0
  9 11  1  0  0  0  0
 17 16  1  1  0  0  0
 17 18  1  0  0  0  0
 17 24  1  0  0  0  0
 18 19  1  0  0  0  0
 18 25  1  1  0  0  0
 19 20  1  0  0  0  0
 19 26  1  6  0  0  0
 20 21  1  0  0  0  0
 20 23  1  1  0  0  0
 21 22  1  6  0  0  0
 21 24  1  0  0  0  0
 22 27  1  0  0  0  0
 28 12  1  6  0  0  0
 28 29  1  0  0  0  0
 28 33  1  0  0  0  0
 29 30  1  0  0  0  0
 29 36  1  1  0  0  0
 30 31  1  0  0  0  0
 30 37  1  6  0  0  0
 31 32  1  0  0  0  0
 31 34  1  1  0  0  0
 32 33  1  0  0  0  0
 33 35  1  1  0  0  0
M  END
>  <CHROM.1>
-148.33821461,-86.96047413,-150.39465041,-109.76236976,64.34784943,71.67585924
17.90541572,-3.87563360,45.53008925,0.60092913,0.35234510,1.91101817

>  <Name>
2oe8_lig

>  <RI>
0

>  <Rbt.Current_Directory>
/home/itssahil/PROJECTS/Mol_Feturizer/New_Systems/rnas/2oe8

>  <Rbt.Executable>
rbdock ($Id: //depot/dev/client3/rdock/2013.1/src/exe/rbdock.cxx#4 $)

>  <Rbt.Library>
libRbt.so (2013.1, Build901 2013/11/27)

>  <Rbt.Parameter_File>
/export/apps/rDock/src/rDock_2013.1_src/data/scripts/dock_solv.prm

>  <Rbt.Receptor>
prm/blind_docking_60.prm

>  <SCORE>
-11.8777

>  <SCORE.INTER>
-12.942

>  <SCORE.INTER.CONST>
1

>  <SCORE.INTER.POLAR>
-1.86833

>  <SCORE.INTER.ROT>
6

>  <SCORE.INTER.SOLV>
20.1806

>  <SCORE.INTER.VDW>
-16.7271

>  <SCORE.INTER.norm>
-0.349784

>  <SCORE.INTRA>
1.06435

>  <SCORE.INTRA.DIHEDRAL>
-1.04479

>  <SCORE.INTRA.DIHEDRAL.0>
16.4056

>  <SCORE.INTRA.POLAR>
0

>  <SCORE.INTRA.POLAR.0>
0

>  <SCORE.INTRA.REPUL>
0

>  <SCORE.INTRA.REPUL.0>
0

>  <SCORE.INTRA.SOLV>
-0.843075

>  <SCORE.INTRA.SOLV.lig_0>
-90.9627

>  <SCORE.INTRA.VDW>
2.00828

>  <SCORE.INTRA.VDW.0>
-3.28744

>  <SCORE.INTRA.norm>
0.0287662

>  <SCORE.RESTR>
0

>  <SCORE.RESTR.CAVITY>
0

>  <SCORE.RESTR.norm>
0

>  <SCORE.SYSTEM>
0

>  <SCORE.SYSTEM.CONST>
0

>  <SCORE.SYSTEM.DIHEDRAL>
0

>  <SCORE.SYSTEM.SOLV>
0

>  <SCORE.SYSTEM.norm>
0

>  <SCORE.heavy>
37

>  <SCORE.norm>
-0.321018

>  <RMSD>
8.715

$$$$
2oe8_lig
 OpenBabel11021811463D
libRbt.so/2013.1/901 2013/11/27
 37 40  0  0  0  0  0  0  0  0999 V2000
   17.9359   -4.1159   47.9125 C   0  0  1  0  0  0  0  0  0  0  0  0
   18.8454   -5.1954   47.2117 C   0  0  1  0  0  0  0  0  0  0  0  0
   19.0459   -4.8107   45.7310 C   0  0  0  0  0  0  0  0  0  0  0  0
   17.6203   -4.7715   45.0970 C   0  0  1  0  0  0  0  0  0  0  0  0
   16.6701   -3.6841   45.8186 C   0  0  1  0  0  0  0  0  0  0  0  0
   15.2398   -3.6522   45.2045 C   0  0  1  0  0  0  0  0  0  0  0  0
   15.3961   -3.3283   43.6625 C   0  0  1  0  0  0  0  0  0  0  0  0
   16.3619   -4.3831   43.0185 C   0  0  2  0  0  0  0  0  0  0  0  0
   13.6854   -2.1917   42.0260 C   0  0  0  0  0  0  0  0  0  0  0  0
   20.1757   -5.2837   47.8934 N   0  0  0  0  0  0  0  0  0  0  0  0
   14.0418   -3.3216   42.9589 N   0  0  0  0  0  0  0  0  0  0  0  0
   18.5436   -2.8180   47.8928 O   0  0  0  0  0  0  0  0  0  0  0  0
   16.6026   -4.0072   47.2506 O   0  0  0  0  0  0  0  0  0  0  0  0
   17.6987   -4.4339   43.6803 O   0  0  0  0  0  0  0  0  0  0  0  0
   14.6548   -4.9349   45.4350 O   0  0  0  0  0  0  0  0  0  0  0  0
   16.5488   -4.0660   41.6875 O   0  0  0  0  0  0  0  0  0  0  0  0
   16.7670   -5.2165   40.8534 C   0  0  2  0  0  0  0  0  0  0  0  0
   16.5659   -4.8456   39.3642 C   0  0  1  0  0  0  0  0  0  0  0  0
   15.0846   -4.4676   39.0561 C   0  0  2  0  0  0  0  0  0  0  0  0
   14.1598   -5.6638   39.4289 C   0  0  1  0  0  0  0  0  0  0  0  0
   14.3579   -5.9342   40.9784 C   0  0  1  0  0  0  0  0  0  0  0  0
   13.5095   -7.1048   41.4672 C   0  0  0  0  0  0  0  0  0  0  0  0
   12.7430   -5.3050   39.1350 N   0  0  0  0  0  0  0  0  0  0  0  0
   15.8015   -6.2825   41.2274 O   0  0  0  0  0  0  0  0  0  0  0  0
   17.4711   -3.7651   39.0674 O   0  0  0  0  0  0  0  0  0  0  0  0
   14.9732   -4.1911   37.6757 O   0  0  0  0  0  0  0  0  0  0  0  0
   13.7872   -7.3499   42.8207 O   0  0  0  0  0  0  0  0  0  0  0  0
   19.6013   -2.6738   48.8182 C   0  0  1  0  0  0  0  0  0  0  0  0
   20.6473   -1.6843   48.2113 C   0  0  1  0  0  0  0  0  0  0  0  0
   21.8345   -1.5404   49.2077 C   0  0  2  0  0  0  0  0  0  0  0  0
   21.3384   -1.0098   50.5882 C   0  0  1  0  0  0  0  0  0  0  0  0
   20.2739   -1.9965   51.2032 C   0  0  0  0  0  0  0  0  0  0  0  0
   19.0642   -2.1353   50.1886 C   0  0  2  0  0  0  0  0  0  0  0  0
   22.4900   -0.8862   51.5242 N   0  0  0  0  0  0  0  0  0  0  0  0
   18.0681   -3.0599   50.7753 N   0  0  0  0  0  0  0  0  0  0  0  0
   21.1439   -2.1882   46.9572 O   0  0  0  0  0  0  0  0  0  0  0  0
   22.7636   -0.6338   48.6369 O   0  0  0  0  0  0  0  0  0  0  0  0
  1  2  1  0  0  0  0
  1 12  1  6  0  0  0
  1 13  1  0  0  0  0
  2  3  1  0  0  0  0
  2 10  1  1  0  0  0
  4  3  1  1  0  0  0
  4  5  1  0  0  0  0
  4 14  1  0  0  0  0
  5  6  1  0  0  0  0
  5 13  1  1  0  0  0
  6  7  1  0  0  0  0
  6 15  1  6  0  0  0
  7  8  1  0  0  0  0
  7 11  1  6  0  0  0
  8 14  1  0  0  0  0
  8 16  1  6  0  0  0
  9 11  1  0  0  0  0
 17 16  1  1  0  0  0
 17 18  1  0  0  0  0
 17 24  1  0  0  0  0
 18 19  1  0  0  0  0
 18 25  1  1  0  0  0
 19 20  1  0  0  0  0
 19 26  1  6  0  0  0
 20 21  1  0  0  0  0
 20 23  1  1  0  0  0
 21 22  1  6  0  0  0
 21 24  1  0  0  0  0
 22 27  1  0  0  0  0
 28 12  1  6  0  0  0
 28 29  1  0  0  0  0
 28 33  1  0  0  0  0
 29 30  1  0  0  0  0
 29 36  1  6  0  0  0
 30 31  1  0  0  0  0
 30 37  1  6  0  0  0
 31 32  1  0  0  0  0
 31 34  1  1  0  0  0
 32 33  1  0  0  0  0
 33 35  1  1  0  0  0
M  END
>  <CHROM.1>
-75.09386298,133.07589886,-148.59340530,163.88795841,176.35379051,147.93784570
17.32312154,-3.87069960,44.80442323,0.94950693,0.48892229,1.58619720

>  <Name>
2oe8_lig

>  <RI>
0

>  <Rbt.Current_Directory>
/home/itssahil/PROJECTS/Mol_Feturizer/New_Systems/rnas/2oe8

>  <Rbt.Executable>
rbdock ($Id: //depot/dev/client3/rdock/2013.1/src/exe/rbdock.cxx#4 $)

>  <Rbt.Library>
libRbt.so (2013.1, Build901 2013/11/27)

>  <Rbt.Parameter_File>
/export/apps/rDock/src/rDock_2013.1_src/data/scripts/dock_solv.prm

>  <Rbt.Receptor>
prm/blind_docking_60.prm

>  <SCORE>
-16.6027

>  <SCORE.INTER>
-14.5512

>  <SCORE.INTER.CONST>
1

>  <SCORE.INTER.POLAR>
-1.69248

>  <SCORE.INTER.ROT>
6

>  <SCORE.INTER.SOLV>
13.0806

>  <SCORE.INTER.VDW>
-16.0194

>  <SCORE.INTER.norm>
-0.393277

>  <SCORE.INTRA>
-2.05146

>  <SCORE.INTRA.DIHEDRAL>
-5.14819

>  <SCORE.INTRA.DIHEDRAL.0>
16.4056

>  <SCORE.INTRA.POLAR>
0

>  <SCORE.INTRA.POLAR.0>
0

>  <SCORE.INTRA.REPUL>
0.0401462

>  <SCORE.INTRA.REPUL.0>
0

>  <SCORE.INTRA.SOLV>
1.87306

>  <SCORE.INTRA.SOLV.lig_0>
-90.9627

>  <SCORE.INTRA.VDW>
-0.614628

>  <SCORE.INTRA.VDW.0>
-3.28744

>  <SCORE.INTRA.norm>
-0.0554449

>  <SCORE.RESTR>
0

>  <SCORE.RESTR.CAVITY>
0

>  <SCORE.RESTR.norm>
0

>  <SCORE.SYSTEM>
0

>  <SCORE.SYSTEM.CONST>
0

>  <SCORE.SYSTEM.DIHEDRAL>
0

>  <SCORE.SYSTEM.SOLV>
0

>  <SCORE.SYSTEM.norm>
0

>  <SCORE.heavy>
37

>  <SCORE.norm>
-0.448722

>  <RMSD>
8.793

$$$$
2oe8_lig
 OpenBabel11021811463D
libRbt.so/2013.1/901 2013/11/27
 37 40  0  0  0  0  0  0  0  0999 V2000
   19.6179   -4.0110   46.9488 C   0  0  1  0  0  0  0  0  0  0  0  0
   20.3388   -4.7871   45.7820 C   0  0  1  0  0  0  0  0  0  0  0  0
   19.8031   -4.2825   44.4258 C   0  0  0  0  0  0  0  0  0  0  0  0
   18.2686   -4.5671   44.4336 C   0  0  1  0  0  0  0  0  0  0  0  0
   17.5191   -3.7948   45.6368 C   0  0  1  0  0  0  0  0  0  0  0  0
   15.9904   -4.0886   45.6632 C   0  0  1  0  0  0  0  0  0  0  0  0
   15.4020   -3.6506   44.2601 C   0  0  1  0  0  0  0  0  0  0  0  0
   16.1918   -4.3918   43.1257 C   0  0  2  0  0  0  0  0  0  0  0  0
   13.0230   -3.0872   43.3012 C   0  0  0  0  0  0  0  0  0  0  0  0
   21.8199   -4.5766   45.8479 N   0  0  0  0  0  0  0  0  0  0  0  0
   13.9070   -3.9447   44.1713 N   0  0  0  0  0  0  0  0  0  0  0  0
   19.8798   -2.6032   46.8896 O   0  0  0  0  0  0  0  0  0  0  0  0
   18.1385   -4.2037   46.9051 O   0  0  0  0  0  0  0  0  0  0  0  0
   17.6624   -4.1422   43.1769 O   0  0  0  0  0  0  0  0  0  0  0  0
   15.8356   -5.4879   45.9059 O   0  0  0  0  0  0  0  0  0  0  0  0
   15.7220   -3.9643   41.8995 O   0  0  0  0  0  0  0  0  0  0  0  0
   16.0464   -4.8592   40.8221 C   0  0  2  0  0  0  0  0  0  0  0  0
   16.9310   -4.1401   39.7751 C   0  0  1  0  0  0  0  0  0  0  0  0
   16.1591   -2.9925   39.0545 C   0  0  2  0  0  0  0  0  0  0  0  0
   14.8949   -3.5794   38.3598 C   0  0  1  0  0  0  0  0  0  0  0  0
   14.0014   -4.2260   39.4985 C   0  0  1  0  0  0  0  0  0  0  0  0
   12.7290   -4.8554   38.9384 C   0  0  0  0  0  0  0  0  0  0  0  0
   14.1553   -2.4841   37.6699 N   0  0  0  0  0  0  0  0  0  0  0  0
   14.7914   -5.3172   40.1713 O   0  0  0  0  0  0  0  0  0  0  0  0
   18.0990   -3.6545   40.4642 O   0  0  0  0  0  0  0  0  0  0  0  0
   17.0131   -2.4207   38.0860 O   0  0  0  0  0  0  0  0  0  0  0  0
   11.8878   -3.8471   38.4435 O   0  0  0  0  0  0  0  0  0  0  0  0
   20.2793   -2.0490   48.1262 C   0  0  1  0  0  0  0  0  0  0  0  0
   19.3348   -2.6085   49.2381 C   0  0  1  0  0  0  0  0  0  0  0  0
   19.7440   -1.9811   50.6026 C   0  0  2  0  0  0  0  0  0  0  0  0
   21.2280   -2.3189   50.9451 C   0  0  1  0  0  0  0  0  0  0  0  0
   22.1878   -1.7679   49.8227 C   0  0  0  0  0  0  0  0  0  0  0  0
   21.7718   -2.4138   48.4364 C   0  0  2  0  0  0  0  0  0  0  0  0
   21.5966   -1.7039   52.2503 N   0  0  0  0  0  0  0  0  0  0  0  0
   22.6800   -1.8942   47.3894 N   0  0  0  0  0  0  0  0  0  0  0  0
   17.9665   -2.2628   48.9528 O   0  0  0  0  0  0  0  0  0  0  0  0
   18.8775   -2.5098   51.5928 O   0  0  0  0  0  0  0  0  0  0  0  0
  1  2  1  0  0  0  0
  1 12  1  6  0  0  0
  1 13  1  0  0  0  0
  2  3  1  0  0  0  0
  2 10  1  6  0  0  0
  4  3  1  6  0  0  0
  4  5  1  0  0  0  0
  4 14  1  0  0  0  0
  5  6  1  0  0  0  0
  5 13  1  1  0  0  0
  6  7  1  0  0  0  0
  6 15  1  6  0  0  0
  7  8  1  0  0  0  0
  7 11  1  1  0  0  0
  8 14  1  0  0  0  0
  8 16  1  6  0  0  0
  9 11  1  0  0  0  0
 17 16  1  1  0  0  0
 17 18  1  0  0  0  0
 17 24  1  0  0  0  0
 18 19  1  0  0  0  0
 18 25  1  1  0  0  0
 19 20  1  0  0  0  0
 19 26  1  6  0  0  0
 20 21  1  0  0  0  0
 20 23  1  1  0  0  0
 21 22  1  6  0  0  0
 21 24  1  0  0  0  0
 22 27  1  0  0  0  0
 28 12  1  6  0  0  0
 28 29  1  0  0  0  0
 28 33  1  0  0  0  0
 29 30  1  0  0  0  0
 29 36  1  6  0  0  0
 30 31  1  0  0  0  0
 30 37  1  1  0  0  0
 31 32  1  0  0  0  0
 31 34  1  1  0  0  0
 32 33  1  0  0  0  0
 33 35  1  6  0  0  0
M  END
>  <CHROM.1>
-131.47221432,150.88716302,-161.01385862,-118.63428014,-67.59895108,-44.92163378
17.56109662,-3.50386084,44.47676657,-1.03055569,-0.12034756,-1.63278456

>  <Name>
2oe8_lig

>  <RI>
0

>  <Rbt.Current_Directory>
/home/itssahil/PROJECTS/Mol_Feturizer/New_Systems/rnas/2oe8

>  <Rbt.Executable>
rbdock ($Id: //depot/dev/client3/rdock/2013.1/src/exe/rbdock.cxx#4 $)

>  <Rbt.Library>
libRbt.so (2013.1, Build901 2013/11/27)

>  <Rbt.Parameter_File>
/export/apps/rDock/src/rDock_2013.1_src/data/scripts/dock_solv.prm

>  <Rbt.Receptor>
prm/blind_docking_100.prm

>  <SCORE>
-17.5991

>  <SCORE.INTER>
-19.9918

>  <SCORE.INTER.CONST>
1

>  <SCORE.INTER.POLAR>
-2.38634

>  <SCORE.INTER.ROT>
6

>  <SCORE.INTER.SOLV>
13.7729

>  <SCORE.INTER.VDW>
-17.5644

>  <SCORE.INTER.norm>
-0.540319

>  <SCORE.INTRA>
2.39271

>  <SCORE.INTRA.DIHEDRAL>
0.837288

>  <SCORE.INTRA.DIHEDRAL.0>
16.4056

>  <SCORE.INTRA.POLAR>
0

>  <SCORE.INTRA.POLAR.0>
0

>  <SCORE.INTRA.REPUL>
0

>  <SCORE.INTRA.REPUL.0>
0

>  <SCORE.INTRA.SOLV>
0.97506

>  <SCORE.INTRA.SOLV.lig_0>
-90.9627

>  <SCORE.INTRA.VDW>
1.48653

>  <SCORE.INTRA.VDW.0>
-3.28744

>  <SCORE.INTRA.norm>
0.0646677

>  <SCORE.RESTR>
0

>  <SCORE.RESTR.CAVITY>
0

>  <SCORE.RESTR.norm>
0

>  <SCORE.SYSTEM>
0

>  <SCORE.SYSTEM.CONST>
0

>  <SCORE.SYSTEM.DIHEDRAL>
0

>  <SCORE.SYSTEM.SOLV>
0

>  <SCORE.SYSTEM.norm>
0

>  <SCORE.heavy>
37

>  <SCORE.norm>
-0.475652

>  <RMSD>
8.917

$$$$
2oe8_lig
 OpenBabel11021811463D
libRbt.so/2013.1/901 2013/11/27
 37 40  0  0  0  0  0  0  0  0999 V2000
   19.8605   -3.5543   47.8491 C   0  0  1  0  0  0  0  0  0  0  0  0
   18.5567   -2.7801   48.2782 C   0  0  1  0  0  0  0  0  0  0  0  0
   17.3444   -3.3638   47.5229 C   0  0  0  0  0  0  0  0  0  0  0  0
   17.6461   -3.1693   46.0040 C   0  0  1  0  0  0  0  0  0  0  0  0
   18.9911   -3.9401   45.5538 C   0  0  1  0  0  0  0  0  0  0  0  0
   19.3098   -3.7354   44.0437 C   0  0  1  0  0  0  0  0  0  0  0  0
   18.0602   -4.2575   43.2234 C   0  0  1  0  0  0  0  0  0  0  0  0
   16.7755   -3.5129   43.7284 C   0  0  2  0  0  0  0  0  0  0  0  0
   17.4687   -4.8825   40.7423 C   0  0  0  0  0  0  0  0  0  0  0  0
   18.3359   -2.9011   49.7543 N   0  0  0  0  0  0  0  0  0  0  0  0
   18.2593   -4.0546   41.7239 N   0  0  0  0  0  0  0  0  0  0  0  0
   19.7849   -4.9456   48.1847 O   0  0  0  0  0  0  0  0  0  0  0  0
   20.1032   -3.4501   46.3802 O   0  0  0  0  0  0  0  0  0  0  0  0
   16.5433   -3.6740   45.1940 O   0  0  0  0  0  0  0  0  0  0  0  0
   19.5444   -2.3397   43.8493 O   0  0  0  0  0  0  0  0  0  0  0  0
   15.6758   -4.0111   43.0579 O   0  0  0  0  0  0  0  0  0  0  0  0
   14.4255   -3.6569   43.6728 C   0  0  2  0  0  0  0  0  0  0  0  0
   13.8357   -4.8722   44.4284 C   0  0  1  0  0  0  0  0  0  0  0  0
   13.4317   -6.0203   43.4534 C   0  0  2  0  0  0  0  0  0  0  0  0
   12.3894   -5.4827   42.4288 C   0  0  1  0  0  0  0  0  0  0  0  0
   13.0874   -4.2980   41.6398 C   0  0  1  0  0  0  0  0  0  0  0  0
   12.1544   -3.6711   40.6076 C   0  0  0  0  0  0  0  0  0  0  0  0
   12.0014   -6.5787   41.4956 N   0  0  0  0  0  0  0  0  0  0  0  0
   13.4689   -3.2222   42.6219 O   0  0  0  0  0  0  0  0  0  0  0  0
   14.8234   -5.3001   45.3856 O   0  0  0  0  0  0  0  0  0  0  0  0
   12.8603   -7.0669   44.2101 O   0  0  0  0  0  0  0  0  0  0  0  0
   11.9409   -4.5786   39.5587 O   0  0  0  0  0  0  0  0  0  0  0  0
   20.9241   -5.6847   47.7953 C   0  0  1  0  0  0  0  0  0  0  0  0
   22.0858   -5.3451   48.7836 C   0  0  1  0  0  0  0  0  0  0  0  0
   23.3576   -6.1293   48.3471 C   0  0  2  0  0  0  0  0  0  0  0  0
   23.0891   -7.6660   48.3491 C   0  0  1  0  0  0  0  0  0  0  0  0
   21.9107   -8.0170   47.3628 C   0  0  0  0  0  0  0  0  0  0  0  0
   20.6163   -7.2215   47.8144 C   0  0  2  0  0  0  0  0  0  0  0  0
   24.3172   -8.3929   47.9234 N   0  0  0  0  0  0  0  0  0  0  0  0
   19.5143   -7.5596   46.8857 N   0  0  0  0  0  0  0  0  0  0  0  0
   22.3703   -3.9339   48.7552 O   0  0  0  0  0  0  0  0  0  0  0  0
   24.3921   -5.8091   49.2626 O   0  0  0  0  0  0  0  0  0  0  0  0
  1  2  1  0  0  0  0
  1 12  1  6  0  0  0
  1 13  1  0  0  0  0
  2  3  1  0  0  0  0
  2 10  1  1  0  0  0
  4  3  1  1  0  0  0
  4  5  1  0  0  0  0
  4 14  1  0  0  0  0
  5  6  1  0  0  0  0
  5 13  1  1  0  0  0
  6  7  1  0  0  0  0
  6 15  1  1  0  0  0
  7  8  1  0  0  0  0
  7 11  1  6  0  0  0
  8 14  1  0  0  0  0
  8 16  1  6  0  0  0
  9 11  1  0  0  0  0
 17 16  1  6  0  0  0
 17 18  1  0  0  0  0
 17 24  1  0  0  0  0
 18 19  1  0  0  0  0
 18 25  1  1  0  0  0
 19 20  1  0  0  0  0
 19 26  1  1  0  0  0
 20 21  1  0  0  0  0
 20 23  1  6  0  0  0
 21 22  1  6  0  0  0
 21 24  1  0  0  0  0
 22 27  1  0  0  0  0
 28 12  1  1  0  0  0
 28 29  1  0  0  0  0
 28 33  1  0  0  0  0
 29 30  1  0  0  0  0
 29 36  1  6  0  0  0
 30 31  1  0  0  0  0
 30 37  1  1  0  0  0
 31 32  1  0  0  0  0
 31 34  1  6  0  0  0
 32 33  1  0  0  0  0
 33 35  1  6  0  0  0
M  END
>  <CHROM.1>
178.89005107,158.42869959,164.89276264,-104.27578686,-69.72883830,74.88604692
17.79324941,-4.82322375,45.26800196,0.12852427,-0.61337648,0.39214900

>  <Name>
2oe8_lig

>  <RI>
0

>  <Rbt.Current_Directory>
/home/itssahil/PROJECTS/Mol_Feturizer/New_Systems/rnas/2oe8

>  <Rbt.Executable>
rbdock ($Id: //depot/dev/client3/rdock/2013.1/src/exe/rbdock.cxx#4 $)

>  <Rbt.Library>
libRbt.so (2013.1, Build901 2013/11/27)

>  <Rbt.Parameter_File>
/export/apps/rDock/src/rDock_2013.1_src/data/scripts/dock_solv.prm

>  <Rbt.Receptor>
prm/blind_docking_60.prm

>  <SCORE>
-17.1567

>  <SCORE.INTER>
-15.8104

>  <SCORE.INTER.CONST>
1

>  <SCORE.INTER.POLAR>
-1.38274

>  <SCORE.INTER.ROT>
6

>  <SCORE.INTER.SOLV>
10.5486

>  <SCORE.INTER.VDW>
-17.0473

>  <SCORE.INTER.norm>
-0.427308

>  <SCORE.INTRA>
-1.34628

>  <SCORE.INTRA.DIHEDRAL>
-7.50324

>  <SCORE.INTRA.DIHEDRAL.0>
16.4056

>  <SCORE.INTRA.POLAR>
0

>  <SCORE.INTRA.POLAR.0>
0

>  <SCORE.INTRA.REPUL>
0

>  <SCORE.INTRA.REPUL.0>
0

>  <SCORE.INTRA.SOLV>
-1.53884

>  <SCORE.INTRA.SOLV.lig_0>
-90.9627

>  <SCORE.INTRA.VDW>
3.17476

>  <SCORE.INTRA.VDW.0>
-3.28744

>  <SCORE.INTRA.norm>
-0.036386

>  <SCORE.RESTR>
0

>  <SCORE.RESTR.CAVITY>
0

>  <SCORE.RESTR.norm>
0

>  <SCORE.SYSTEM>
0

>  <SCORE.SYSTEM.CONST>
0

>  <SCORE.SYSTEM.DIHEDRAL>
0

>  <SCORE.SYSTEM.SOLV>
0

>  <SCORE.SYSTEM.norm>
0

>  <SCORE.heavy>
37

>  <SCORE.norm>
-0.463694

>  <RMSD>
8.989

$$$$
2oe8_lig
 OpenBabel11021811463D
libRbt.so/2013.1/901 2013/11/27
 37 40  0  0  0  0  0  0  0  0999 V2000
   18.3994   -6.7531   47.9990 C   0  0  1  0  0  0  0  0  0  0  0  0
   18.6695   -7.8705   46.9211 C   0  0  1  0  0  0  0  0  0  0  0  0
   18.7789   -7.2191   45.5267 C   0  0  0  0  0  0  0  0  0  0  0  0
   17.4143   -6.5049   45.2742 C   0  0  1  0  0  0  0  0  0  0  0  0
   17.1140   -5.3709   46.3833 C   0  0  1  0  0  0  0  0  0  0  0  0
   15.7454   -4.6666   46.1496 C   0  0  1  0  0  0  0  0  0  0  0  0
   15.7808   -4.0380   44.6969 C   0  0  1  0  0  0  0  0  0  0  0  0
   16.1204   -5.1682   43.6638 C   0  0  2  0  0  0  0  0  0  0  0  0
   14.3598   -2.4679   43.1437 C   0  0  0  0  0  0  0  0  0  0  0  0
   19.9355   -8.6064   47.2336 N   0  0  0  0  0  0  0  0  0  0  0  0
   14.4564   -3.3608   44.3550 N   0  0  0  0  0  0  0  0  0  0  0  0
   19.4727   -5.8053   48.0597 O   0  0  0  0  0  0  0  0  0  0  0  0
   17.1419   -6.0029   47.7097 O   0  0  0  0  0  0  0  0  0  0  0  0
   17.4046   -5.8678   43.9623 O   0  0  0  0  0  0  0  0  0  0  0  0
   14.7311   -5.6631   46.2873 O   0  0  0  0  0  0  0  0  0  0  0  0
   16.2131   -4.6108   42.4038 O   0  0  0  0  0  0  0  0  0  0  0  0
   16.5388   -5.5670   41.3808 C   0  0  2  0  0  0  0  0  0  0  0  0
   17.1736   -4.8542   40.1623 C   0  0  1  0  0  0  0  0  0  0  0  0
   16.1569   -3.9120   39.4478 C   0  0  2  0  0  0  0  0  0  0  0  0
   14.9225   -4.7417   38.9863 C   0  0  1  0  0  0  0  0  0  0  0  0
   14.2789   -5.3742   40.2897 C   0  0  1  0  0  0  0  0  0  0  0  0
   13.0588   -6.2319   39.9661 C   0  0  0  0  0  0  0  0  0  0  0  0
   13.9491   -3.8431   38.3026 N   0  0  0  0  0  0  0  0  0  0  0  0
   15.2991   -6.2638   40.9495 O   0  0  0  0  0  0  0  0  0  0  0  0
   18.3283   -4.1381   40.6406 O   0  0  0  0  0  0  0  0  0  0  0  0
   16.7934   -3.3396   38.3246 O   0  0  0  0  0  0  0  0  0  0  0  0
   12.5418   -6.7753   41.1521 O   0  0  0  0  0  0  0  0  0  0  0  0
   19.7448   -5.3408   49.3659 C   0  0  1  0  0  0  0  0  0  0  0  0
   21.2655   -4.9918   49.4513 C   0  0  1  0  0  0  0  0  0  0  0  0
   21.5860   -4.5080   50.8956 C   0  0  2  0  0  0  0  0  0  0  0  0
   20.7310   -3.2560   51.2634 C   0  0  1  0  0  0  0  0  0  0  0  0
   19.1946   -3.5956   51.1691 C   0  0  0  0  0  0  0  0  0  0  0  0
   18.8714   -4.0817   49.6955 C   0  0  2  0  0  0  0  0  0  0  0  0
   21.0514   -2.8164   52.6497 N   0  0  0  0  0  0  0  0  0  0  0  0
   17.4268   -4.3946   49.6147 N   0  0  0  0  0  0  0  0  0  0  0  0
   22.0628   -6.1539   49.1565 O   0  0  0  0  0  0  0  0  0  0  0  0
   22.9676   -4.1920   50.9435 O   0  0  0  0  0  0  0  0  0  0  0  0
  1  2  1  0  0  0  0
  1 12  1  6  0  0  0
  1 13  1  0  0  0  0
  2  3  1  0  0  0  0
  2 10  1  1  0  0  0
  4  3  1  1  0  0  0
  4  5  1  0  0  0  0
  4 14  1  0  0  0  0
  5  6  1  0  0  0  0
  5 13  1  1  0  0  0
  6  7  1  0  0  0  0
  6 15  1  6  0  0  0
  7  8  1  0  0  0  0
  7 11  1  6  0  0  0
  8 14  1  0  0  0  0
  8 16  1  6  0  0  0
  9 11  1  0  0  0  0
 17 16  1  1  0  0  0
 17 18  1  0  0  0  0
 17 24  1  0  0  0  0
 18 19  1  0  0  0  0
 18 25  1  1  0  0  0
 19 20  1  0  0  0  0
 19 26  1  6  0  0  0
 20 21  1  0  0  0  0
 20 23  1  1  0  0  0
 21 22  1  6  0  0  0
 21 24  1  0  0  0  0
 22 27  1  0  0  0  0
 28 12  1  6  0  0  0
 28 29  1  0  0  0  0
 28 33  1  0  0  0  0
 29 30  1  0  0  0  0
 29 36  1  1  0  0  0
 30 31  1  0  0  0  0
 30 37  1  6  0  0  0
 31 32  1  0  0  0  0
 31 34  1  1  0  0  0
 32 33  1  0  0  0  0
 33 35  1  1  0  0  0
M  END
>  <CHROM.1>
-143.50939314,167.90407591,179.30555678,-157.27209955,179.35745668,150.00815240
17.44125313,-5.09525045,45.19170989,1.06397165,-0.12873790,1.49708634

>  <Name>
2oe8_lig

>  <RI>
0

>  <Rbt.Current_Directory>
/home/itssahil/PROJECTS/Mol_Feturizer/New_Systems/rnas/2oe8

>  <Rbt.Executable>
rbdock ($Id: //depot/dev/client3/rdock/2013.1/src/exe/rbdock.cxx#4 $)

>  <Rbt.Library>
libRbt.so (2013.1, Build901 2013/11/27)

>  <Rbt.Parameter_File>
/export/apps/rDock/src/rDock_2013.1_src/data/scripts/dock_solv.prm

>  <Rbt.Receptor>
prm/blind_docking_60.prm

>  <SCORE>
-18.6091

>  <SCORE.INTER>
-16.3611

>  <SCORE.INTER.CONST>
1

>  <SCORE.INTER.POLAR>
-1.85158

>  <SCORE.INTER.ROT>
6

>  <SCORE.INTER.SOLV>
14.1867

>  <SCORE.INTER.VDW>
-17.0644

>  <SCORE.INTER.norm>
-0.442191

>  <SCORE.INTRA>
-2.248

>  <SCORE.INTRA.DIHEDRAL>
-5.59489

>  <SCORE.INTRA.DIHEDRAL.0>
16.4056

>  <SCORE.INTRA.POLAR>
0

>  <SCORE.INTRA.POLAR.0>
0

>  <SCORE.INTRA.REPUL>
0

>  <SCORE.INTRA.REPUL.0>
0

>  <SCORE.INTRA.SOLV>
-0.391127

>  <SCORE.INTRA.SOLV.lig_0>
-90.9627

>  <SCORE.INTRA.VDW>
0.745008

>  <SCORE.INTRA.VDW.0>
-3.28744

>  <SCORE.INTRA.norm>
-0.0607568

>  <SCORE.RESTR>
0

>  <SCORE.RESTR.CAVITY>
0

>  <SCORE.RESTR.norm>
0

>  <SCORE.SYSTEM>
0

>  <SCORE.SYSTEM.CONST>
0

>  <SCORE.SYSTEM.DIHEDRAL>
0

>  <SCORE.SYSTEM.SOLV>
0

>  <SCORE.SYSTEM.norm>
0

>  <SCORE.heavy>
37

>  <SCORE.norm>
-0.502948

>  <RMSD>
9.099

$$$$
2oe8_lig
 OpenBabel11021811463D
libRbt.so/2013.1/901 2013/11/27
 37 40  0  0  0  0  0  0  0  0999 V2000
   16.9873   -5.6021   48.3750 C   0  0  1  0  0  0  0  0  0  0  0  0
   18.0598   -6.3720   47.5145 C   0  0  1  0  0  0  0  0  0  0  0  0
   18.2170   -5.6717   46.1487 C   0  0  0  0  0  0  0  0  0  0  0  0
   16.8100   -5.7166   45.4747 C   0  0  1  0  0  0  0  0  0  0  0  0
   15.6958   -4.9492   46.3554 C   0  0  1  0  0  0  0  0  0  0  0  0
   14.2851   -5.0057   45.6992 C   0  0  1  0  0  0  0  0  0  0  0  0
   14.4087   -4.3585   44.2595 C   0  0  1  0  0  0  0  0  0  0  0  0
   15.5324   -5.1076   43.4619 C   0  0  2  0  0  0  0  0  0  0  0  0
   12.3401   -3.1321   43.2044 C   0  0  0  0  0  0  0  0  0  0  0  0
   19.3795   -6.3984   48.2215 N   0  0  0  0  0  0  0  0  0  0  0  0
   13.0780   -4.4102   43.5139 N   0  0  0  0  0  0  0  0  0  0  0  0
   17.3891   -4.2517   48.6376 O   0  0  0  0  0  0  0  0  0  0  0  0
   15.6612   -5.5604   47.6913 O   0  0  0  0  0  0  0  0  0  0  0  0
   16.8531   -5.0927   44.1571 O   0  0  0  0  0  0  0  0  0  0  0  0
   13.9007   -6.3806   45.6471 O   0  0  0  0  0  0  0  0  0  0  0  0
   15.6848   -4.5048   42.2288 O   0  0  0  0  0  0  0  0  0  0  0  0
   16.0819   -5.4196   41.1932 C   0  0  2  0  0  0  0  0  0  0  0  0
   16.8271   -4.6640   40.0665 C   0  0  1  0  0  0  0  0  0  0  0  0
   15.8877   -3.6723   39.3142 C   0  0  2  0  0  0  0  0  0  0  0  0
   14.6850   -4.4580   38.7131 C   0  0  1  0  0  0  0  0  0  0  0  0
   13.9249   -5.1370   39.9273 C   0  0  1  0  0  0  0  0  0  0  0  0
   12.7245   -5.9571   39.4634 C   0  0  0  0  0  0  0  0  0  0  0  0
   13.7854   -3.5120   37.9930 N   0  0  0  0  0  0  0  0  0  0  0  0
   14.8732   -6.0738   40.6279 O   0  0  0  0  0  0  0  0  0  0  0  0
   17.9474   -3.9911   40.6724 O   0  0  0  0  0  0  0  0  0  0  0  0
   16.6246   -3.0612   38.2759 O   0  0  0  0  0  0  0  0  0  0  0  0
   11.7257   -5.0945   38.9864 O   0  0  0  0  0  0  0  0  0  0  0  0
   18.6835   -4.1439   49.1932 C   0  0  1  0  0  0  0  0  0  0  0  0
   19.1133   -2.6426   49.1380 C   0  0  1  0  0  0  0  0  0  0  0  0
   20.5518   -2.5138   49.7187 C   0  0  2  0  0  0  0  0  0  0  0  0
   20.6036   -3.0286   51.1904 C   0  0  1  0  0  0  0  0  0  0  0  0
   20.1606   -4.5399   51.2574 C   0  0  0  0  0  0  0  0  0  0  0  0
   18.6934   -4.6657   50.6711 C   0  0  2  0  0  0  0  0  0  0  0  0
   21.9892   -2.9002   51.7208 N   0  0  0  0  0  0  0  0  0  0  0  0
   18.2842   -6.0865   50.7414 N   0  0  0  0  0  0  0  0  0  0  0  0
   19.1111   -2.1713   47.7774 O   0  0  0  0  0  0  0  0  0  0  0  0
   20.9136   -1.1438   49.6633 O   0  0  0  0  0  0  0  0  0  0  0  0
  1  2  1  0  0  0  0
  1 12  1  6  0  0  0
  1 13  1  0  0  0  0
  2  3  1  0  0  0  0
  2 10  1  1  0  0  0
  4  3  1  1  0  0  0
  4  5  1  0  0  0  0
  4 14  1  0  0  0  0
  5  6  1  0  0  0  0
  5 13  1  1  0  0  0
  6  7  1  0  0  0  0
  6 15  1  6  0  0  0
  7  8  1  0  0  0  0
  7 11  1  6  0  0  0
  8 14  1  0  0  0  0
  8 16  1  6  0  0  0
  9 11  1  0  0  0  0
 17 16  1  1  0  0  0
 17 18  1  0  0  0  0
 17 24  1  0  0  0  0
 18 19  1  0  0  0  0
 18 25  1  1  0  0  0
 19 20  1  0  0  0  0
 19 26  1  6  0  0  0
 20 21  1  0  0  0  0
 20 23  1  1  0  0  0
 21 22  1  6  0  0  0
 21 24  1  0  0  0  0
 22 27  1  0  0  0  0
 28 12  1  1  0  0  0
 28 29  1  0  0  0  0
 28 33  1  0  0  0  0
 29 30  1  0  0  0  0
 29 36  1  6  0  0  0
 30 31  1  0  0  0  0
 30 37  1  1  0  0  0
 31 32  1  0  0  0  0
 31 34  1  6  0  0  0
 32 33  1  0  0  0  0
 33 35  1  6  0  0  0
M  END
>  <CHROM.1>
-52.37605490,112.89551647,-148.37394512,-154.72789992,-69.44026834,167.85356857
16.66314858,-4.51115767,44.99683801,1.02330596,0.49446319,1.77897631

>  <Name>
2oe8_lig

>  <RI>
0

>  <Rbt.Current_Directory>
/home/itssahil/PROJECTS/Mol_Feturizer/New_Systems/rnas/2oe8

>  <Rbt.Executable>
rbdock ($Id: //depot/dev/client3/rdock/2013.1/src/exe/rbdock.cxx#4 $)

>  <Rbt.Library>
libRbt.so (2013.1, Build901 2013/11/27)

>  <Rbt.Parameter_File>
/export/apps/rDock/src/rDock_2013.1_src/data/scripts/dock_solv.prm

>  <Rbt.Receptor>
prm/blind_docking_80.prm

>  <SCORE>
-18.9071

>  <SCORE.INTER>
-19.9637

>  <SCORE.INTER.CONST>
1

>  <SCORE.INTER.POLAR>
-1.85158

>  <SCORE.INTER.ROT>
6

>  <SCORE.INTER.SOLV>
11.0175

>  <SCORE.INTER.VDW>
-18.4097

>  <SCORE.INTER.norm>
-0.539558

>  <SCORE.INTRA>
1.05655

>  <SCORE.INTRA.DIHEDRAL>
-7.29076

>  <SCORE.INTRA.DIHEDRAL.0>
16.4056

>  <SCORE.INTRA.POLAR>
0

>  <SCORE.INTRA.POLAR.0>
0

>  <SCORE.INTRA.REPUL>
0

>  <SCORE.INTRA.REPUL.0>
0

>  <SCORE.INTRA.SOLV>
4.56775

>  <SCORE.INTRA.SOLV.lig_0>
-90.9627

>  <SCORE.INTRA.VDW>
2.41806

>  <SCORE.INTRA.VDW.0>
-3.28744

>  <SCORE.INTRA.norm>
0.0285554

>  <SCORE.RESTR>
0

>  <SCORE.RESTR.CAVITY>
0

>  <SCORE.RESTR.norm>
0

>  <SCORE.SYSTEM>
0

>  <SCORE.SYSTEM.CONST>
0

>  <SCORE.SYSTEM.DIHEDRAL>
0

>  <SCORE.SYSTEM.SOLV>
0

>  <SCORE.SYSTEM.norm>
0

>  <SCORE.heavy>
37

>  <SCORE.norm>
-0.511003

>  <RMSD>
9.133

$$$$
2oe8_lig
 OpenBabel11021811463D
libRbt.so/2013.1/901 2013/11/27
 37 40  0  0  0  0  0  0  0  0999 V2000
   19.6461   -2.1042   49.3153 C   0  0  1  0  0  0  0  0  0  0  0  0
   20.7076   -1.2299   48.5457 C   0  0  1  0  0  0  0  0  0  0  0  0
   21.6165   -0.5143   49.5667 C   0  0  0  0  0  0  0  0  0  0  0  0
   20.6739    0.3738   50.4376 C   0  0  1  0  0  0  0  0  0  0  0  0
   19.5672   -0.5065   51.2164 C   0  0  1  0  0  0  0  0  0  0  0  0
   18.6105    0.3741   52.0727 C   0  0  1  0  0  0  0  0  0  0  0  0
   19.5061    1.1858   53.0954 C   0  0  1  0  0  0  0  0  0  0  0  0
   20.5913    1.9861   52.2945 C   0  0  2  0  0  0  0  0  0  0  0  0
   18.3123    3.4979   53.4497 C   0  0  0  0  0  0  0  0  0  0  0  0
   21.5408   -2.0882   47.6449 N   0  0  0  0  0  0  0  0  0  0  0  0
   18.6570    2.1193   53.9540 N   0  0  0  0  0  0  0  0  0  0  0  0
   20.2720   -3.1212   50.1078 O   0  0  0  0  0  0  0  0  0  0  0  0
   18.8021   -1.2717   50.2221 O   0  0  0  0  0  0  0  0  0  0  0  0
   21.4422    1.1155   51.4309 O   0  0  0  0  0  0  0  0  0  0  0  0
   17.9046    1.2275   51.1704 O   0  0  0  0  0  0  0  0  0  0  0  0
   21.4124    2.6455   53.1880 O   0  0  0  0  0  0  0  0  0  0  0  0
   22.1432    1.7580   54.0512 C   0  0  2  0  0  0  0  0  0  0  0  0
   22.7913    2.5511   55.2116 C   0  0  1  0  0  0  0  0  0  0  0  0
   23.8948    3.5275   54.7008 C   0  0  2  0  0  0  0  0  0  0  0  0
   24.9882    2.7178   53.9431 C   0  0  1  0  0  0  0  0  0  0  0  0
   24.2694    1.9994   52.7263 C   0  0  1  0  0  0  0  0  0  0  0  0
   25.2405    1.1534   51.9077 C   0  0  0  0  0  0  0  0  0  0  0  0
   26.0445    3.6491   53.4539 N   0  0  0  0  0  0  0  0  0  0  0  0
   23.2076    1.0790   53.2674 O   0  0  0  0  0  0  0  0  0  0  0  0
   21.7323    3.2457   55.8979 O   0  0  0  0  0  0  0  0  0  0  0  0
   24.4687    4.1746   55.8172 O   0  0  0  0  0  0  0  0  0  0  0  0
   25.7921    0.1541   52.7239 O   0  0  0  0  0  0  0  0  0  0  0  0
   20.7283   -4.2256   49.3543 C   0  0  1  0  0  0  0  0  0  0  0  0
   22.0800   -4.7101   49.9707 C   0  0  1  0  0  0  0  0  0  0  0  0
   22.6106   -5.9080   49.1302 C   0  0  2  0  0  0  0  0  0  0  0  0
   21.5796   -7.0788   49.1213 C   0  0  1  0  0  0  0  0  0  0  0  0
   20.2087   -6.5960   48.5112 C   0  0  0  0  0  0  0  0  0  0  0  0
   19.6688   -5.3806   49.3735 C   0  0  2  0  0  0  0  0  0  0  0  0
   22.1072   -8.2088   48.3075 N   0  0  0  0  0  0  0  0  0  0  0  0
   18.3801   -4.9363   48.7964 N   0  0  0  0  0  0  0  0  0  0  0  0
   23.0519   -3.6482   49.9422 O   0  0  0  0  0  0  0  0  0  0  0  0
   23.8316   -6.3317   49.7138 O   0  0  0  0  0  0  0  0  0  0  0  0
  1  2  1  0  0  0  0
  1 12  1  1  0  0  0
  1 13  1  0  0  0  0
  2  3  1  0  0  0  0
  2 10  1  6  0  0  0
  4  3  1  1  0  0  0
  4  5  1  0  0  0  0
  4 14  1  0  0  0  0
  5  6  1  0  0  0  0
  5 13  1  6  0  0  0
  6  7  1  0  0  0  0
  6 15  1  6  0  0  0
  7  8  1  0  0  0  0
  7 11  1  6  0  0  0
  8 14  1  0  0  0  0
  8 16  1  1  0  0  0
  9 11  1  0  0  0  0
 17 16  1  6  0  0  0
 17 18  1  0  0  0  0
 17 24  1  0  0  0  0
 18 19  1  0  0  0  0
 18 25  1  6  0  0  0
 19 20  1  0  0  0  0
 19 26  1  1  0  0  0
 20 21  1  0  0  0  0
 20 23  1  6  0  0  0
 21 22  1  1  0  0  0
 21 24  1  0  0  0  0
 22 27  1  0  0  0  0
 28 12  1  1  0  0  0
 28 29  1  0  0  0  0
 28 33  1  0  0  0  0
 29 30  1  0  0  0  0
 29 36  1  6  0  0  0
 30 31  1  0  0  0  0
 30 37  1  1  0  0  0
 31 32  1  0  0  0  0
 31 34  1  6  0  0  0
 32 33  1  0  0  0  0
 33 35  1  6  0  0  0
M  END
>  <CHROM.1>
-76.93292719,-85.94517897,62.69428956,-167.65061144,60.79106993,142.53990757
21.58611031,-0.69827821,51.48211831,1.74045159,0.17338012,-2.61618859

>  <Name>
2oe8_lig

>  <RI>
0

>  <Rbt.Current_Directory>
/home/itssahil/PROJECTS/Mol_Feturizer/New_Systems/rnas/2oe8

>  <Rbt.Executable>
rbdock ($Id: //depot/dev/client3/rdock/2013.1/src/exe/rbdock.cxx#4 $)

>  <Rbt.Library>
libRbt.so (2013.1, Build901 2013/11/27)

>  <Rbt.Parameter_File>
/export/apps/rDock/src/rDock_2013.1_src/data/scripts/dock_solv.prm

>  <Rbt.Receptor>
prm/pocket_docking_8.prm

>  <SCORE>
-18.632

>  <SCORE.INTER>
-16.9909

>  <SCORE.INTER.CONST>
1

>  <SCORE.INTER.POLAR>
-0.579924

>  <SCORE.INTER.ROT>
6

>  <SCORE.INTER.SOLV>
11.5351

>  <SCORE.INTER.VDW>
-20.8392

>  <SCORE.INTER.norm>
-0.459213

>  <SCORE.INTRA>
-1.64115

>  <SCORE.INTRA.DIHEDRAL>
-8.81686

>  <SCORE.INTRA.DIHEDRAL.0>
16.4056

>  <SCORE.INTRA.POLAR>
0

>  <SCORE.INTRA.POLAR.0>
0

>  <SCORE.INTRA.REPUL>
0

>  <SCORE.INTRA.REPUL.0>
0

>  <SCORE.INTRA.SOLV>
1.80319

>  <SCORE.INTRA.SOLV.lig_0>
-90.9627

>  <SCORE.INTRA.VDW>
1.86568

>  <SCORE.INTRA.VDW.0>
-3.28744

>  <SCORE.INTRA.norm>
-0.0443554

>  <SCORE.RESTR>
0

>  <SCORE.RESTR.CAVITY>
0

>  <SCORE.RESTR.norm>
0

>  <SCORE.SYSTEM>
0

>  <SCORE.SYSTEM.CONST>
0

>  <SCORE.SYSTEM.DIHEDRAL>
0

>  <SCORE.SYSTEM.SOLV>
0

>  <SCORE.SYSTEM.norm>
0

>  <SCORE.heavy>
37

>  <SCORE.norm>
-0.503569

>  <RMSD>
9.164

$$$$
2oe8_lig
 OpenBabel11021811463D
libRbt.so/2013.1/901 2013/11/27
 37 40  0  0  0  0  0  0  0  0999 V2000
   19.9280   -4.8654   45.7542 C   0  0  1  0  0  0  0  0  0  0  0  0
   19.9986   -3.3780   45.2383 C   0  0  1  0  0  0  0  0  0  0  0  0
   18.5675   -2.8467   45.0146 C   0  0  0  0  0  0  0  0  0  0  0  0
   17.9183   -3.7861   43.9507 C   0  0  1  0  0  0  0  0  0  0  0  0
   17.8578   -5.3178   44.4570 C   0  0  1  0  0  0  0  0  0  0  0  0
   17.2288   -6.2651   43.3935 C   0  0  1  0  0  0  0  0  0  0  0  0
   15.7768   -5.7192   43.0761 C   0  0  1  0  0  0  0  0  0  0  0  0
   15.8852   -4.2183   42.6338 C   0  0  2  0  0  0  0  0  0  0  0  0
   15.3012   -6.2338   40.5452 C   0  0  0  0  0  0  0  0  0  0  0  0
   20.7079   -2.5108   46.2319 N   0  0  0  0  0  0  0  0  0  0  0  0
   15.0923   -6.5606   42.0024 N   0  0  0  0  0  0  0  0  0  0  0  0
   19.2428   -4.9587   47.0095 O   0  0  0  0  0  0  0  0  0  0  0  0
   19.2239   -5.7516   44.7813 O   0  0  0  0  0  0  0  0  0  0  0  0
   16.5577   -3.3557   43.6493 O   0  0  0  0  0  0  0  0  0  0  0  0
   18.0831   -6.2379   42.2489 O   0  0  0  0  0  0  0  0  0  0  0  0
   14.6149   -3.7222   42.4165 O   0  0  0  0  0  0  0  0  0  0  0  0
   14.6068   -2.3607   41.9549 C   0  0  2  0  0  0  0  0  0  0  0  0
   13.1659   -1.9244   41.5955 C   0  0  1  0  0  0  0  0  0  0  0  0
   12.6111   -2.7116   40.3688 C   0  0  2  0  0  0  0  0  0  0  0  0
   13.5485   -2.4864   39.1458 C   0  0  1  0  0  0  0  0  0  0  0  0
   14.9808   -3.0275   39.5570 C   0  0  1  0  0  0  0  0  0  0  0  0
   16.0027   -2.8471   38.4381 C   0  0  0  0  0  0  0  0  0  0  0  0
   13.0201   -3.2378   37.9716 N   0  0  0  0  0  0  0  0  0  0  0  0
   15.4680   -2.2473   40.7492 O   0  0  0  0  0  0  0  0  0  0  0  0
   12.3558   -2.1168   42.7709 O   0  0  0  0  0  0  0  0  0  0  0  0
   11.3185   -2.2249   40.0746 O   0  0  0  0  0  0  0  0  0  0  0  0
   17.2376   -3.3759   38.8435 O   0  0  0  0  0  0  0  0  0  0  0  0
   19.9545   -4.3860   48.0871 C   0  0  1  0  0  0  0  0  0  0  0  0
   18.9629   -4.1979   49.2800 C   0  0  1  0  0  0  0  0  0  0  0  0
   19.7271   -3.5380   50.4647 C   0  0  2  0  0  0  0  0  0  0  0  0
   20.9323   -4.4234   50.9088 C   0  0  1  0  0  0  0  0  0  0  0  0
   21.9328   -4.6280   49.7080 C   0  0  0  0  0  0  0  0  0  0  0  0
   21.1525   -5.3057   48.5064 C   0  0  2  0  0  0  0  0  0  0  0  0
   21.6495   -3.7690   52.0380 N   0  0  0  0  0  0  0  0  0  0  0  0
   22.0997   -5.4975   47.3852 N   0  0  0  0  0  0  0  0  0  0  0  0
   17.8695   -3.3452   48.8921 O   0  0  0  0  0  0  0  0  0  0  0  0
   18.8080   -3.3855   51.5338 O   0  0  0  0  0  0  0  0  0  0  0  0
  1  2  1  0  0  0  0
  1 12  1  1  0  0  0
  1 13  1  0  0  0  0
  2  3  1  0  0  0  0
  2 10  1  1  0  0  0
  4  3  1  1  0  0  0
  4  5  1  0  0  0  0
  4 14  1  0  0  0  0
  5  6  1  0  0  0  0
  5 13  1  6  0  0  0
  6  7  1  0  0  0  0
  6 15  1  6  0  0  0
  7  8  1  0  0  0  0
  7 11  1  6  0  0  0
  8 14  1  0  0  0  0
  8 16  1  1  0  0  0
  9 11  1  0  0  0  0
 17 16  1  6  0  0  0
 17 18  1  0  0  0  0
 17 24  1  0  0  0  0
 18 19  1  0  0  0  0
 18 25  1  1  0  0  0
 19 20  1  0  0  0  0
 19 26  1  6  0  0  0
 20 21  1  0  0  0  0
 20 23  1  6  0  0  0
 21 22  1  6  0  0  0
 21 24  1  0  0  0  0
 22 27  1  0  0  0  0
 28 12  1  6  0  0  0
 28 29  1  0  0  0  0
 28 33  1  0  0  0  0
 29 30  1  0  0  0  0
 29 36  1  6  0  0  0
 30 31  1  0  0  0  0
 30 37  1  1  0  0  0
 31 32  1  0  0  0  0
 31 34  1  1  0  0  0
 32 33  1  0  0  0  0
 33 35  1  6  0  0  0
M  END
>  <CHROM.1>
-69.10372005,-87.22443958,-177.73405857,174.16921701,-178.36579454,164.62088521
17.24084866,-3.95902000,44.30838375,-0.86371423,0.50854787,-1.85333948

>  <Name>
2oe8_lig

>  <RI>
0

>  <Rbt.Current_Directory>
/home/itssahil/PROJECTS/Mol_Feturizer/New_Systems/rnas/2oe8

>  <Rbt.Executable>
rbdock ($Id: //depot/dev/client3/rdock/2013.1/src/exe/rbdock.cxx#4 $)

>  <Rbt.Library>
libRbt.so (2013.1, Build901 2013/11/27)

>  <Rbt.Parameter_File>
/export/apps/rDock/src/rDock_2013.1_src/data/scripts/dock_solv.prm

>  <Rbt.Receptor>
prm/blind_docking_60.prm

>  <SCORE>
-24.8448

>  <SCORE.INTER>
-21.0067

>  <SCORE.INTER.CONST>
1

>  <SCORE.INTER.POLAR>
-2.89081

>  <SCORE.INTER.ROT>
6

>  <SCORE.INTER.SOLV>
13.9505

>  <SCORE.INTER.VDW>
-16.6186

>  <SCORE.INTER.norm>
-0.567747

>  <SCORE.INTRA>
-3.8381

>  <SCORE.INTRA.DIHEDRAL>
-14.1168

>  <SCORE.INTRA.DIHEDRAL.0>
16.4056

>  <SCORE.INTRA.POLAR>
0

>  <SCORE.INTRA.POLAR.0>
0

>  <SCORE.INTRA.REPUL>
0

>  <SCORE.INTRA.REPUL.0>
0

>  <SCORE.INTRA.SOLV>
1.95144

>  <SCORE.INTRA.SOLV.lig_0>
-90.9627

>  <SCORE.INTRA.VDW>
2.2446

>  <SCORE.INTRA.VDW.0>
-3.28744

>  <SCORE.INTRA.norm>
-0.103732

>  <SCORE.RESTR>
0

>  <SCORE.RESTR.CAVITY>
0

>  <SCORE.RESTR.norm>
0

>  <SCORE.SYSTEM>
0

>  <SCORE.SYSTEM.CONST>
0

>  <SCORE.SYSTEM.DIHEDRAL>
0

>  <SCORE.SYSTEM.SOLV>
0

>  <SCORE.SYSTEM.norm>
0

>  <SCORE.heavy>
37

>  <SCORE.norm>
-0.67148

>  <RMSD>
9.178

$$$$
2oe8_lig
 OpenBabel11021811463D
libRbt.so/2013.1/901 2013/11/27
 37 40  0  0  0  0  0  0  0  0999 V2000
   20.3914   -4.0758   49.8907 C   0  0  1  0  0  0  0  0  0  0  0  0
   19.9231   -3.7603   51.3619 C   0  0  1  0  0  0  0  0  0  0  0  0
   20.5388   -2.4210   51.8177 C   0  0  0  0  0  0  0  0  0  0  0  0
   22.0864   -2.6082   51.7426 C   0  0  1  0  0  0  0  0  0  0  0  0
   22.5792   -2.9525   50.2444 C   0  0  1  0  0  0  0  0  0  0  0  0
   24.1201   -3.1598   50.1643 C   0  0  1  0  0  0  0  0  0  0  0  0
   24.8023   -1.8311   50.6901 C   0  0  1  0  0  0  0  0  0  0  0  0
   24.2577   -1.5161   52.1268 C   0  0  2  0  0  0  0  0  0  0  0  0
   27.0769   -1.9986   49.3884 C   0  0  0  0  0  0  0  0  0  0  0  0
   18.4296   -3.6771   51.4311 N   0  0  0  0  0  0  0  0  0  0  0  0
   26.3235   -1.9547   50.6938 N   0  0  0  0  0  0  0  0  0  0  0  0
   19.9491   -3.0727   48.9675 O   0  0  0  0  0  0  0  0  0  0  0  0
   21.8783   -4.1631   49.7941 O   0  0  0  0  0  0  0  0  0  0  0  0
   22.7708   -1.3954   52.1759 O   0  0  0  0  0  0  0  0  0  0  0  0
   24.4346   -4.2918   50.9769 O   0  0  0  0  0  0  0  0  0  0  0  0
   24.8040   -0.3249   52.5621 O   0  0  0  0  0  0  0  0  0  0  0  0
   24.3852    0.8107   51.7861 C   0  0  2  0  0  0  0  0  0  0  0  0
   25.2327    2.0530   52.1524 C   0  0  1  0  0  0  0  0  0  0  0  0
   24.9750    2.5185   53.6183 C   0  0  2  0  0  0  0  0  0  0  0  0
   23.4625    2.8433   53.7970 C   0  0  1  0  0  0  0  0  0  0  0  0
   22.6645    1.5095   53.4848 C   0  0  1  0  0  0  0  0  0  0  0  0
   21.1561    1.7032   53.6108 C   0  0  0  0  0  0  0  0  0  0  0  0
   23.2136    3.2888   55.1978 N   0  0  0  0  0  0  0  0  0  0  0  0
   22.9537    1.0943   52.0665 O   0  0  0  0  0  0  0  0  0  0  0  0
   26.6136    1.7082   51.9310 O   0  0  0  0  0  0  0  0  0  0  0  0
   25.7434    3.6787   53.8589 O   0  0  0  0  0  0  0  0  0  0  0  0
   20.7233    2.6354   52.6554 O   0  0  0  0  0  0  0  0  0  0  0  0
   19.5935   -3.5865   47.7005 C   0  0  1  0  0  0  0  0  0  0  0  0
   18.3929   -2.7482   47.1549 C   0  0  1  0  0  0  0  0  0  0  0  0
   17.9700   -3.3241   45.7720 C   0  0  2  0  0  0  0  0  0  0  0  0
   19.1583   -3.2714   44.7627 C   0  0  1  0  0  0  0  0  0  0  0  0
   20.3786   -4.1055   45.3101 C   0  0  0  0  0  0  0  0  0  0  0  0
   20.8101   -3.5121   46.7151 C   0  0  2  0  0  0  0  0  0  0  0  0
   18.7307   -3.8320   43.4510 N   0  0  0  0  0  0  0  0  0  0  0  0
   21.9583   -4.2982   47.2198 N   0  0  0  0  0  0  0  0  0  0  0  0
   17.2754   -2.8275   48.0594 O   0  0  0  0  0  0  0  0  0  0  0  0
   16.8859   -2.5427   45.2975 O   0  0  0  0  0  0  0  0  0  0  0  0
  1  2  1  0  0  0  0
  1 12  1  6  0  0  0
  1 13  1  0  0  0  0
  2  3  1  0  0  0  0
  2 10  1  6  0  0  0
  4  3  1  6  0  0  0
  4  5  1  0  0  0  0
  4 14  1  0  0  0  0
  5  6  1  0  0  0  0
  5 13  1  1  0  0  0
  6  7  1  0  0  0  0
  6 15  1  1  0  0  0
  7  8  1  0  0  0  0
  7 11  1  1  0  0  0
  8 14  1  0  0  0  0
  8 16  1  6  0  0  0
  9 11  1  0  0  0  0
 17 16  1  1  0  0  0
 17 18  1  0  0  0  0
 17 24  1  0  0  0  0
 18 19  1  0  0  0  0
 18 25  1  1  0  0  0
 19 20  1  0  0  0  0
 19 26  1  6  0  0  0
 20 21  1  0  0  0  0
 20 23  1  1  0  0  0
 21 22  1  6  0  0  0
 21 24  1  0  0  0  0
 22 27  1  0  0  0  0
 28 12  1  1  0  0  0
 28 29  1  0  0  0  0
 28 33  1  0  0  0  0
 29 30  1  0  0  0  0
 29 36  1  1  0  0  0
 30 31  1  0  0  0  0
 30 37  1  6  0  0  0
 31 32  1  0  0  0  0
 31 34  1  6  0  0  0
 32 33  1  0  0  0  0
 33 35  1  1  0  0  0
M  END
>  <CHROM.1>
-143.82625608,69.94494818,65.28077023,-169.28442080,63.19497726,144.94351418
22.08659014,-1.41643284,50.28176422,-2.16172720,-0.18906132,0.76813451

>  <Name>
2oe8_lig

>  <RI>
0

>  <Rbt.Current_Directory>
/home/itssahil/PROJECTS/Mol_Feturizer/New_Systems/rnas/2oe8

>  <Rbt.Executable>
rbdock ($Id: //depot/dev/client3/rdock/2013.1/src/exe/rbdock.cxx#4 $)

>  <Rbt.Library>
libRbt.so (2013.1, Build901 2013/11/27)

>  <Rbt.Parameter_File>
/export/apps/rDock/src/rDock_2013.1_src/data/scripts/dock_solv.prm

>  <Rbt.Receptor>
prm/pocket_docking_7.prm

>  <SCORE>
-21.3079

>  <SCORE.INTER>
-19.7433

>  <SCORE.INTER.CONST>
1

>  <SCORE.INTER.POLAR>
-1.86594

>  <SCORE.INTER.ROT>
6

>  <SCORE.INTER.SOLV>
16.4825

>  <SCORE.INTER.VDW>
-20.0366

>  <SCORE.INTER.norm>
-0.533603

>  <SCORE.INTRA>
-1.56464

>  <SCORE.INTRA.DIHEDRAL>
-6.28796

>  <SCORE.INTRA.DIHEDRAL.0>
16.4056

>  <SCORE.INTRA.POLAR>
0

>  <SCORE.INTRA.POLAR.0>
0

>  <SCORE.INTRA.REPUL>
0

>  <SCORE.INTRA.REPUL.0>
0

>  <SCORE.INTRA.SOLV>
1.2537

>  <SCORE.INTRA.SOLV.lig_0>
-90.9627

>  <SCORE.INTRA.VDW>
0.952489

>  <SCORE.INTRA.VDW.0>
-3.28744

>  <SCORE.INTRA.norm>
-0.0422876

>  <SCORE.RESTR>
0

>  <SCORE.RESTR.CAVITY>
0

>  <SCORE.RESTR.norm>
0

>  <SCORE.SYSTEM>
0

>  <SCORE.SYSTEM.CONST>
0

>  <SCORE.SYSTEM.DIHEDRAL>
0

>  <SCORE.SYSTEM.SOLV>
0

>  <SCORE.SYSTEM.norm>
0

>  <SCORE.heavy>
37

>  <SCORE.norm>
-0.57589

>  <RMSD>
9.374

$$$$
2oe8_lig
 OpenBabel11021811463D
libRbt.so/2013.1/901 2013/11/27
 37 40  0  0  0  0  0  0  0  0999 V2000
   18.7987   -4.8768   48.8351 C   0  0  1  0  0  0  0  0  0  0  0  0
   19.1077   -5.4241   50.2803 C   0  0  1  0  0  0  0  0  0  0  0  0
   19.1397   -4.2461   51.2763 C   0  0  0  0  0  0  0  0  0  0  0  0
   20.2676   -3.2890   50.7787 C   0  0  1  0  0  0  0  0  0  0  0  0
   19.9751   -2.7362   49.2905 C   0  0  1  0  0  0  0  0  0  0  0  0
   21.1053   -1.7956   48.7790 C   0  0  1  0  0  0  0  0  0  0  0  0
   21.2261   -0.6001   49.8101 C   0  0  1  0  0  0  0  0  0  0  0  0
   21.4636   -1.1896   51.2439 C   0  0  2  0  0  0  0  0  0  0  0  0
   22.2933    1.7990   49.8577 C   0  0  0  0  0  0  0  0  0  0  0  0
   18.0640   -6.4116   50.7020 N   0  0  0  0  0  0  0  0  0  0  0  0
   22.3473    0.3579   49.4170 N   0  0  0  0  0  0  0  0  0  0  0  0
   17.5174   -4.2378   48.7735 O   0  0  0  0  0  0  0  0  0  0  0  0
   19.8251   -3.8884   48.3908 O   0  0  0  0  0  0  0  0  0  0  0  0
   20.3960   -2.1416   51.6699 O   0  0  0  0  0  0  0  0  0  0  0  0
   22.3002   -2.5751   48.7065 O   0  0  0  0  0  0  0  0  0  0  0  0
   21.5072   -0.1517   52.1538 O   0  0  0  0  0  0  0  0  0  0  0  0
   22.1406   -0.5082   53.3942 C   0  0  2  0  0  0  0  0  0  0  0  0
   22.1826    0.7119   54.3456 C   0  0  1  0  0  0  0  0  0  0  0  0
   23.1044    1.8435   53.7962 C   0  0  2  0  0  0  0  0  0  0  0  0
   24.5438    1.2836   53.5964 C   0  0  1  0  0  0  0  0  0  0  0  0
   24.4351    0.0944   52.5537 C   0  0  1  0  0  0  0  0  0  0  0  0
   25.7899   -0.5541   52.2833 C   0  0  0  0  0  0  0  0  0  0  0  0
   25.4271    2.3637   53.0714 N   0  0  0  0  0  0  0  0  0  0  0  0
   23.5282   -0.9650   53.1218 O   0  0  0  0  0  0  0  0  0  0  0  0
   20.8256    1.1610   54.5242 O   0  0  0  0  0  0  0  0  0  0  0  0
   23.1286    2.8953   54.7383 O   0  0  0  0  0  0  0  0  0  0  0  0
   25.6417   -1.5598   51.3161 O   0  0  0  0  0  0  0  0  0  0  0  0
   17.0039   -4.1238   47.4624 C   0  0  1  0  0  0  0  0  0  0  0  0
   17.9378   -3.1654   46.6556 C   0  0  1  0  0  0  0  0  0  0  0  0
   17.3657   -3.0056   45.2168 C   0  0  2  0  0  0  0  0  0  0  0  0
   17.2744   -4.3880   44.4999 C   0  0  1  0  0  0  0  0  0  0  0  0
   16.3427   -5.3657   45.3129 C   0  0  0  0  0  0  0  0  0  0  0  0
   16.9321   -5.5305   46.7749 C   0  0  2  0  0  0  0  0  0  0  0  0
   16.7199   -4.2095   43.1293 N   0  0  0  0  0  0  0  0  0  0  0  0
   16.0538   -6.4525   47.5298 N   0  0  0  0  0  0  0  0  0  0  0  0
   17.9929   -1.8722   47.2864 O   0  0  0  0  0  0  0  0  0  0  0  0
   18.2339   -2.1387   44.5058 O   0  0  0  0  0  0  0  0  0  0  0  0
  1  2  1  0  0  0  0
  1 12  1  1  0  0  0
  1 13  1  0  0  0  0
  2  3  1  0  0  0  0
  2 10  1  1  0  0  0
  4  3  1  1  0  0  0
  4  5  1  0  0  0  0
  4 14  1  0  0  0  0
  5  6  1  0  0  0  0
  5 13  1  6  0  0  0
  6  7  1  0  0  0  0
  6 15  1  1  0  0  0
  7  8  1  0  0  0  0
  7 11  1  6  0  0  0
  8 14  1  0  0  0  0
  8 16  1  1  0  0  0
  9 11  1  0  0  0  0
 17 16  1  6  0  0  0
 17 18  1  0  0  0  0
 17 24  1  0  0  0  0
 18 19  1  0  0  0  0
 18 25  1  6  0  0  0
 19 20  1  0  0  0  0
 19 26  1  1  0  0  0
 20 21  1  0  0  0  0
 20 23  1  6  0  0  0
 21 22  1  1  0  0  0
 21 24  1  0  0  0  0
 22 27  1  0  0  0  0
 28 12  1  1  0  0  0
 28 29  1  0  0  0  0
 28 33  1  0  0  0  0
 29 30  1  0  0  0  0
 29 36  1  1  0  0  0
 30 31  1  0  0  0  0
 30 37  1  6  0  0  0
 31 32  1  0  0  0  0
 31 34  1  6  0  0  0
 32 33  1  0  0  0  0
 33 35  1  1  0  0  0
M  END
>  <CHROM.1>
-160.45941118,154.37624132,-160.78993371,178.59500255,-177.61628376,-65.31476100
20.51588091,-1.98665982,49.89305659,2.70399492,-0.86342373,-1.21840095

>  <Name>
2oe8_lig

>  <RI>
0

>  <Rbt.Current_Directory>
/home/itssahil/PROJECTS/Mol_Feturizer/New_Systems/rnas/2oe8

>  <Rbt.Executable>
rbdock ($Id: //depot/dev/client3/rdock/2013.1/src/exe/rbdock.cxx#4 $)

>  <Rbt.Library>
libRbt.so (2013.1, Build901 2013/11/27)

>  <Rbt.Parameter_File>
/export/apps/rDock/src/rDock_2013.1_src/data/scripts/dock_solv.prm

>  <Rbt.Receptor>
prm/pocket_docking_8.prm

>  <SCORE>
-23.8471

>  <SCORE.INTER>
-18.4849

>  <SCORE.INTER.CONST>
1

>  <SCORE.INTER.POLAR>
-1.9798

>  <SCORE.INTER.ROT>
6

>  <SCORE.INTER.SOLV>
16.556

>  <SCORE.INTER.VDW>
-18.8427

>  <SCORE.INTER.norm>
-0.499593

>  <SCORE.INTRA>
-5.36219

>  <SCORE.INTRA.DIHEDRAL>
-12.3343

>  <SCORE.INTRA.DIHEDRAL.0>
16.4056

>  <SCORE.INTRA.POLAR>
0

>  <SCORE.INTRA.POLAR.0>
0

>  <SCORE.INTRA.REPUL>
0

>  <SCORE.INTRA.REPUL.0>
0

>  <SCORE.INTRA.SOLV>
-0.737271

>  <SCORE.INTRA.SOLV.lig_0>
-90.9627

>  <SCORE.INTRA.VDW>
1.17361

>  <SCORE.INTRA.VDW.0>
-3.28744

>  <SCORE.INTRA.norm>
-0.144924

>  <SCORE.RESTR>
0

>  <SCORE.RESTR.CAVITY>
0

>  <SCORE.RESTR.norm>
0

>  <SCORE.SYSTEM>
0

>  <SCORE.SYSTEM.CONST>
0

>  <SCORE.SYSTEM.DIHEDRAL>
0

>  <SCORE.SYSTEM.SOLV>
0

>  <SCORE.SYSTEM.norm>
0

>  <SCORE.heavy>
37

>  <SCORE.norm>
-0.644517

>  <RMSD>
9.377

$$$$
2oe8_lig
 OpenBabel11021811463D
libRbt.so/2013.1/901 2013/11/27
 37 40  0  0  0  0  0  0  0  0999 V2000
   22.8142   -1.9595   49.0827 C   0  0  1  0  0  0  0  0  0  0  0  0
   23.8879   -2.1025   50.2273 C   0  0  1  0  0  0  0  0  0  0  0  0
   23.2264   -1.8014   51.5884 C   0  0  0  0  0  0  0  0  0  0  0  0
   22.6884   -0.3394   51.4943 C   0  0  1  0  0  0  0  0  0  0  0  0
   21.6021   -0.1726   50.3118 C   0  0  1  0  0  0  0  0  0  0  0  0
   21.0744    1.2878   50.1987 C   0  0  1  0  0  0  0  0  0  0  0  0
   20.4448    1.6712   51.6000 C   0  0  1  0  0  0  0  0  0  0  0  0
   21.5225    1.4491   52.7176 C   0  0  2  0  0  0  0  0  0  0  0  0
   18.8075    3.5075   52.5185 C   0  0  0  0  0  0  0  0  0  0  0  0
   24.4599   -3.4863   50.2408 N   0  0  0  0  0  0  0  0  0  0  0  0
   19.9383    3.1110   51.6032 N   0  0  0  0  0  0  0  0  0  0  0  0
   21.7396   -2.8938   49.2448 O   0  0  0  0  0  0  0  0  0  0  0  0
   22.2270   -0.5878   49.0482 O   0  0  0  0  0  0  0  0  0  0  0  0
   22.0561    0.0555   52.7478 O   0  0  0  0  0  0  0  0  0  0  0  0
   22.1902    2.1126   49.8589 O   0  0  0  0  0  0  0  0  0  0  0  0
   20.9565    1.7233   53.9471 O   0  0  0  0  0  0  0  0  0  0  0  0
   20.0668    0.6919   54.4070 C   0  0  2  0  0  0  0  0  0  0  0  0
   19.2422    1.1945   55.6165 C   0  0  1  0  0  0  0  0  0  0  0  0
   20.1427    1.4589   56.8620 C   0  0  2  0  0  0  0  0  0  0  0  0
   20.8903    0.1475   57.2446 C   0  0  1  0  0  0  0  0  0  0  0  0
   21.7726   -0.2622   55.9928 C   0  0  1  0  0  0  0  0  0  0  0  0
   22.5487   -1.5530   56.2385 C   0  0  0  0  0  0  0  0  0  0  0  0
   21.7518    0.3977   58.4354 N   0  0  0  0  0  0  0  0  0  0  0  0
   20.8627   -0.4947   54.8158 O   0  0  0  0  0  0  0  0  0  0  0  0
   18.5444    2.3816   55.1939 O   0  0  0  0  0  0  0  0  0  0  0  0
   19.3153    1.8654   57.9318 O   0  0  0  0  0  0  0  0  0  0  0  0
   23.0904   -2.0101   55.0275 O   0  0  0  0  0  0  0  0  0  0  0  0
   20.8711   -2.9567   48.1323 C   0  0  1  0  0  0  0  0  0  0  0  0
   20.8737   -4.4241   47.5954 C   0  0  1  0  0  0  0  0  0  0  0  0
   19.9444   -4.5008   46.3490 C   0  0  2  0  0  0  0  0  0  0  0  0
   18.4902   -4.0702   46.7144 C   0  0  1  0  0  0  0  0  0  0  0  0
   18.4793   -2.5943   47.2678 C   0  0  0  0  0  0  0  0  0  0  0  0
   19.4216   -2.5219   48.5403 C   0  0  2  0  0  0  0  0  0  0  0  0
   17.6231   -4.1468   45.5061 N   0  0  0  0  0  0  0  0  0  0  0  0
   19.4025   -1.1343   49.0555 N   0  0  0  0  0  0  0  0  0  0  0  0
   22.2059   -4.8149   47.2138 O   0  0  0  0  0  0  0  0  0  0  0  0
   19.9594   -5.8415   45.8870 O   0  0  0  0  0  0  0  0  0  0  0  0
  1  2  1  0  0  0  0
  1 12  1  1  0  0  0
  1 13  1  0  0  0  0
  2  3  1  0  0  0  0
  2 10  1  1  0  0  0
  4  3  1  1  0  0  0
  4  5  1  0  0  0  0
  4 14  1  0  0  0  0
  5  6  1  0  0  0  0
  5 13  1  6  0  0  0
  6  7  1  0  0  0  0
  6 15  1  1  0  0  0
  7  8  1  0  0  0  0
  7 11  1  6  0  0  0
  8 14  1  0  0  0  0
  8 16  1  1  0  0  0
  9 11  1  0  0  0  0
 17 16  1  1  0  0  0
 17 18  1  0  0  0  0
 17 24  1  0  0  0  0
 18 19  1  0  0  0  0
 18 25  1  6  0  0  0
 19 20  1  0  0  0  0
 19 26  1  1  0  0  0
 20 21  1  0  0  0  0
 20 23  1  1  0  0  0
 21 22  1  1  0  0  0
 21 24  1  0  0  0  0
 22 27  1  0  0  0  0
 28 12  1  1  0  0  0
 28 29  1  0  0  0  0
 28 33  1  0  0  0  0
 29 30  1  0  0  0  0
 29 36  1  6  0  0  0
 30 31  1  0  0  0  0
 30 37  1  1  0  0  0
 31 32  1  0  0  0  0
 31 34  1  6  0  0  0
 32 33  1  0  0  0  0
 33 35  1  6  0  0  0
M  END
>  <CHROM.1>
-170.10897635,152.77012675,75.03944823,-167.62286852,168.18947129,120.91343627
20.95645365,-0.84092499,51.54892587,-1.60140638,-0.79345116,1.03910302

>  <Name>
2oe8_lig

>  <RI>
0

>  <Rbt.Current_Directory>
/home/itssahil/PROJECTS/Mol_Feturizer/New_Systems/rnas/2oe8

>  <Rbt.Executable>
rbdock ($Id: //depot/dev/client3/rdock/2013.1/src/exe/rbdock.cxx#4 $)

>  <Rbt.Library>
libRbt.so (2013.1, Build901 2013/11/27)

>  <Rbt.Parameter_File>
/export/apps/rDock/src/rDock_2013.1_src/data/scripts/dock_solv.prm

>  <Rbt.Receptor>
prm/pocket_docking_3.prm

>  <SCORE>
-17.356

>  <SCORE.INTER>
-16.6509

>  <SCORE.INTER.CONST>
1

>  <SCORE.INTER.POLAR>
-1.0198

>  <SCORE.INTER.ROT>
6

>  <SCORE.INTER.SOLV>
13.0102

>  <SCORE.INTER.VDW>
-19.638

>  <SCORE.INTER.norm>
-0.450025

>  <SCORE.INTRA>
-0.728696

>  <SCORE.INTRA.DIHEDRAL>
-5.89547

>  <SCORE.INTRA.DIHEDRAL.0>
16.4056

>  <SCORE.INTRA.POLAR>
0

>  <SCORE.INTRA.POLAR.0>
0

>  <SCORE.INTRA.REPUL>
0

>  <SCORE.INTRA.REPUL.0>
0

>  <SCORE.INTRA.SOLV>
1.65119

>  <SCORE.INTRA.SOLV.lig_0>
-90.9627

>  <SCORE.INTRA.VDW>
1.39344

>  <SCORE.INTRA.VDW.0>
-3.28744

>  <SCORE.INTRA.norm>
-0.0196945

>  <SCORE.RESTR>
0.0235931

>  <SCORE.RESTR.CAVITY>
0.0235931

>  <SCORE.RESTR.norm>
0.000637651

>  <SCORE.SYSTEM>
0

>  <SCORE.SYSTEM.CONST>
0

>  <SCORE.SYSTEM.DIHEDRAL>
0

>  <SCORE.SYSTEM.SOLV>
0

>  <SCORE.SYSTEM.norm>
0

>  <SCORE.heavy>
37

>  <SCORE.norm>
-0.469081

>  <RMSD>
9.418

$$$$
2oe8_lig
 OpenBabel11021811463D
libRbt.so/2013.1/901 2013/11/27
 37 40  0  0  0  0  0  0  0  0999 V2000
   21.0434   -3.5819   50.2092 C   0  0  1  0  0  0  0  0  0  0  0  0
   22.4548   -3.2645   50.8341 C   0  0  1  0  0  0  0  0  0  0  0  0
   22.2711   -2.7607   52.2809 C   0  0  0  0  0  0  0  0  0  0  0  0
   21.3914   -1.4752   52.1832 C   0  0  1  0  0  0  0  0  0  0  0  0
   19.9493   -1.7810   51.5256 C   0  0  1  0  0  0  0  0  0  0  0  0
   19.0726   -0.4999   51.4069 C   0  0  1  0  0  0  0  0  0  0  0  0
   18.9115    0.0976   52.8643 C   0  0  1  0  0  0  0  0  0  0  0  0
   20.3365    0.3335   53.4756 C   0  0  2  0  0  0  0  0  0  0  0  0
   18.7553    2.6818   52.4238 C   0  0  0  0  0  0  0  0  0  0  0  0
   23.3169   -4.4888   50.8331 N   0  0  0  0  0  0  0  0  0  0  0  0
   18.1006    1.3905   52.8454 N   0  0  0  0  0  0  0  0  0  0  0  0
   20.3644   -4.6162   50.9326 O   0  0  0  0  0  0  0  0  0  0  0  0
   20.1631   -2.3766   50.1993 O   0  0  0  0  0  0  0  0  0  0  0  0
   21.1724   -0.9026   53.5066 O   0  0  0  0  0  0  0  0  0  0  0  0
   19.7521    0.3940   50.5238 O   0  0  0  0  0  0  0  0  0  0  0  0
   20.1984    0.7961   54.7694 O   0  0  0  0  0  0  0  0  0  0  0  0
   19.8387   -0.2332   55.7065 C   0  0  2  0  0  0  0  0  0  0  0  0
   19.3878    0.3953   57.0472 C   0  0  1  0  0  0  0  0  0  0  0  0
   20.5612    1.1278   57.7674 C   0  0  2  0  0  0  0  0  0  0  0  0
   21.7185    0.1178   58.0238 C   0  0  1  0  0  0  0  0  0  0  0  0
   22.1813   -0.4223   56.6071 C   0  0  1  0  0  0  0  0  0  0  0  0
   23.3107   -1.4418   56.7253 C   0  0  0  0  0  0  0  0  0  0  0  0
   22.8415    0.8157   58.7126 N   0  0  0  0  0  0  0  0  0  0  0  0
   21.0149   -1.1090   55.9472 O   0  0  0  0  0  0  0  0  0  0  0  0
   18.2945    1.2864   56.7546 O   0  0  0  0  0  0  0  0  0  0  0  0
   20.0846    1.6294   58.9985 O   0  0  0  0  0  0  0  0  0  0  0  0
   23.6466   -1.9171   55.4484 O   0  0  0  0  0  0  0  0  0  0  0  0
   19.5707   -5.4516   50.1152 C   0  0  1  0  0  0  0  0  0  0  0  0
   18.5148   -4.5590   49.3873 C   0  0  1  0  0  0  0  0  0  0  0  0
   17.6123   -5.4716   48.5066 C   0  0  2  0  0  0  0  0  0  0  0  0
   18.4660   -6.2491   47.4576 C   0  0  1  0  0  0  0  0  0  0  0  0
   19.5420   -7.1442   48.1829 C   0  0  0  0  0  0  0  0  0  0  0  0
   20.4625   -6.2106   49.0734 C   0  0  2  0  0  0  0  0  0  0  0  0
   17.5818   -7.1180   46.6323 N   0  0  0  0  0  0  0  0  0  0  0  0
   21.4718   -7.0581   49.7474 N   0  0  0  0  0  0  0  0  0  0  0  0
   17.6927   -3.8714   50.3488 O   0  0  0  0  0  0  0  0  0  0  0  0
   16.6697   -4.6376   47.8533 O   0  0  0  0  0  0  0  0  0  0  0  0
  1  2  1  0  0  0  0
  1 12  1  1  0  0  0
  1 13  1  0  0  0  0
  2  3  1  0  0  0  0
  2 10  1  1  0  0  0
  4  3  1  1  0  0  0
  4  5  1  0  0  0  0
  4 14  1  0  0  0  0
  5  6  1  0  0  0  0
  5 13  1  6  0  0  0
  6  7  1  0  0  0  0
  6 15  1  6  0  0  0
  7  8  1  0  0  0  0
  7 11  1  6  0  0  0
  8 14  1  0  0  0  0
  8 16  1  1  0  0  0
  9 11  1  0  0  0  0
 17 16  1  6  0  0  0
 17 18  1  0  0  0  0
 17 24  1  0  0  0  0
 18 19  1  0  0  0  0
 18 25  1  6  0  0  0
 19 20  1  0  0  0  0
 19 26  1  1  0  0  0
 20 21  1  0  0  0  0
 20 23  1  6  0  0  0
 21 22  1  1  0  0  0
 21 24  1  0  0  0  0
 22 27  1  0  0  0  0
 28 12  1  6  0  0  0
 28 29  1  0  0  0  0
 28 33  1  0  0  0  0
 29 30  1  0  0  0  0
 29 36  1  1  0  0  0
 30 31  1  0  0  0  0
 30 37  1  6  0  0  0
 31 32  1  0  0  0  0
 31 34  1  1  0  0  0
 32 33  1  0  0  0  0
 33 35  1  1  0  0  0
M  END
>  <CHROM.1>
-145.73902091,-78.66813881,76.03831532,-167.04583375,178.00353591,-58.71628667
20.19751463,-2.05527995,52.61966434,-1.78019061,-0.63811986,0.79518555

>  <Name>
2oe8_lig

>  <RI>
0

>  <Rbt.Current_Directory>
/home/itssahil/PROJECTS/Mol_Feturizer/New_Systems/rnas/2oe8

>  <Rbt.Executable>
rbdock ($Id: //depot/dev/client3/rdock/2013.1/src/exe/rbdock.cxx#4 $)

>  <Rbt.Library>
libRbt.so (2013.1, Build901 2013/11/27)

>  <Rbt.Parameter_File>
/export/apps/rDock/src/rDock_2013.1_src/data/scripts/dock_solv.prm

>  <Rbt.Receptor>
prm/pocket_docking_8.prm

>  <SCORE>
-19.9529

>  <SCORE.INTER>
-18.4283

>  <SCORE.INTER.CONST>
1

>  <SCORE.INTER.POLAR>
-0.979796

>  <SCORE.INTER.ROT>
6

>  <SCORE.INTER.SOLV>
16.714

>  <SCORE.INTER.VDW>
-22.1909

>  <SCORE.INTER.norm>
-0.498062

>  <SCORE.INTRA>
-1.52465

>  <SCORE.INTRA.DIHEDRAL>
-9.70341

>  <SCORE.INTRA.DIHEDRAL.0>
16.4056

>  <SCORE.INTRA.POLAR>
0

>  <SCORE.INTRA.POLAR.0>
0

>  <SCORE.INTRA.REPUL>
0

>  <SCORE.INTRA.REPUL.0>
0

>  <SCORE.INTRA.SOLV>
0.683256

>  <SCORE.INTRA.SOLV.lig_0>
-90.9627

>  <SCORE.INTRA.VDW>
2.98543

>  <SCORE.INTRA.VDW.0>
-3.28744

>  <SCORE.INTRA.norm>
-0.0412067

>  <SCORE.RESTR>
0

>  <SCORE.RESTR.CAVITY>
0

>  <SCORE.RESTR.norm>
0

>  <SCORE.SYSTEM>
0

>  <SCORE.SYSTEM.CONST>
0

>  <SCORE.SYSTEM.DIHEDRAL>
0

>  <SCORE.SYSTEM.SOLV>
0

>  <SCORE.SYSTEM.norm>
0

>  <SCORE.heavy>
37

>  <SCORE.norm>
-0.539269

>  <RMSD>
9.431

$$$$
2oe8_lig
 OpenBabel11021811463D
libRbt.so/2013.1/901 2013/11/27
 37 40  0  0  0  0  0  0  0  0999 V2000
   22.7622   -1.9836   49.0114 C   0  0  1  0  0  0  0  0  0  0  0  0
   23.8702   -2.1631   50.1175 C   0  0  1  0  0  0  0  0  0  0  0  0
   23.2580   -1.8773   51.5046 C   0  0  0  0  0  0  0  0  0  0  0  0
   22.7394   -0.4061   51.4542 C   0  0  1  0  0  0  0  0  0  0  0  0
   21.6179   -0.2020   50.3111 C   0  0  1  0  0  0  0  0  0  0  0  0
   21.1090    1.2678   50.2414 C   0  0  1  0  0  0  0  0  0  0  0  0
   20.5312    1.6347   51.6691 C   0  0  1  0  0  0  0  0  0  0  0  0
   21.6412    1.3765   52.7467 C   0  0  2  0  0  0  0  0  0  0  0  0
   18.8298    3.4410   52.5288 C   0  0  0  0  0  0  0  0  0  0  0  0
   24.4213   -3.5551   50.0876 N   0  0  0  0  0  0  0  0  0  0  0  0
   20.0470    3.0814   51.7146 N   0  0  0  0  0  0  0  0  0  0  0  0
   21.6794   -2.9049   49.1920 O   0  0  0  0  0  0  0  0  0  0  0  0
   22.1951   -0.6031   49.0206 O   0  0  0  0  0  0  0  0  0  0  0  0
   22.1543   -0.0251   52.7347 O   0  0  0  0  0  0  0  0  0  0  0  0
   22.2255    2.0823   49.8799 O   0  0  0  0  0  0  0  0  0  0  0  0
   21.1197    1.6364   53.9987 O   0  0  0  0  0  0  0  0  0  0  0  0
   20.2853    0.5779   54.4988 C   0  0  2  0  0  0  0  0  0  0  0  0
   19.4019    1.0941   55.6603 C   0  0  1  0  0  0  0  0  0  0  0  0
   20.2538    1.4848   56.9067 C   0  0  2  0  0  0  0  0  0  0  0  0
   21.0723    0.2472   57.3795 C   0  0  1  0  0  0  0  0  0  0  0  0
   22.0084   -0.1750   56.1717 C   0  0  1  0  0  0  0  0  0  0  0  0
   22.8574   -1.3979   56.5072 C   0  0  0  0  0  0  0  0  0  0  0  0
   21.8875    0.6182   58.5713 N   0  0  0  0  0  0  0  0  0  0  0  0
   21.1435   -0.5308   54.9915 O   0  0  0  0  0  0  0  0  0  0  0  0
   18.6418    2.2087   55.1557 O   0  0  0  0  0  0  0  0  0  0  0  0
   19.3770    1.8972   57.9341 O   0  0  0  0  0  0  0  0  0  0  0  0
   23.6972   -1.6954   55.4231 O   0  0  0  0  0  0  0  0  0  0  0  0
   20.7797   -2.9419   48.1035 C   0  0  1  0  0  0  0  0  0  0  0  0
   20.7681   -4.3957   47.5309 C   0  0  1  0  0  0  0  0  0  0  0  0
   19.8037   -4.4434   46.3099 C   0  0  2  0  0  0  0  0  0  0  0  0
   18.3602   -4.0240   46.7269 C   0  0  1  0  0  0  0  0  0  0  0  0
   18.3639   -2.5621   47.3164 C   0  0  0  0  0  0  0  0  0  0  0  0
   19.3419   -2.5194   48.5629 C   0  0  2  0  0  0  0  0  0  0  0  0
   17.4592   -4.0723   45.5423 N   0  0  0  0  0  0  0  0  0  0  0  0
   19.3364   -1.1449   49.1124 N   0  0  0  0  0  0  0  0  0  0  0  0
   22.0892   -4.7752   47.1021 O   0  0  0  0  0  0  0  0  0  0  0  0
   19.8067   -5.7723   45.8149 O   0  0  0  0  0  0  0  0  0  0  0  0
  1  2  1  0  0  0  0
  1 12  1  1  0  0  0
  1 13  1  0  0  0  0
  2  3  1  0  0  0  0
  2 10  1  1  0  0  0
  4  3  1  1  0  0  0
  4  5  1  0  0  0  0
  4 14  1  0  0  0  0
  5  6  1  0  0  0  0
  5 13  1  6  0  0  0
  6  7  1  0  0  0  0
  6 15  1  1  0  0  0
  7  8  1  0  0  0  0
  7 11  1  6  0  0  0
  8 14  1  0  0  0  0
  8 16  1  1  0  0  0
  9 11  1  0  0  0  0
 17 16  1  1  0  0  0
 17 18  1  0  0  0  0
 17 24  1  0  0  0  0
 18 19  1  0  0  0  0
 18 25  1  6  0  0  0
 19 20  1  0  0  0  0
 19 26  1  1  0  0  0
 20 21  1  0  0  0  0
 20 23  1  1  0  0  0
 21 22  1  1  0  0  0
 21 24  1  0  0  0  0
 22 27  1  0  0  0  0
 28 12  1  1  0  0  0
 28 29  1  0  0  0  0
 28 33  1  0  0  0  0
 29 30  1  0  0  0  0
 29 36  1  6  0  0  0
 30 31  1  0  0  0  0
 30 37  1  1  0  0  0
 31 32  1  0  0  0  0
 31 34  1  6  0  0  0
 32 33  1  0  0  0  0
 33 35  1  6  0  0  0
M  END
>  <CHROM.1>
-169.67599227,144.29706670,78.09981563,-162.47333249,-177.90645349,119.80225269
21.00722240,-0.83823282,51.57839185,-1.64603829,-0.71519708,1.02711201

>  <Name>
2oe8_lig

>  <RI>
0

>  <Rbt.Current_Directory>
/home/itssahil/PROJECTS/Mol_Feturizer/New_Systems/rnas/2oe8

>  <Rbt.Executable>
rbdock ($Id: //depot/dev/client3/rdock/2013.1/src/exe/rbdock.cxx#4 $)

>  <Rbt.Library>
libRbt.so (2013.1, Build901 2013/11/27)

>  <Rbt.Parameter_File>
/export/apps/rDock/src/rDock_2013.1_src/data/scripts/dock_solv.prm

>  <Rbt.Receptor>
prm/pocket_docking_6.prm

>  <SCORE>
-18.4874

>  <SCORE.INTER>
-17.672

>  <SCORE.INTER.CONST>
1

>  <SCORE.INTER.POLAR>
-1.00671

>  <SCORE.INTER.ROT>
6

>  <SCORE.INTER.SOLV>
13.3045

>  <SCORE.INTER.VDW>
-20.4605

>  <SCORE.INTER.norm>
-0.477621

>  <SCORE.INTRA>
-0.815403

>  <SCORE.INTRA.DIHEDRAL>
-4.94587

>  <SCORE.INTRA.DIHEDRAL.0>
16.4056

>  <SCORE.INTRA.POLAR>
0

>  <SCORE.INTRA.POLAR.0>
0

>  <SCORE.INTRA.REPUL>
0

>  <SCORE.INTRA.REPUL.0>
0

>  <SCORE.INTRA.SOLV>
1.3458

>  <SCORE.INTRA.SOLV.lig_0>
-90.9627

>  <SCORE.INTRA.VDW>
0.984634

>  <SCORE.INTRA.VDW.0>
-3.28744

>  <SCORE.INTRA.norm>
-0.0220379

>  <SCORE.RESTR>
0

>  <SCORE.RESTR.CAVITY>
0

>  <SCORE.RESTR.norm>
0

>  <SCORE.SYSTEM>
0

>  <SCORE.SYSTEM.CONST>
0

>  <SCORE.SYSTEM.DIHEDRAL>
0

>  <SCORE.SYSTEM.SOLV>
0

>  <SCORE.SYSTEM.norm>
0

>  <SCORE.heavy>
37

>  <SCORE.norm>
-0.499659

>  <RMSD>
9.483

$$$$
2oe8_lig
 OpenBabel11021811463D
libRbt.so/2013.1/901 2013/11/27
 37 40  0  0  0  0  0  0  0  0999 V2000
   19.3674   -5.0265   48.1740 C   0  0  1  0  0  0  0  0  0  0  0  0
   18.6112   -4.8041   49.5387 C   0  0  1  0  0  0  0  0  0  0  0  0
   19.1737   -3.5474   50.2351 C   0  0  0  0  0  0  0  0  0  0  0  0
   20.6923   -3.8237   50.4662 C   0  0  1  0  0  0  0  0  0  0  0  0
   21.4768   -4.0742   49.0776 C   0  0  1  0  0  0  0  0  0  0  0  0
   22.9890   -4.3695   49.3007 C   0  0  1  0  0  0  0  0  0  0  0  0
   23.6010   -3.1333   50.0780 C   0  0  1  0  0  0  0  0  0  0  0  0
   22.7777   -2.9037   51.3931 C   0  0  2  0  0  0  0  0  0  0  0  0
   26.1121   -2.4095   49.8192 C   0  0  0  0  0  0  0  0  0  0  0  0
   17.1422   -4.6341   49.3033 N   0  0  0  0  0  0  0  0  0  0  0  0
   25.0798   -3.3511   50.3863 N   0  0  0  0  0  0  0  0  0  0  0  0
   19.1754   -3.9258   47.2766 O   0  0  0  0  0  0  0  0  0  0  0  0
   20.8355   -5.1979   48.3809 O   0  0  0  0  0  0  0  0  0  0  0  0
   21.3211   -2.6952   51.1432 O   0  0  0  0  0  0  0  0  0  0  0  0
   23.0741   -5.5816   50.0518 O   0  0  0  0  0  0  0  0  0  0  0  0
   23.2704   -1.7883   52.0414 O   0  0  0  0  0  0  0  0  0  0  0  0
   23.4417   -0.6549   51.1738 C   0  0  2  0  0  0  0  0  0  0  0  0
   24.1309    0.5038   51.9342 C   0  0  1  0  0  0  0  0  0  0  0  0
   23.2264    1.0692   53.0718 C   0  0  2  0  0  0  0  0  0  0  0  0
   21.8828    1.5672   52.4618 C   0  0  1  0  0  0  0  0  0  0  0  0
   21.1976    0.3151   51.7721 C   0  0  1  0  0  0  0  0  0  0  0  0
   19.8683    0.6798   51.1172 C   0  0  0  0  0  0  0  0  0  0  0  0
   21.0163    2.1086   53.5475 N   0  0  0  0  0  0  0  0  0  0  0  0
   22.1110   -0.2015   50.6921 O   0  0  0  0  0  0  0  0  0  0  0  0
   25.3811   -0.0018   52.4404 O   0  0  0  0  0  0  0  0  0  0  0  0
   23.9015    2.1486   53.6829 O   0  0  0  0  0  0  0  0  0  0  0  0
   19.4975   -0.3315   50.2178 O   0  0  0  0  0  0  0  0  0  0  0  0
   18.5800   -4.2930   46.0492 C   0  0  1  0  0  0  0  0  0  0  0  0
   18.5773   -3.0400   45.1155 C   0  0  1  0  0  0  0  0  0  0  0  0
   17.8949   -3.4221   43.7697 C   0  0  2  0  0  0  0  0  0  0  0  0
   18.6513   -4.5988   43.0792 C   0  0  1  0  0  0  0  0  0  0  0  0
   18.6689   -5.8644   44.0188 C   0  0  0  0  0  0  0  0  0  0  0  0
   19.3700   -5.4728   45.3853 C   0  0  2  0  0  0  0  0  0  0  0  0
   17.9771   -4.9489   41.7984 N   0  0  0  0  0  0  0  0  0  0  0  0
   19.3857   -6.6671   46.2596 N   0  0  0  0  0  0  0  0  0  0  0  0
   17.8428   -1.9626   45.7262 O   0  0  0  0  0  0  0  0  0  0  0  0
   17.9120   -2.2719   42.9405 O   0  0  0  0  0  0  0  0  0  0  0  0
  1  2  1  0  0  0  0
  1 12  1  6  0  0  0
  1 13  1  0  0  0  0
  2  3  1  0  0  0  0
  2 10  1  6  0  0  0
  4  3  1  6  0  0  0
  4  5  1  0  0  0  0
  4 14  1  0  0  0  0
  5  6  1  0  0  0  0
  5 13  1  1  0  0  0
  6  7  1  0  0  0  0
  6 15  1  1  0  0  0
  7  8  1  0  0  0  0
  7 11  1  1  0  0  0
  8 14  1  0  0  0  0
  8 16  1  6  0  0  0
  9 11  1  0  0  0  0
 17 16  1  1  0  0  0
 17 18  1  0  0  0  0
 17 24  1  0  0  0  0
 18 19  1  0  0  0  0
 18 25  1  1  0  0  0
 19 20  1  0  0  0  0
 19 26  1  6  0  0  0
 20 21  1  0  0  0  0
 20 23  1  1  0  0  0
 21 22  1  6  0  0  0
 21 24  1  0  0  0  0
 22 27  1  0  0  0  0
 28 12  1  1  0  0  0
 28 29  1  0  0  0  0
 28 33  1  0  0  0  0
 29 30  1  0  0  0  0
 29 36  1  1  0  0  0
 30 31  1  0  0  0  0
 30 37  1  6  0  0  0
 31 32  1  0  0  0  0
 31 34  1  6  0  0  0
 32 33  1  0  0  0  0
 33 35  1  1  0  0  0
M  END
>  <CHROM.1>
-121.02055470,118.60839745,47.95191505,-174.14146876,163.34118584,-173.77041798
20.97576967,-2.58097803,49.02285190,-2.21750161,-0.64190623,0.60039519

>  <Name>
2oe8_lig

>  <RI>
0

>  <Rbt.Current_Directory>
/home/itssahil/PROJECTS/Mol_Feturizer/New_Systems/rnas/2oe8

>  <Rbt.Executable>
rbdock ($Id: //depot/dev/client3/rdock/2013.1/src/exe/rbdock.cxx#4 $)

>  <Rbt.Library>
libRbt.so (2013.1, Build901 2013/11/27)

>  <Rbt.Parameter_File>
/export/apps/rDock/src/rDock_2013.1_src/data/scripts/dock_solv.prm

>  <Rbt.Receptor>
prm/pocket_docking_5.prm

>  <SCORE>
-20.4633

>  <SCORE.INTER>
-21.5351

>  <SCORE.INTER.CONST>
1

>  <SCORE.INTER.POLAR>
-3.17008

>  <SCORE.INTER.ROT>
6

>  <SCORE.INTER.SOLV>
12.7762

>  <SCORE.INTER.VDW>
-15.6485

>  <SCORE.INTER.norm>
-0.582029

>  <SCORE.INTRA>
1.07182

>  <SCORE.INTRA.DIHEDRAL>
-6.01152

>  <SCORE.INTRA.DIHEDRAL.0>
16.4056

>  <SCORE.INTRA.POLAR>
0

>  <SCORE.INTRA.POLAR.0>
0

>  <SCORE.INTRA.REPUL>
0

>  <SCORE.INTRA.REPUL.0>
0

>  <SCORE.INTRA.SOLV>
0.63351

>  <SCORE.INTRA.SOLV.lig_0>
-90.9627

>  <SCORE.INTRA.VDW>
3.76082

>  <SCORE.INTRA.VDW.0>
-3.28744

>  <SCORE.INTRA.norm>
0.028968

>  <SCORE.RESTR>
0

>  <SCORE.RESTR.CAVITY>
0

>  <SCORE.RESTR.norm>
0

>  <SCORE.SYSTEM>
0

>  <SCORE.SYSTEM.CONST>
0

>  <SCORE.SYSTEM.DIHEDRAL>
0

>  <SCORE.SYSTEM.SOLV>
0

>  <SCORE.SYSTEM.norm>
0

>  <SCORE.heavy>
37

>  <SCORE.norm>
-0.553061

>  <RMSD>
9.520

$$$$
2oe8_lig
 OpenBabel11021811463D
libRbt.so/2013.1/901 2013/11/27
 37 40  0  0  0  0  0  0  0  0999 V2000
   22.1069   -1.9962   48.9911 C   0  0  1  0  0  0  0  0  0  0  0  0
   22.4894   -3.2065   49.9251 C   0  0  1  0  0  0  0  0  0  0  0  0
   21.8887   -2.9788   51.3279 C   0  0  0  0  0  0  0  0  0  0  0  0
   22.5031   -1.6425   51.8502 C   0  0  1  0  0  0  0  0  0  0  0  0
   22.1368   -0.3963   50.8918 C   0  0  1  0  0  0  0  0  0  0  0  0
   22.7621    0.9376   51.3955 C   0  0  1  0  0  0  0  0  0  0  0  0
   22.2287    1.1824   52.8660 C   0  0  1  0  0  0  0  0  0  0  0  0
   22.5682   -0.0724   53.7436 C   0  0  2  0  0  0  0  0  0  0  0  0
   24.3066    2.5249   53.7473 C   0  0  0  0  0  0  0  0  0  0  0  0
   21.9707   -4.4917   49.3580 N   0  0  0  0  0  0  0  0  0  0  0  0
   22.8268    2.4514   53.4670 N   0  0  0  0  0  0  0  0  0  0  0  0
   20.6876   -1.8809   48.8282 O   0  0  0  0  0  0  0  0  0  0  0  0
   22.6120   -0.7014   49.5351 O   0  0  0  0  0  0  0  0  0  0  0  0
   22.0117   -1.3420   53.1901 O   0  0  0  0  0  0  0  0  0  0  0  0
   24.1812    0.7800   51.3500 O   0  0  0  0  0  0  0  0  0  0  0  0
   22.0493    0.1125   55.0100 O   0  0  0  0  0  0  0  0  0  0  0  0
   20.8950   -0.7019   55.2767 C   0  0  2  0  0  0  0  0  0  0  0  0
   19.6090    0.0193   54.8059 C   0  0  1  0  0  0  0  0  0  0  0  0
   19.3279    1.3065   55.6403 C   0  0  2  0  0  0  0  0  0  0  0  0
   19.1958    0.9261   57.1447 C   0  0  1  0  0  0  0  0  0  0  0  0
   20.5721    0.2686   57.5765 C   0  0  1  0  0  0  0  0  0  0  0  0
   20.5638   -0.1660   59.0393 C   0  0  0  0  0  0  0  0  0  0  0  0
   18.9267    2.1551   57.9446 N   0  0  0  0  0  0  0  0  0  0  0  0
   20.8049   -0.9600   56.7375 O   0  0  0  0  0  0  0  0  0  0  0  0
   19.7713    0.3100   53.4044 O   0  0  0  0  0  0  0  0  0  0  0  0
   18.1191    1.8774   55.1851 O   0  0  0  0  0  0  0  0  0  0  0  0
   19.6026   -1.1718   59.2224 O   0  0  0  0  0  0  0  0  0  0  0  0
   20.1569   -2.7535   47.8522 C   0  0  1  0  0  0  0  0  0  0  0  0
   18.5981   -2.7008   47.9484 C   0  0  1  0  0  0  0  0  0  0  0  0
   18.0001   -3.6823   46.8987 C   0  0  2  0  0  0  0  0  0  0  0  0
   18.4577   -3.2989   45.4574 C   0  0  1  0  0  0  0  0  0  0  0  0
   20.0301   -3.3384   45.3539 C   0  0  0  0  0  0  0  0  0  0  0  0
   20.6348   -2.3333   46.4198 C   0  0  2  0  0  0  0  0  0  0  0  0
   17.8778   -4.2545   44.4734 N   0  0  0  0  0  0  0  0  0  0  0  0
   22.1107   -2.3738   46.3132 N   0  0  0  0  0  0  0  0  0  0  0  0
   18.1643   -3.0963   49.2631 O   0  0  0  0  0  0  0  0  0  0  0  0
   16.5876   -3.6098   47.0023 O   0  0  0  0  0  0  0  0  0  0  0  0
  1  2  1  0  0  0  0
  1 12  1  1  0  0  0
  1 13  1  0  0  0  0
  2  3  1  0  0  0  0
  2 10  1  6  0  0  0
  4  3  1  6  0  0  0
  4  5  1  0  0  0  0
  4 14  1  0  0  0  0
  5  6  1  0  0  0  0
  5 13  1  6  0  0  0
  6  7  1  0  0  0  0
  6 15  1  1  0  0  0
  7  8  1  0  0  0  0
  7 11  1  1  0  0  0
  8 14  1  0  0  0  0
  8 16  1  1  0  0  0
  9 11  1  0  0  0  0
 17 16  1  1  0  0  0
 17 18  1  0  0  0  0
 17 24  1  0  0  0  0
 18 19  1  0  0  0  0
 18 25  1  6  0  0  0
 19 20  1  0  0  0  0
 19 26  1  6  0  0  0
 20 21  1  0  0  0  0
 20 23  1  1  0  0  0
 21 22  1  1  0  0  0
 21 24  1  0  0  0  0
 22 27  1  0  0  0  0
 28 12  1  1  0  0  0
 28 29  1  0  0  0  0
 28 33  1  0  0  0  0
 29 30  1  0  0  0  0
 29 36  1  1  0  0  0
 30 31  1  0  0  0  0
 30 37  1  6  0  0  0
 31 32  1  0  0  0  0
 31 34  1  6  0  0  0
 32 33  1  0  0  0  0
 33 35  1  1  0  0  0
M  END
>  <CHROM.1>
-81.77008232,-65.82701908,107.05280131,-87.22357168,63.76277248,170.52031330
20.73298047,-1.02072439,51.79111713,-1.66969878,0.36741039,1.23555647

>  <Name>
2oe8_lig

>  <RI>
0

>  <Rbt.Current_Directory>
/home/itssahil/PROJECTS/Mol_Feturizer/New_Systems/rnas/2oe8

>  <Rbt.Executable>
rbdock ($Id: //depot/dev/client3/rdock/2013.1/src/exe/rbdock.cxx#4 $)

>  <Rbt.Library>
libRbt.so (2013.1, Build901 2013/11/27)

>  <Rbt.Parameter_File>
/export/apps/rDock/src/rDock_2013.1_src/data/scripts/dock_solv.prm

>  <Rbt.Receptor>
prm/pocket_docking_7.prm

>  <SCORE>
-10.9769

>  <SCORE.INTER>
-15.3464

>  <SCORE.INTER.CONST>
1

>  <SCORE.INTER.POLAR>
-1.29597

>  <SCORE.INTER.ROT>
6

>  <SCORE.INTER.SOLV>
12.7881

>  <SCORE.INTER.VDW>
-17.7737

>  <SCORE.INTER.norm>
-0.414767

>  <SCORE.INTRA>
4.36946

>  <SCORE.INTRA.DIHEDRAL>
-4.3255

>  <SCORE.INTRA.DIHEDRAL.0>
16.4056

>  <SCORE.INTRA.POLAR>
0

>  <SCORE.INTRA.POLAR.0>
0

>  <SCORE.INTRA.REPUL>
0

>  <SCORE.INTRA.REPUL.0>
0

>  <SCORE.INTRA.SOLV>
2.76957

>  <SCORE.INTRA.SOLV.lig_0>
-90.9627

>  <SCORE.INTRA.VDW>
5.14743

>  <SCORE.INTRA.VDW.0>
-3.28744

>  <SCORE.INTRA.norm>
0.118094

>  <SCORE.RESTR>
0

>  <SCORE.RESTR.CAVITY>
0

>  <SCORE.RESTR.norm>
0

>  <SCORE.SYSTEM>
0

>  <SCORE.SYSTEM.CONST>
0

>  <SCORE.SYSTEM.DIHEDRAL>
0

>  <SCORE.SYSTEM.SOLV>
0

>  <SCORE.SYSTEM.norm>
0

>  <SCORE.heavy>
37

>  <SCORE.norm>
-0.296674

>  <RMSD>
9.567

$$$$
2oe8_lig
 OpenBabel11021811463D
libRbt.so/2013.1/901 2013/11/27
 37 40  0  0  0  0  0  0  0  0999 V2000
   18.1846   -5.1326   47.8629 C   0  0  1  0  0  0  0  0  0  0  0  0
   17.8250   -3.7052   47.3001 C   0  0  1  0  0  0  0  0  0  0  0  0
   19.0220   -2.7555   47.5140 C   0  0  0  0  0  0  0  0  0  0  0  0
   19.2704   -2.7123   49.0543 C   0  0  1  0  0  0  0  0  0  0  0  0
   19.6199   -4.1718   49.6489 C   0  0  1  0  0  0  0  0  0  0  0  0
   19.8504   -4.1407   51.1884 C   0  0  1  0  0  0  0  0  0  0  0  0
   21.0295   -3.1216   51.4678 C   0  0  1  0  0  0  0  0  0  0  0  0
   20.6626   -1.7354   50.8325 C   0  0  2  0  0  0  0  0  0  0  0  0
   22.6306   -2.4613   53.4419 C   0  0  0  0  0  0  0  0  0  0  0  0
   17.4988   -3.7831   45.8407 N   0  0  0  0  0  0  0  0  0  0  0  0
   21.3003   -2.9862   52.9637 N   0  0  0  0  0  0  0  0  0  0  0  0
   19.3050   -5.7055   47.1769 O   0  0  0  0  0  0  0  0  0  0  0  0
   18.5152   -5.0825   49.3175 O   0  0  0  0  0  0  0  0  0  0  0  0
   20.3790   -1.8185   49.3694 O   0  0  0  0  0  0  0  0  0  0  0  0
   18.6212   -3.7294   51.7890 O   0  0  0  0  0  0  0  0  0  0  0  0
   21.7163   -0.8629   51.0209 O   0  0  0  0  0  0  0  0  0  0  0  0
   21.4470    0.4663   50.5440 C   0  0  2  0  0  0  0  0  0  0  0  0
   22.4826    1.4628   51.1187 C   0  0  1  0  0  0  0  0  0  0  0  0
   22.3461    1.6130   52.6649 C   0  0  2  0  0  0  0  0  0  0  0  0
   20.9060    2.0947   53.0103 C   0  0  1  0  0  0  0  0  0  0  0  0
   19.9075    0.9909   52.4648 C   0  0  1  0  0  0  0  0  0  0  0  0
   18.4500    1.3578   52.7297 C   0  0  0  0  0  0  0  0  0  0  0  0
   20.7731    2.2393   54.4882 N   0  0  0  0  0  0  0  0  0  0  0  0
   20.0841    0.8740   50.9740 O   0  0  0  0  0  0  0  0  0  0  0  0
   23.7882    0.9897   50.7360 O   0  0  0  0  0  0  0  0  0  0  0  0
   23.2871    2.5699   53.1044 O   0  0  0  0  0  0  0  0  0  0  0  0
   17.6504    0.2109   52.6102 O   0  0  0  0  0  0  0  0  0  0  0  0
   19.5884   -7.0337   47.5658 C   0  0  1  0  0  0  0  0  0  0  0  0
   18.5959   -7.9818   46.8189 C   0  0  1  0  0  0  0  0  0  0  0  0
   18.8764   -9.4472   47.2625 C   0  0  2  0  0  0  0  0  0  0  0  0
   20.3471   -9.8530   46.9371 C   0  0  1  0  0  0  0  0  0  0  0  0
   21.3559   -8.8947   47.6778 C   0  0  0  0  0  0  0  0  0  0  0  0
   21.0711   -7.4046   47.2187 C   0  0  2  0  0  0  0  0  0  0  0  0
   20.5919  -11.2551   47.3753 N   0  0  0  0  0  0  0  0  0  0  0  0
   22.0247   -6.5123   47.9156 N   0  0  0  0  0  0  0  0  0  0  0  0
   17.2360   -7.6425   47.1484 O   0  0  0  0  0  0  0  0  0  0  0  0
   17.9689  -10.2853   46.5661 O   0  0  0  0  0  0  0  0  0  0  0  0
  1  2  1  0  0  0  0
  1 12  1  6  0  0  0
  1 13  1  0  0  0  0
  2  3  1  0  0  0  0
  2 10  1  6  0  0  0
  4  3  1  6  0  0  0
  4  5  1  0  0  0  0
  4 14  1  0  0  0  0
  5  6  1  0  0  0  0
  5 13  1  1  0  0  0
  6  7  1  0  0  0  0
  6 15  1  1  0  0  0
  7  8  1  0  0  0  0
  7 11  1  1  0  0  0
  8 14  1  0  0  0  0
  8 16  1  6  0  0  0
  9 11  1  0  0  0  0
 17 16  1  1  0  0  0
 17 18  1  0  0  0  0
 17 24  1  0  0  0  0
 18 19  1  0  0  0  0
 18 25  1  1  0  0  0
 19 20  1  0  0  0  0
 19 26  1  6  0  0  0
 20 21  1  0  0  0  0
 20 23  1  1  0  0  0
 21 22  1  6  0  0  0
 21 24  1  0  0  0  0
 22 27  1  0  0  0  0
 28 12  1  6  0  0  0
 28 29  1  0  0  0  0
 28 33  1  0  0  0  0
 29 30  1  0  0  0  0
 29 36  1  1  0  0  0
 30 31  1  0  0  0  0
 30 37  1  6  0  0  0
 31 32  1  0  0  0  0
 31 34  1  1  0  0  0
 32 33  1  0  0  0  0
 33 35  1  1  0  0  0
M  END
>  <CHROM.1>
-174.62269145,159.40883943,-176.43122998,164.67106385,-162.24288817,80.07805976
20.10823528,-3.35594296,49.82480502,1.76998301,0.41310372,-2.71112302

>  <Name>
2oe8_lig

>  <RI>
0

>  <Rbt.Current_Directory>
/home/itssahil/PROJECTS/Mol_Feturizer/New_Systems/rnas/2oe8

>  <Rbt.Executable>
rbdock ($Id: //depot/dev/client3/rdock/2013.1/src/exe/rbdock.cxx#4 $)

>  <Rbt.Library>
libRbt.so (2013.1, Build901 2013/11/27)

>  <Rbt.Parameter_File>
/export/apps/rDock/src/rDock_2013.1_src/data/scripts/dock_solv.prm

>  <Rbt.Receptor>
prm/pocket_docking_6.prm

>  <SCORE>
-22.7035

>  <SCORE.INTER>
-16.5978

>  <SCORE.INTER.CONST>
1

>  <SCORE.INTER.POLAR>
-1.54518

>  <SCORE.INTER.ROT>
6

>  <SCORE.INTER.SOLV>
10.7317

>  <SCORE.INTER.VDW>
-17.0918

>  <SCORE.INTER.norm>
-0.448588

>  <SCORE.INTRA>
-6.10578

>  <SCORE.INTRA.DIHEDRAL>
-11.8466

>  <SCORE.INTRA.DIHEDRAL.0>
16.4056

>  <SCORE.INTRA.POLAR>
0

>  <SCORE.INTRA.POLAR.0>
0

>  <SCORE.INTRA.REPUL>
0.0154442

>  <SCORE.INTRA.REPUL.0>
0

>  <SCORE.INTRA.SOLV>
-2.41639

>  <SCORE.INTRA.SOLV.lig_0>
-90.9627

>  <SCORE.INTRA.VDW>
0.948513

>  <SCORE.INTRA.VDW.0>
-3.28744

>  <SCORE.INTRA.norm>
-0.165021

>  <SCORE.RESTR>
0

>  <SCORE.RESTR.CAVITY>
0

>  <SCORE.RESTR.norm>
0

>  <SCORE.SYSTEM>
0

>  <SCORE.SYSTEM.CONST>
0

>  <SCORE.SYSTEM.DIHEDRAL>
0

>  <SCORE.SYSTEM.SOLV>
0

>  <SCORE.SYSTEM.norm>
0

>  <SCORE.heavy>
37

>  <SCORE.norm>
-0.613609

>  <RMSD>
9.569

$$$$
2oe8_lig
 OpenBabel11021811463D
libRbt.so/2013.1/901 2013/11/27
 37 40  0  0  0  0  0  0  0  0999 V2000
   17.7606   -4.9264   47.9780 C   0  0  1  0  0  0  0  0  0  0  0  0
   17.5138   -3.4855   47.3894 C   0  0  1  0  0  0  0  0  0  0  0  0
   18.7929   -2.6393   47.5576 C   0  0  0  0  0  0  0  0  0  0  0  0
   19.0774   -2.5848   49.0912 C   0  0  1  0  0  0  0  0  0  0  0  0
   19.3120   -4.0561   49.7126 C   0  0  1  0  0  0  0  0  0  0  0  0
   19.5775   -4.0122   51.2461 C   0  0  1  0  0  0  0  0  0  0  0  0
   20.8463   -3.0939   51.4785 C   0  0  1  0  0  0  0  0  0  0  0  0
   20.5871   -1.6950   50.8185 C   0  0  2  0  0  0  0  0  0  0  0  0
   22.5537   -2.5808   53.4067 C   0  0  0  0  0  0  0  0  0  0  0  0
   17.1507   -3.5660   45.9389 N   0  0  0  0  0  0  0  0  0  0  0  0
   21.1601   -2.9506   52.9653 N   0  0  0  0  0  0  0  0  0  0  0  0
   18.8121   -5.6092   47.2836 O   0  0  0  0  0  0  0  0  0  0  0  0
   18.1257   -4.8741   49.4242 O   0  0  0  0  0  0  0  0  0  0  0  0
   20.2658   -1.7844   49.3637 O   0  0  0  0  0  0  0  0  0  0  0  0
   18.4019   -3.4827   51.8611 O   0  0  0  0  0  0  0  0  0  0  0  0
   21.7162   -0.9137   50.9659 O   0  0  0  0  0  0  0  0  0  0  0  0
   21.5325    0.4415   50.5225 C   0  0  2  0  0  0  0  0  0  0  0  0
   22.5803    1.3692   51.1838 C   0  0  1  0  0  0  0  0  0  0  0  0
   22.3695    1.4752   52.7254 C   0  0  2  0  0  0  0  0  0  0  0  0
   20.9365    2.0124   53.0133 C   0  0  1  0  0  0  0  0  0  0  0  0
   19.9193    0.9748   52.3793 C   0  0  1  0  0  0  0  0  0  0  0  0
   18.4679    1.4007   52.5821 C   0  0  0  0  0  0  0  0  0  0  0  0
   20.7326    2.1148   54.4866 N   0  0  0  0  0  0  0  0  0  0  0  0
   20.1687    0.8983   50.8963 O   0  0  0  0  0  0  0  0  0  0  0  0
   23.8816    0.8482   50.8520 O   0  0  0  0  0  0  0  0  0  0  0  0
   23.3283    2.3722   53.2455 O   0  0  0  0  0  0  0  0  0  0  0  0
   18.2734    2.6754   52.0286 O   0  0  0  0  0  0  0  0  0  0  0  0
   18.9081   -6.9807   47.6087 C   0  0  1  0  0  0  0  0  0  0  0  0
   17.7693   -7.7403   46.8552 C   0  0  1  0  0  0  0  0  0  0  0  0
   17.8438   -9.2494   47.2294 C   0  0  2  0  0  0  0  0  0  0  0  0
   19.2308   -9.8489   46.8416 C   0  0  1  0  0  0  0  0  0  0  0  0
   20.3871   -9.0811   47.5888 C   0  0  0  0  0  0  0  0  0  0  0  0
   20.3116   -7.5464   47.2002 C   0  0  2  0  0  0  0  0  0  0  0  0
   19.2791  -11.2899   47.2142 N   0  0  0  0  0  0  0  0  0  0  0  0
   21.4025   -6.8339   47.9027 N   0  0  0  0  0  0  0  0  0  0  0  0
   16.4823   -7.2228   47.2410 O   0  0  0  0  0  0  0  0  0  0  0  0
   16.8064   -9.9150   46.5283 O   0  0  0  0  0  0  0  0  0  0  0  0
  1  2  1  0  0  0  0
  1 12  1  6  0  0  0
  1 13  1  0  0  0  0
  2  3  1  0  0  0  0
  2 10  1  6  0  0  0
  4  3  1  6  0  0  0
  4  5  1  0  0  0  0
  4 14  1  0  0  0  0
  5  6  1  0  0  0  0
  5 13  1  1  0  0  0
  6  7  1  0  0  0  0
  6 15  1  1  0  0  0
  7  8  1  0  0  0  0
  7 11  1  1  0  0  0
  8 14  1  0  0  0  0
  8 16  1  6  0  0  0
  9 11  1  0  0  0  0
 17 16  1  1  0  0  0
 17 18  1  0  0  0  0
 17 24  1  0  0  0  0
 18 19  1  0  0  0  0
 18 25  1  1  0  0  0
 19 20  1  0  0  0  0
 19 26  1  6  0  0  0
 20 21  1  0  0  0  0
 20 23  1  1  0  0  0
 21 22  1  6  0  0  0
 21 24  1  0  0  0  0
 22 27  1  0  0  0  0
 28 12  1  6  0  0  0
 28 29  1  0  0  0  0
 28 33  1  0  0  0  0
 29 30  1  0  0  0  0
 29 36  1  1  0  0  0
 30 31  1  0  0  0  0
 30 37  1  6  0  0  0
 31 32  1  0  0  0  0
 31 34  1  1  0  0  0
 32 33  1  0  0  0  0
 33 35  1  1  0  0  0
M  END
>  <CHROM.1>
-169.14920412,157.25275860,-173.61490079,158.41154691,57.28777742,77.10921910
19.79153682,-3.23871875,49.82064369,1.86811862,0.50776247,-2.78236146

>  <Name>
2oe8_lig

>  <RI>
0

>  <Rbt.Current_Directory>
/home/itssahil/PROJECTS/Mol_Feturizer/New_Systems/rnas/2oe8

>  <Rbt.Executable>
rbdock ($Id: //depot/dev/client3/rdock/2013.1/src/exe/rbdock.cxx#4 $)

>  <Rbt.Library>
libRbt.so (2013.1, Build901 2013/11/27)

>  <Rbt.Parameter_File>
/export/apps/rDock/src/rDock_2013.1_src/data/scripts/dock_solv.prm

>  <Rbt.Receptor>
prm/pocket_docking_7.prm

>  <SCORE>
-22.7309

>  <SCORE.INTER>
-17.4307

>  <SCORE.INTER.CONST>
1

>  <SCORE.INTER.POLAR>
-1.03923

>  <SCORE.INTER.ROT>
6

>  <SCORE.INTER.SOLV>
12.9317

>  <SCORE.INTER.VDW>
-20.0669

>  <SCORE.INTER.norm>
-0.4711

>  <SCORE.INTRA>
-5.30019

>  <SCORE.INTRA.DIHEDRAL>
-11.7558

>  <SCORE.INTRA.DIHEDRAL.0>
16.4056

>  <SCORE.INTRA.POLAR>
0

>  <SCORE.INTRA.POLAR.0>
0

>  <SCORE.INTRA.REPUL>
0

>  <SCORE.INTRA.REPUL.0>
0

>  <SCORE.INTRA.SOLV>
-1.6933

>  <SCORE.INTRA.SOLV.lig_0>
-90.9627

>  <SCORE.INTRA.VDW>
1.42435

>  <SCORE.INTRA.VDW.0>
-3.28744

>  <SCORE.INTRA.norm>
-0.143248

>  <SCORE.RESTR>
0

>  <SCORE.RESTR.CAVITY>
0

>  <SCORE.RESTR.norm>
0

>  <SCORE.SYSTEM>
0

>  <SCORE.SYSTEM.CONST>
0

>  <SCORE.SYSTEM.DIHEDRAL>
0

>  <SCORE.SYSTEM.SOLV>
0

>  <SCORE.SYSTEM.norm>
0

>  <SCORE.heavy>
37

>  <SCORE.norm>
-0.614348

>  <RMSD>
9.578

$$$$
2oe8_lig
 OpenBabel11021811463D
libRbt.so/2013.1/901 2013/11/27
 37 40  0  0  0  0  0  0  0  0999 V2000
   18.7293   -4.9990   47.4758 C   0  0  1  0  0  0  0  0  0  0  0  0
   18.5044   -3.5702   46.8503 C   0  0  1  0  0  0  0  0  0  0  0  0
   19.6851   -2.6536   47.2328 C   0  0  0  0  0  0  0  0  0  0  0  0
   19.6996   -2.5945   48.7924 C   0  0  1  0  0  0  0  0  0  0  0  0
   19.9087   -4.0547   49.4482 C   0  0  1  0  0  0  0  0  0  0  0  0
   19.9052   -4.0072   51.0044 C   0  0  1  0  0  0  0  0  0  0  0  0
   21.0606   -3.0198   51.4483 C   0  0  1  0  0  0  0  0  0  0  0  0
   20.8381   -1.6330   50.7504 C   0  0  2  0  0  0  0  0  0  0  0  0
   22.4325   -2.6985   53.6645 C   0  0  0  0  0  0  0  0  0  0  0  0
   18.3997   -3.6603   45.3592 N   0  0  0  0  0  0  0  0  0  0  0  0
   21.1069   -2.8699   52.9665 N   0  0  0  0  0  0  0  0  0  0  0  0
   19.9215   -5.6155   46.9731 O   0  0  0  0  0  0  0  0  0  0  0  0
   18.8382   -4.9368   48.9631 O   0  0  0  0  0  0  0  0  0  0  0  0
   20.7759   -1.7297   49.2622 O   0  0  0  0  0  0  0  0  0  0  0  0
   18.6133   -3.5503   51.4080 O   0  0  0  0  0  0  0  0  0  0  0  0
   21.8786   -0.7897   51.0869 O   0  0  0  0  0  0  0  0  0  0  0  0
   21.6715    0.5678   50.6612 C   0  0  2  0  0  0  0  0  0  0  0  0
   22.6789    1.5101   51.3634 C   0  0  1  0  0  0  0  0  0  0  0  0
   22.4276    1.5848   52.9007 C   0  0  2  0  0  0  0  0  0  0  0  0
   20.9747    2.0811   53.1614 C   0  0  1  0  0  0  0  0  0  0  0  0
   20.0001    1.0293   52.4854 C   0  0  1  0  0  0  0  0  0  0  0  0
   18.5338    1.4154   52.6587 C   0  0  0  0  0  0  0  0  0  0  0  0
   20.7322    2.1536   54.6306 N   0  0  0  0  0  0  0  0  0  0  0  0
   20.2878    0.9841   51.0080 O   0  0  0  0  0  0  0  0  0  0  0  0
   24.0007    1.0274   51.0559 O   0  0  0  0  0  0  0  0  0  0  0  0
   23.3502    2.4966   53.4591 O   0  0  0  0  0  0  0  0  0  0  0  0
   18.3191    2.6910   52.1147 O   0  0  0  0  0  0  0  0  0  0  0  0
   20.1525   -6.9088   47.4925 C   0  0  1  0  0  0  0  0  0  0  0  0
   19.1953   -7.9047   46.7621 C   0  0  1  0  0  0  0  0  0  0  0  0
   19.4171   -9.3299   47.3474 C   0  0  2  0  0  0  0  0  0  0  0  0
   20.8985   -9.7815   47.1604 C   0  0  1  0  0  0  0  0  0  0  0  0
   21.8727   -8.7761   47.8849 C   0  0  0  0  0  0  0  0  0  0  0  0
   21.6482   -7.3276   47.2818 C   0  0  2  0  0  0  0  0  0  0  0  0
   21.0862  -11.1436   47.7324 N   0  0  0  0  0  0  0  0  0  0  0  0
   22.5690   -6.3910   47.9645 N   0  0  0  0  0  0  0  0  0  0  0  0
   17.8228   -7.5204   46.9665 O   0  0  0  0  0  0  0  0  0  0  0  0
   18.5432  -10.2130   46.6638 O   0  0  0  0  0  0  0  0  0  0  0  0
  1  2  1  0  0  0  0
  1 12  1  6  0  0  0
  1 13  1  0  0  0  0
  2  3  1  0  0  0  0
  2 10  1  6  0  0  0
  4  3  1  6  0  0  0
  4  5  1  0  0  0  0
  4 14  1  0  0  0  0
  5  6  1  0  0  0  0
  5 13  1  1  0  0  0
  6  7  1  0  0  0  0
  6 15  1  6  0  0  0
  7  8  1  0  0  0  0
  7 11  1  1  0  0  0
  8 14  1  0  0  0  0
  8 16  1  6  0  0  0
  9 11  1  0  0  0  0
 17 16  1  1  0  0  0
 17 18  1  0  0  0  0
 17 24  1  0  0  0  0
 18 19  1  0  0  0  0
 18 25  1  1  0  0  0
 19 20  1  0  0  0  0
 19 26  1  1  0  0  0
 20 21  1  0  0  0  0
 20 23  1  1  0  0  0
 21 22  1  6  0  0  0
 21 24  1  0  0  0  0
 22 27  1  0  0  0  0
 28 12  1  6  0  0  0
 28 29  1  0  0  0  0
 28 33  1  0  0  0  0
 29 30  1  0  0  0  0
 29 36  1  1  0  0  0
 30 31  1  0  0  0  0
 30 37  1  6  0  0  0
 31 32  1  0  0  0  0
 31 34  1  1  0  0  0
 32 33  1  0  0  0  0
 33 35  1  1  0  0  0
M  END
>  <CHROM.1>
-179.09169595,144.96285893,-171.31526224,165.91011551,57.60814730,76.96541202
20.43930790,-3.20742580,49.78893158,1.73354182,0.65105014,-2.72770267

>  <Name>
2oe8_lig

>  <RI>
0

>  <Rbt.Current_Directory>
/home/itssahil/PROJECTS/Mol_Feturizer/New_Systems/rnas/2oe8

>  <Rbt.Executable>
rbdock ($Id: //depot/dev/client3/rdock/2013.1/src/exe/rbdock.cxx#4 $)

>  <Rbt.Library>
libRbt.so (2013.1, Build901 2013/11/27)

>  <Rbt.Parameter_File>
/export/apps/rDock/src/rDock_2013.1_src/data/scripts/dock_solv.prm

>  <Rbt.Receptor>
prm/pocket_docking_7.prm

>  <SCORE>
-22.4977

>  <SCORE.INTER>
-16.0849

>  <SCORE.INTER.CONST>
1

>  <SCORE.INTER.POLAR>
-1.03923

>  <SCORE.INTER.ROT>
6

>  <SCORE.INTER.SOLV>
8.51541

>  <SCORE.INTER.VDW>
-17.6976

>  <SCORE.INTER.norm>
-0.434726

>  <SCORE.INTRA>
-6.41288

>  <SCORE.INTRA.DIHEDRAL>
-12.926

>  <SCORE.INTRA.DIHEDRAL.0>
16.4056

>  <SCORE.INTRA.POLAR>
0

>  <SCORE.INTRA.POLAR.0>
0

>  <SCORE.INTRA.REPUL>
0

>  <SCORE.INTRA.REPUL.0>
0

>  <SCORE.INTRA.SOLV>
-2.10172

>  <SCORE.INTRA.SOLV.lig_0>
-90.9627

>  <SCORE.INTRA.VDW>
1.10099

>  <SCORE.INTRA.VDW.0>
-3.28744

>  <SCORE.INTRA.norm>
-0.173321

>  <SCORE.RESTR>
0

>  <SCORE.RESTR.CAVITY>
0

>  <SCORE.RESTR.norm>
0

>  <SCORE.SYSTEM>
0

>  <SCORE.SYSTEM.CONST>
0

>  <SCORE.SYSTEM.DIHEDRAL>
0

>  <SCORE.SYSTEM.SOLV>
0

>  <SCORE.SYSTEM.norm>
0

>  <SCORE.heavy>
37

>  <SCORE.norm>
-0.608047

>  <RMSD>
9.583

$$$$
2oe8_lig
 OpenBabel11021811463D
libRbt.so/2013.1/901 2013/11/27
 37 40  0  0  0  0  0  0  0  0999 V2000
   21.8766   -2.7134   50.7911 C   0  0  1  0  0  0  0  0  0  0  0  0
   22.6381   -2.6846   52.1705 C   0  0  1  0  0  0  0  0  0  0  0  0
   21.6462   -2.3169   53.2937 C   0  0  0  0  0  0  0  0  0  0  0  0
   21.0808   -0.9089   52.9281 C   0  0  1  0  0  0  0  0  0  0  0  0
   20.3153   -0.9180   51.5068 C   0  0  1  0  0  0  0  0  0  0  0  0
   19.7647    0.4875   51.1256 C   0  0  1  0  0  0  0  0  0  0  0  0
   18.7898    0.9426   52.2873 C   0  0  1  0  0  0  0  0  0  0  0  0
   19.5656    0.8907   53.6494 C   0  0  2  0  0  0  0  0  0  0  0  0
   19.0499    3.5541   52.3829 C   0  0  0  0  0  0  0  0  0  0  0  0
   23.2528   -4.0193   52.4588 N   0  0  0  0  0  0  0  0  0  0  0  0
   18.2318    2.3389   52.0255 N   0  0  0  0  0  0  0  0  0  0  0  0
   20.8402   -3.7031   50.7788 O   0  0  0  0  0  0  0  0  0  0  0  0
   21.2530   -1.3935   50.4801 O   0  0  0  0  0  0  0  0  0  0  0  0
   20.1395   -0.4550   53.9455 O   0  0  0  0  0  0  0  0  0  0  0  0
   20.8901    1.3564   50.9873 O   0  0  0  0  0  0  0  0  0  0  0  0
   18.7000    1.2273   54.6714 O   0  0  0  0  0  0  0  0  0  0  0  0
   19.3491    1.3565   55.9477 C   0  0  2  0  0  0  0  0  0  0  0  0
   18.3438    1.8573   57.0128 C   0  0  1  0  0  0  0  0  0  0  0  0
   17.8630    3.3111   56.7175 C   0  0  2  0  0  0  0  0  0  0  0  0
   19.0957    4.2616   56.6710 C   0  0  1  0  0  0  0  0  0  0  0  0
   20.0387    3.7371   55.5095 C   0  0  1  0  0  0  0  0  0  0  0  0
   21.3013    4.5832   55.3724 C   0  0  0  0  0  0  0  0  0  0  0  0
   18.6386    5.6523   56.3890 N   0  0  0  0  0  0  0  0  0  0  0  0
   20.4661    2.3298   55.8326 O   0  0  0  0  0  0  0  0  0  0  0  0
   17.2486    0.9220   57.0392 O   0  0  0  0  0  0  0  0  0  0  0  0
   16.9914    3.7113   57.7540 O   0  0  0  0  0  0  0  0  0  0  0  0
   20.9603    5.8569   54.8922 O   0  0  0  0  0  0  0  0  0  0  0  0
   20.3027   -3.9443   49.4948 C   0  0  1  0  0  0  0  0  0  0  0  0
   19.0767   -2.9964   49.2945 C   0  0  1  0  0  0  0  0  0  0  0  0
   18.4548   -3.2740   47.8948 C   0  0  2  0  0  0  0  0  0  0  0  0
   19.5034   -3.0341   46.7649 C   0  0  1  0  0  0  0  0  0  0  0  0
   20.7495   -3.9786   46.9652 C   0  0  0  0  0  0  0  0  0  0  0  0
   21.3832   -3.6884   48.3886 C   0  0  2  0  0  0  0  0  0  0  0  0
   18.8869   -3.3112   45.4379 N   0  0  0  0  0  0  0  0  0  0  0  0
   22.5542   -4.5763   48.5668 N   0  0  0  0  0  0  0  0  0  0  0  0
   18.0835   -3.2421   50.3077 O   0  0  0  0  0  0  0  0  0  0  0  0
   17.3512   -2.3978   47.7363 O   0  0  0  0  0  0  0  0  0  0  0  0
  1  2  1  0  0  0  0
  1 12  1  1  0  0  0
  1 13  1  0  0  0  0
  2  3  1  0  0  0  0
  2 10  1  1  0  0  0
  4  3  1  1  0  0  0
  4  5  1  0  0  0  0
  4 14  1  0  0  0  0
  5  6  1  0  0  0  0
  5 13  1  6  0  0  0
  6  7  1  0  0  0  0
  6 15  1  1  0  0  0
  7  8  1  0  0  0  0
  7 11  1  6  0  0  0
  8 14  1  0  0  0  0
  8 16  1  1  0  0  0
  9 11  1  0  0  0  0
 17 16  1  6  0  0  0
 17 18  1  0  0  0  0
 17 24  1  0  0  0  0
 18 19  1  0  0  0  0
 18 25  1  6  0  0  0
 19 20  1  0  0  0  0
 19 26  1  1  0  0  0
 20 21  1  0  0  0  0
 20 23  1  6  0  0  0
 21 22  1  1  0  0  0
 21 24  1  0  0  0  0
 22 27  1  0  0  0  0
 28 12  1  1  0  0  0
 28 29  1  0  0  0  0
 28 33  1  0  0  0  0
 29 30  1  0  0  0  0
 29 36  1  1  0  0  0
 30 31  1  0  0  0  0
 30 37  1  6  0  0  0
 31 32  1  0  0  0  0
 31 34  1  6  0  0  0
 32 33  1  0  0  0  0
 33 35  1  1  0  0  0
M  END
>  <CHROM.1>
-168.56553718,-82.25109303,-173.39887124,174.91882746,-68.61527771,-91.62788075
19.83404682,-0.10163114,52.34651019,-1.40173416,-0.75605753,0.93694441

>  <Name>
2oe8_lig

>  <RI>
0

>  <Rbt.Current_Directory>
/home/itssahil/PROJECTS/Mol_Feturizer/New_Systems/rnas/2oe8

>  <Rbt.Executable>
rbdock ($Id: //depot/dev/client3/rdock/2013.1/src/exe/rbdock.cxx#4 $)

>  <Rbt.Library>
libRbt.so (2013.1, Build901 2013/11/27)

>  <Rbt.Parameter_File>
/export/apps/rDock/src/rDock_2013.1_src/data/scripts/dock_solv.prm

>  <Rbt.Receptor>
prm/pocket_docking_7.prm

>  <SCORE>
-19.6263

>  <SCORE.INTER>
-18.0763

>  <SCORE.INTER.CONST>
1

>  <SCORE.INTER.POLAR>
-1.97724

>  <SCORE.INTER.ROT>
6

>  <SCORE.INTER.SOLV>
16.8888

>  <SCORE.INTER.VDW>
-18.6897

>  <SCORE.INTER.norm>
-0.488549

>  <SCORE.INTRA>
-1.55001

>  <SCORE.INTRA.DIHEDRAL>
-10.844

>  <SCORE.INTRA.DIHEDRAL.0>
16.4056

>  <SCORE.INTRA.POLAR>
0

>  <SCORE.INTRA.POLAR.0>
0

>  <SCORE.INTRA.REPUL>
0

>  <SCORE.INTRA.REPUL.0>
0

>  <SCORE.INTRA.SOLV>
0.0899207

>  <SCORE.INTRA.SOLV.lig_0>
-90.9627

>  <SCORE.INTRA.VDW>
3.82703

>  <SCORE.INTRA.VDW.0>
-3.28744

>  <SCORE.INTRA.norm>
-0.0418921

>  <SCORE.RESTR>
0

>  <SCORE.RESTR.CAVITY>
0

>  <SCORE.RESTR.norm>
0

>  <SCORE.SYSTEM>
0

>  <SCORE.SYSTEM.CONST>
0

>  <SCORE.SYSTEM.DIHEDRAL>
0

>  <SCORE.SYSTEM.SOLV>
0

>  <SCORE.SYSTEM.norm>
0

>  <SCORE.heavy>
37

>  <SCORE.norm>
-0.530441

>  <RMSD>
9.602

$$$$
2oe8_lig
 OpenBabel11021811463D
libRbt.so/2013.1/901 2013/11/27
 37 40  0  0  0  0  0  0  0  0999 V2000
   17.3844   -5.1587   47.6790 C   0  0  1  0  0  0  0  0  0  0  0  0
   16.8568   -3.7577   47.1868 C   0  0  1  0  0  0  0  0  0  0  0  0
   18.0141   -2.7377   47.2148 C   0  0  0  0  0  0  0  0  0  0  0  0
   18.4983   -2.6730   48.6971 C   0  0  1  0  0  0  0  0  0  0  0  0
   19.0228   -4.1065   49.2223 C   0  0  1  0  0  0  0  0  0  0  0  0
   19.4899   -4.0550   50.7066 C   0  0  1  0  0  0  0  0  0  0  0  0
   20.6358   -2.9665   50.8025 C   0  0  1  0  0  0  0  0  0  0  0  0
   20.0921   -1.6073   50.2395 C   0  0  2  0  0  0  0  0  0  0  0  0
   22.5151   -3.2726   52.6111 C   0  0  0  0  0  0  0  0  0  0  0  0
   16.3107   -3.8613   45.7964 N   0  0  0  0  0  0  0  0  0  0  0  0
   21.1297   -2.8086   52.2379 N   0  0  0  0  0  0  0  0  0  0  0  0
   18.4151   -5.6671   46.8228 O   0  0  0  0  0  0  0  0  0  0  0  0
   17.9358   -5.0826   49.0639 O   0  0  0  0  0  0  0  0  0  0  0  0
   19.5877   -1.7136   48.8388 O   0  0  0  0  0  0  0  0  0  0  0  0
   18.3482   -3.7147   51.4948 O   0  0  0  0  0  0  0  0  0  0  0  0
   21.1087   -0.6730   50.2645 O   0  0  0  0  0  0  0  0  0  0  0  0
   20.6376    0.6768   50.4165 C   0  0  2  0  0  0  0  0  0  0  0  0
   21.8277    1.6366   50.6576 C   0  0  1  0  0  0  0  0  0  0  0  0
   22.5304    1.3570   52.0215 C   0  0  2  0  0  0  0  0  0  0  0  0
   21.4942    1.5053   53.1745 C   0  0  1  0  0  0  0  0  0  0  0  0
   20.3501    0.4413   52.9058 C   0  0  1  0  0  0  0  0  0  0  0  0
   19.2558    0.4983   53.9678 C   0  0  0  0  0  0  0  0  0  0  0  0
   22.1637    1.2387   54.4796 N   0  0  0  0  0  0  0  0  0  0  0  0
   19.7111    0.7443   51.5764 O   0  0  0  0  0  0  0  0  0  0  0  0
   22.7302    1.4856   49.5451 O   0  0  0  0  0  0  0  0  0  0  0  0
   23.5685    2.2997   52.1893 O   0  0  0  0  0  0  0  0  0  0  0  0
   18.2851   -0.4766   53.6913 O   0  0  0  0  0  0  0  0  0  0  0  0
   18.8992   -6.9363   47.2112 C   0  0  1  0  0  0  0  0  0  0  0  0
   17.8574   -8.0119   46.7647 C   0  0  1  0  0  0  0  0  0  0  0  0
   18.3635   -9.4135   47.2146 C   0  0  2  0  0  0  0  0  0  0  0  0
   19.7561   -9.7281   46.5860 C   0  0  1  0  0  0  0  0  0  0  0  0
   20.8114   -8.6414   47.0221 C   0  0  0  0  0  0  0  0  0  0  0  0
   20.2955   -7.2168   46.5567 C   0  0  2  0  0  0  0  0  0  0  0  0
   20.2204  -11.0698   47.0353 N   0  0  0  0  0  0  0  0  0  0  0  0
   21.2936   -6.2033   46.9665 N   0  0  0  0  0  0  0  0  0  0  0  0
   16.5794   -7.7546   47.3759 O   0  0  0  0  0  0  0  0  0  0  0  0
   17.4052  -10.3695   46.7918 O   0  0  0  0  0  0  0  0  0  0  0  0
  1  2  1  0  0  0  0
  1 12  1  6  0  0  0
  1 13  1  0  0  0  0
  2  3  1  0  0  0  0
  2 10  1  6  0  0  0
  4  3  1  6  0  0  0
  4  5  1  0  0  0  0
  4 14  1  0  0  0  0
  5  6  1  0  0  0  0
  5 13  1  1  0  0  0
  6  7  1  0  0  0  0
  6 15  1  1  0  0  0
  7  8  1  0  0  0  0
  7 11  1  1  0  0  0
  8 14  1  0  0  0  0
  8 16  1  6  0  0  0
  9 11  1  0  0  0  0
 17 16  1  1  0  0  0
 17 18  1  0  0  0  0
 17 24  1  0  0  0  0
 18 19  1  0  0  0  0
 18 25  1  6  0  0  0
 19 20  1  0  0  0  0
 19 26  1  1  0  0  0
 20 21  1  0  0  0  0
 20 23  1  1  0  0  0
 21 22  1  1  0  0  0
 21 24  1  0  0  0  0
 22 27  1  0  0  0  0
 28 12  1  6  0  0  0
 28 29  1  0  0  0  0
 28 33  1  0  0  0  0
 29 30  1  0  0  0  0
 29 36  1  1  0  0  0
 30 31  1  0  0  0  0
 30 37  1  6  0  0  0
 31 32  1  0  0  0  0
 31 34  1  1  0  0  0
 32 33  1  0  0  0  0
 33 35  1  1  0  0  0
M  END
>  <CHROM.1>
-178.75909218,110.86871354,-151.14670142,171.16927708,-179.05019231,77.43243815
19.70855004,-3.42424815,49.56542457,1.86936892,0.50763846,-2.75344026

>  <Name>
2oe8_lig

>  <RI>
0

>  <Rbt.Current_Directory>
/home/itssahil/PROJECTS/Mol_Feturizer/New_Systems/rnas/2oe8

>  <Rbt.Executable>
rbdock ($Id: //depot/dev/client3/rdock/2013.1/src/exe/rbdock.cxx#4 $)

>  <Rbt.Library>
libRbt.so (2013.1, Build901 2013/11/27)

>  <Rbt.Parameter_File>
/export/apps/rDock/src/rDock_2013.1_src/data/scripts/dock_solv.prm

>  <Rbt.Receptor>
prm/pocket_docking_5.prm

>  <SCORE>
-24.5544

>  <SCORE.INTER>
-18.8274

>  <SCORE.INTER.CONST>
1

>  <SCORE.INTER.POLAR>
-1.2771

>  <SCORE.INTER.ROT>
6

>  <SCORE.INTER.SOLV>
14.8513

>  <SCORE.INTER.VDW>
-20.845

>  <SCORE.INTER.norm>
-0.508849

>  <SCORE.INTRA>
-5.72699

>  <SCORE.INTRA.DIHEDRAL>
-10.0676

>  <SCORE.INTRA.DIHEDRAL.0>
16.4056

>  <SCORE.INTRA.POLAR>
0

>  <SCORE.INTRA.POLAR.0>
0

>  <SCORE.INTRA.REPUL>
0.0103485

>  <SCORE.INTRA.REPUL.0>
0

>  <SCORE.INTRA.SOLV>
-1.90705

>  <SCORE.INTRA.SOLV.lig_0>
-90.9627

>  <SCORE.INTRA.VDW>
0.208598

>  <SCORE.INTRA.VDW.0>
-3.28744

>  <SCORE.INTRA.norm>
-0.154784

>  <SCORE.RESTR>
0

>  <SCORE.RESTR.CAVITY>
0

>  <SCORE.RESTR.norm>
0

>  <SCORE.SYSTEM>
0

>  <SCORE.SYSTEM.CONST>
0

>  <SCORE.SYSTEM.DIHEDRAL>
0

>  <SCORE.SYSTEM.SOLV>
0

>  <SCORE.SYSTEM.norm>
0

>  <SCORE.heavy>
37

>  <SCORE.norm>
-0.663632

>  <RMSD>
9.636

$$$$
2oe8_lig
 OpenBabel11021811463D
libRbt.so/2013.1/901 2013/11/27
 37 40  0  0  0  0  0  0  0  0999 V2000
   23.1404   -2.4613   48.5697 C   0  0  1  0  0  0  0  0  0  0  0  0
   24.3754   -2.5653   49.5430 C   0  0  1  0  0  0  0  0  0  0  0  0
   23.8725   -2.7976   50.9830 C   0  0  0  0  0  0  0  0  0  0  0  0
   22.9765   -1.5683   51.3323 C   0  0  1  0  0  0  0  0  0  0  0  0
   21.7178   -1.4367   50.3302 C   0  0  1  0  0  0  0  0  0  0  0  0
   20.8292   -0.2015   50.6600 C   0  0  1  0  0  0  0  0  0  0  0  0
   20.3422   -0.3579   52.1584 C   0  0  1  0  0  0  0  0  0  0  0  0
   21.5969   -0.5278   53.0840 C   0  0  2  0  0  0  0  0  0  0  0  0
   18.1790    1.1107   51.9125 C   0  0  0  0  0  0  0  0  0  0  0  0
   25.2720   -3.6930   49.1349 N   0  0  0  0  0  0  0  0  0  0  0  0
   19.4967    0.8363   52.5925 N   0  0  0  0  0  0  0  0  0  0  0  0
   22.3721   -3.6711   48.5578 O   0  0  0  0  0  0  0  0  0  0  0  0
   22.2291   -1.3441   48.9556 O   0  0  0  0  0  0  0  0  0  0  0  0
   22.4618   -1.6795   52.6924 O   0  0  0  0  0  0  0  0  0  0  0  0
   21.6375    0.9607   50.4685 O   0  0  0  0  0  0  0  0  0  0  0  0
   21.1722   -0.7267   54.3829 O   0  0  0  0  0  0  0  0  0  0  0  0
   21.7052    0.2347   55.3095 C   0  0  2  0  0  0  0  0  0  0  0  0
   21.4372   -0.2174   56.7654 C   0  0  1  0  0  0  0  0  0  0  0  0
   19.9142   -0.2178   57.1010 C   0  0  2  0  0  0  0  0  0  0  0  0
   19.3382    1.2122   56.8807 C   0  0  1  0  0  0  0  0  0  0  0  0
   19.5753    1.5748   55.3557 C   0  0  1  0  0  0  0  0  0  0  0  0
   19.0640    2.9716   55.0143 C   0  0  0  0  0  0  0  0  0  0  0  0
   17.8822    1.2145   57.2011 N   0  0  0  0  0  0  0  0  0  0  0  0
   21.0550    1.5507   55.0778 O   0  0  0  0  0  0  0  0  0  0  0  0
   22.0241   -1.5236   56.9217 O   0  0  0  0  0  0  0  0  0  0  0  0
   19.7561   -0.5923   58.4534 O   0  0  0  0  0  0  0  0  0  0  0  0
   19.4464    3.3020   53.7052 O   0  0  0  0  0  0  0  0  0  0  0  0
   21.1555   -3.5624   47.8480 C   0  0  1  0  0  0  0  0  0  0  0  0
   21.4839   -3.5355   46.3205 C   0  0  1  0  0  0  0  0  0  0  0  0
   20.1535   -3.3841   45.5268 C   0  0  2  0  0  0  0  0  0  0  0  0
   19.1827   -4.5639   45.8417 C   0  0  1  0  0  0  0  0  0  0  0  0
   18.8544   -4.6058   47.3829 C   0  0  0  0  0  0  0  0  0  0  0  0
   20.2108   -4.7663   48.1871 C   0  0  2  0  0  0  0  0  0  0  0  0
   17.9171   -4.3935   45.0757 N   0  0  0  0  0  0  0  0  0  0  0  0
   19.8932   -4.8087   49.6322 N   0  0  0  0  0  0  0  0  0  0  0  0
   22.3444   -2.4226   46.0134 O   0  0  0  0  0  0  0  0  0  0  0  0
   20.4790   -3.3694   44.1466 O   0  0  0  0  0  0  0  0  0  0  0  0
  1  2  1  0  0  0  0
  1 12  1  1  0  0  0
  1 13  1  0  0  0  0
  2  3  1  0  0  0  0
  2 10  1  6  0  0  0
  4  3  1  6  0  0  0
  4  5  1  0  0  0  0
  4 14  1  0  0  0  0
  5  6  1  0  0  0  0
  5 13  1  6  0  0  0
  6  7  1  0  0  0  0
  6 15  1  1  0  0  0
  7  8  1  0  0  0  0
  7 11  1  1  0  0  0
  8 14  1  0  0  0  0
  8 16  1  1  0  0  0
  9 11  1  0  0  0  0
 17 16  1  6  0  0  0
 17 18  1  0  0  0  0
 17 24  1  0  0  0  0
 18 19  1  0  0  0  0
 18 25  1  6  0  0  0
 19 20  1  0  0  0  0
 19 26  1  1  0  0  0
 20 21  1  0  0  0  0
 20 23  1  6  0  0  0
 21 22  1  1  0  0  0
 21 24  1  0  0  0  0
 22 27  1  0  0  0  0
 28 12  1  1  0  0  0
 28 29  1  0  0  0  0
 28 33  1  0  0  0  0
 29 30  1  0  0  0  0
 29 36  1  1  0  0  0
 30 31  1  0  0  0  0
 30 37  1  6  0  0  0
 31 32  1  0  0  0  0
 31 34  1  6  0  0  0
 32 33  1  0  0  0  0
 33 35  1  1  0  0  0
M  END
>  <CHROM.1>
171.60563569,63.83306826,-123.23170870,-168.07183023,172.73147435,73.72441729
20.93991716,-1.32055390,51.35007780,-1.47407018,-0.41509339,1.16556534

>  <Name>
2oe8_lig

>  <RI>
0

>  <Rbt.Current_Directory>
/home/itssahil/PROJECTS/Mol_Feturizer/New_Systems/rnas/2oe8

>  <Rbt.Executable>
rbdock ($Id: //depot/dev/client3/rdock/2013.1/src/exe/rbdock.cxx#4 $)

>  <Rbt.Library>
libRbt.so (2013.1, Build901 2013/11/27)

>  <Rbt.Parameter_File>
/export/apps/rDock/src/rDock_2013.1_src/data/scripts/dock_solv.prm

>  <Rbt.Receptor>
prm/pocket_docking_3.prm

>  <SCORE>
-14.9069

>  <SCORE.INTER>
-11.9938

>  <SCORE.INTER.CONST>
1

>  <SCORE.INTER.POLAR>
-0.783545

>  <SCORE.INTER.ROT>
6

>  <SCORE.INTER.SOLV>
12.503

>  <SCORE.INTER.VDW>
-17.1517

>  <SCORE.INTER.norm>
-0.324158

>  <SCORE.INTRA>
-2.91304

>  <SCORE.INTRA.DIHEDRAL>
-7.14802

>  <SCORE.INTRA.DIHEDRAL.0>
16.4056

>  <SCORE.INTRA.POLAR>
0

>  <SCORE.INTRA.POLAR.0>
0

>  <SCORE.INTRA.REPUL>
0

>  <SCORE.INTRA.REPUL.0>
0

>  <SCORE.INTRA.SOLV>
-0.661226

>  <SCORE.INTRA.SOLV.lig_0>
-90.9627

>  <SCORE.INTRA.VDW>
0.991586

>  <SCORE.INTRA.VDW.0>
-3.28744

>  <SCORE.INTRA.norm>
-0.0787308

>  <SCORE.RESTR>
0

>  <SCORE.RESTR.CAVITY>
0

>  <SCORE.RESTR.norm>
0

>  <SCORE.SYSTEM>
0

>  <SCORE.SYSTEM.CONST>
0

>  <SCORE.SYSTEM.DIHEDRAL>
0

>  <SCORE.SYSTEM.SOLV>
0

>  <SCORE.SYSTEM.norm>
0

>  <SCORE.heavy>
37

>  <SCORE.norm>
-0.402889

>  <RMSD>
9.651

$$$$
2oe8_lig
 OpenBabel11021811463D
libRbt.so/2013.1/901 2013/11/27
 37 40  0  0  0  0  0  0  0  0999 V2000
   22.0286   -3.4600   50.4217 C   0  0  1  0  0  0  0  0  0  0  0  0
   23.4337   -2.9555   50.9264 C   0  0  1  0  0  0  0  0  0  0  0  0
   23.2647   -2.2538   52.2900 C   0  0  0  0  0  0  0  0  0  0  0  0
   22.2880   -1.0613   52.0452 C   0  0  1  0  0  0  0  0  0  0  0  0
   20.8502   -1.5614   51.5079 C   0  0  1  0  0  0  0  0  0  0  0  0
   19.8760   -0.3763   51.2428 C   0  0  1  0  0  0  0  0  0  0  0  0
   19.7229    0.4211   52.6021 C   0  0  1  0  0  0  0  0  0  0  0  0
   21.1472    0.8440   53.1046 C   0  0  2  0  0  0  0  0  0  0  0  0
   18.3554    2.4071   53.6424 C   0  0  0  0  0  0  0  0  0  0  0  0
   24.3848   -4.1037   51.0656 N   0  0  0  0  0  0  0  0  0  0  0  0
   18.8169    1.6373   52.4307 N   0  0  0  0  0  0  0  0  0  0  0  0
   21.4558   -4.4180   51.3206 O   0  0  0  0  0  0  0  0  0  0  0  0
   21.0605   -2.3335   50.2754 O   0  0  0  0  0  0  0  0  0  0  0  0
   22.0742   -0.3127   53.2785 O   0  0  0  0  0  0  0  0  0  0  0  0
   20.4542    0.4194   50.2068 O   0  0  0  0  0  0  0  0  0  0  0  0
   21.0212    1.4853   54.3212 O   0  0  0  0  0  0  0  0  0  0  0  0
   22.2395    2.1048   54.7670 C   0  0  2  0  0  0  0  0  0  0  0  0
   22.8101    1.3476   55.9905 C   0  0  1  0  0  0  0  0  0  0  0  0
   21.8793    1.4734   57.2354 C   0  0  2  0  0  0  0  0  0  0  0  0
   21.6933    2.9785   57.5893 C   0  0  1  0  0  0  0  0  0  0  0  0
   21.0337    3.6711   56.3250 C   0  0  1  0  0  0  0  0  0  0  0  0
   20.8131    5.1655   56.5422 C   0  0  0  0  0  0  0  0  0  0  0  0
   20.8039    3.1013   58.7794 N   0  0  0  0  0  0  0  0  0  0  0  0
   21.9610    3.5136   55.1491 O   0  0  0  0  0  0  0  0  0  0  0  0
   22.9978   -0.0244   55.5940 O   0  0  0  0  0  0  0  0  0  0  0  0
   22.4891    0.8011   58.3174 O   0  0  0  0  0  0  0  0  0  0  0  0
   19.8327    5.3546   57.5282 O   0  0  0  0  0  0  0  0  0  0  0  0
   20.4720   -5.2373   50.7233 C   0  0  1  0  0  0  0  0  0  0  0  0
   19.1888   -4.3738   50.5013 C   0  0  1  0  0  0  0  0  0  0  0  0
   18.0850   -5.2730   49.8721 C   0  0  2  0  0  0  0  0  0  0  0  0
   18.5653   -5.8718   48.5140 C   0  0  1  0  0  0  0  0  0  0  0  0
   19.8664   -6.7359   48.7265 C   0  0  0  0  0  0  0  0  0  0  0  0
   20.9895   -5.8152   49.3614 C   0  0  2  0  0  0  0  0  0  0  0  0
   17.4955   -6.7313   47.9356 N   0  0  0  0  0  0  0  0  0  0  0  0
   22.2083   -6.6330   49.5539 N   0  0  0  0  0  0  0  0  0  0  0  0
   18.7128   -3.8531   51.7564 O   0  0  0  0  0  0  0  0  0  0  0  0
   16.9366   -4.4648   49.6751 O   0  0  0  0  0  0  0  0  0  0  0  0
  1  2  1  0  0  0  0
  1 12  1  1  0  0  0
  1 13  1  0  0  0  0
  2  3  1  0  0  0  0
  2 10  1  1  0  0  0
  4  3  1  1  0  0  0
  4  5  1  0  0  0  0
  4 14  1  0  0  0  0
  5  6  1  0  0  0  0
  5 13  1  6  0  0  0
  6  7  1  0  0  0  0
  6 15  1  6  0  0  0
  7  8  1  0  0  0  0
  7 11  1  6  0  0  0
  8 14  1  0  0  0  0
  8 16  1  1  0  0  0
  9 11  1  0  0  0  0
 17 16  1  1  0  0  0
 17 18  1  0  0  0  0
 17 24  1  0  0  0  0
 18 19  1  0  0  0  0
 18 25  1  6  0  0  0
 19 20  1  0  0  0  0
 19 26  1  1  0  0  0
 20 21  1  0  0  0  0
 20 23  1  1  0  0  0
 21 22  1  1  0  0  0
 21 24  1  0  0  0  0
 22 27  1  0  0  0  0
 28 12  1  6  0  0  0
 28 29  1  0  0  0  0
 28 33  1  0  0  0  0
 29 30  1  0  0  0  0
 29 36  1  1  0  0  0
 30 31  1  0  0  0  0
 30 37  1  6  0  0  0
 31 32  1  0  0  0  0
 31 34  1  1  0  0  0
 32 33  1  0  0  0  0
 33 35  1  1  0  0  0
M  END
>  <CHROM.1>
-158.82144230,170.07186022,-170.47985985,-110.26257190,-67.43816466,-72.95409534
20.83653786,-1.06468960,52.76969772,-1.70447137,-0.38755117,0.64572592

>  <Name>
2oe8_lig

>  <RI>
0

>  <Rbt.Current_Directory>
/home/itssahil/PROJECTS/Mol_Feturizer/New_Systems/rnas/2oe8

>  <Rbt.Executable>
rbdock ($Id: //depot/dev/client3/rdock/2013.1/src/exe/rbdock.cxx#4 $)

>  <Rbt.Library>
libRbt.so (2013.1, Build901 2013/11/27)

>  <Rbt.Parameter_File>
/export/apps/rDock/src/rDock_2013.1_src/data/scripts/dock_solv.prm

>  <Rbt.Receptor>
prm/pocket_docking_4.prm

>  <SCORE>
-17.2969

>  <SCORE.INTER>
-16.5259

>  <SCORE.INTER.CONST>
1

>  <SCORE.INTER.POLAR>
-2.01903

>  <SCORE.INTER.ROT>
6

>  <SCORE.INTER.SOLV>
11.5318

>  <SCORE.INTER.VDW>
-15.7311

>  <SCORE.INTER.norm>
-0.446645

>  <SCORE.INTRA>
-0.771035

>  <SCORE.INTRA.DIHEDRAL>
-6.10291

>  <SCORE.INTRA.DIHEDRAL.0>
16.4056

>  <SCORE.INTRA.POLAR>
0

>  <SCORE.INTRA.POLAR.0>
0

>  <SCORE.INTRA.REPUL>
0

>  <SCORE.INTRA.REPUL.0>
0

>  <SCORE.INTRA.SOLV>
0.315905

>  <SCORE.INTRA.SOLV.lig_0>
-90.9627

>  <SCORE.INTRA.VDW>
2.12247

>  <SCORE.INTRA.VDW.0>
-3.28744

>  <SCORE.INTRA.norm>
-0.0208388

>  <SCORE.RESTR>
0

>  <SCORE.RESTR.CAVITY>
0

>  <SCORE.RESTR.norm>
0

>  <SCORE.SYSTEM>
0

>  <SCORE.SYSTEM.CONST>
0

>  <SCORE.SYSTEM.DIHEDRAL>
0

>  <SCORE.SYSTEM.SOLV>
0

>  <SCORE.SYSTEM.norm>
0

>  <SCORE.heavy>
37

>  <SCORE.norm>
-0.467484

>  <RMSD>
9.666

$$$$
2oe8_lig
 OpenBabel11021811463D
libRbt.so/2013.1/901 2013/11/27
 37 40  0  0  0  0  0  0  0  0999 V2000
   17.3295   -5.2083   47.6919 C   0  0  1  0  0  0  0  0  0  0  0  0
   16.7797   -3.8141   47.2049 C   0  0  1  0  0  0  0  0  0  0  0  0
   17.9277   -2.7831   47.2081 C   0  0  0  0  0  0  0  0  0  0  0  0
   18.4386   -2.7087   48.6809 C   0  0  1  0  0  0  0  0  0  0  0  0
   18.9862   -4.1354   49.2010 C   0  0  1  0  0  0  0  0  0  0  0  0
   19.4802   -4.0743   50.6762 C   0  0  1  0  0  0  0  0  0  0  0  0
   20.6174   -2.9748   50.7472 C   0  0  1  0  0  0  0  0  0  0  0  0
   20.0505   -1.6228   50.1899 C   0  0  2  0  0  0  0  0  0  0  0  0
   22.6119   -2.9357   52.4551 C   0  0  0  0  0  0  0  0  0  0  0  0
   16.2090   -3.9276   45.8252 N   0  0  0  0  0  0  0  0  0  0  0  0
   21.1362   -2.8073   52.1727 N   0  0  0  0  0  0  0  0  0  0  0  0
   18.3490   -5.7100   46.8184 O   0  0  0  0  0  0  0  0  0  0  0  0
   17.9057   -5.1222   49.0661 O   0  0  0  0  0  0  0  0  0  0  0  0
   19.5213   -1.7387   48.7991 O   0  0  0  0  0  0  0  0  0  0  0  0
   18.3501   -3.7420   51.4844 O   0  0  0  0  0  0  0  0  0  0  0  0
   21.0585   -0.6789   50.1929 O   0  0  0  0  0  0  0  0  0  0  0  0
   20.5769    0.6678   50.3386 C   0  0  2  0  0  0  0  0  0  0  0  0
   21.7543    1.6309   50.6250 C   0  0  1  0  0  0  0  0  0  0  0  0
   22.4134    1.3447   52.0092 C   0  0  2  0  0  0  0  0  0  0  0  0
   21.3395    1.4807   53.1287 C   0  0  1  0  0  0  0  0  0  0  0  0
   20.2095    0.4138   52.8156 C   0  0  1  0  0  0  0  0  0  0  0  0
   19.0809    0.4589   53.8418 C   0  0  0  0  0  0  0  0  0  0  0  0
   21.9673    1.2079   54.4531 N   0  0  0  0  0  0  0  0  0  0  0  0
   19.6128    0.7234   51.4682 O   0  0  0  0  0  0  0  0  0  0  0  0
   22.6932    1.4913   49.5416 O   0  0  0  0  0  0  0  0  0  0  0  0
   23.4413    2.2905   52.2172 O   0  0  0  0  0  0  0  0  0  0  0  0
   19.5635    0.0262   55.0863 O   0  0  0  0  0  0  0  0  0  0  0  0
   18.8532   -6.9725   47.2028 C   0  0  1  0  0  0  0  0  0  0  0  0
   17.8313   -8.0637   46.7481 C   0  0  1  0  0  0  0  0  0  0  0  0
   18.3596   -9.4585   47.1936 C   0  0  2  0  0  0  0  0  0  0  0  0
   19.7595   -9.7466   46.5684 C   0  0  1  0  0  0  0  0  0  0  0  0
   20.7947   -8.6441   47.0128 C   0  0  0  0  0  0  0  0  0  0  0  0
   20.2562   -7.2264   46.5519 C   0  0  2  0  0  0  0  0  0  0  0  0
   20.2450  -11.0823   47.0133 N   0  0  0  0  0  0  0  0  0  0  0  0
   21.2356   -6.1980   46.9696 N   0  0  0  0  0  0  0  0  0  0  0  0
   16.5470   -7.8308   47.3560 O   0  0  0  0  0  0  0  0  0  0  0  0
   17.4191  -10.4287   46.7633 O   0  0  0  0  0  0  0  0  0  0  0  0
  1  2  1  0  0  0  0
  1 12  1  6  0  0  0
  1 13  1  0  0  0  0
  2  3  1  0  0  0  0
  2 10  1  6  0  0  0
  4  3  1  6  0  0  0
  4  5  1  0  0  0  0
  4 14  1  0  0  0  0
  5  6  1  0  0  0  0
  5 13  1  1  0  0  0
  6  7  1  0  0  0  0
  6 15  1  1  0  0  0
  7  8  1  0  0  0  0
  7 11  1  1  0  0  0
  8 14  1  0  0  0  0
  8 16  1  6  0  0  0
  9 11  1  0  0  0  0
 17 16  1  1  0  0  0
 17 18  1  0  0  0  0
 17 24  1  0  0  0  0
 18 19  1  0  0  0  0
 18 25  1  6  0  0  0
 19 20  1  0  0  0  0
 19 26  1  1  0  0  0
 20 21  1  0  0  0  0
 20 23  1  1  0  0  0
 21 22  1  1  0  0  0
 21 24  1  0  0  0  0
 22 27  1  0  0  0  0
 28 12  1  6  0  0  0
 28 29  1  0  0  0  0
 28 33  1  0  0  0  0
 29 30  1  0  0  0  0
 29 36  1  1  0  0  0
 30 31  1  0  0  0  0
 30 37  1  6  0  0  0
 31 32  1  0  0  0  0
 31 34  1  1  0  0  0
 32 33  1  0  0  0  0
 33 35  1  1  0  0  0
M  END
>  <CHROM.1>
-178.83048811,125.69977357,-151.60456120,168.37720749,-67.29388066,78.86185388
19.69545439,-3.42476808,49.57806717,1.89624420,0.65011251,-2.79668167

>  <Name>
2oe8_lig

>  <RI>
0

>  <Rbt.Current_Directory>
/home/itssahil/PROJECTS/Mol_Feturizer/New_Systems/rnas/2oe8

>  <Rbt.Executable>
rbdock ($Id: //depot/dev/client3/rdock/2013.1/src/exe/rbdock.cxx#4 $)

>  <Rbt.Library>
libRbt.so (2013.1, Build901 2013/11/27)

>  <Rbt.Parameter_File>
/export/apps/rDock/src/rDock_2013.1_src/data/scripts/dock_solv.prm

>  <Rbt.Receptor>
prm/pocket_docking_5.prm

>  <SCORE>
-23.6969

>  <SCORE.INTER>
-18.8303

>  <SCORE.INTER.CONST>
1

>  <SCORE.INTER.POLAR>
-1.1547

>  <SCORE.INTER.ROT>
6

>  <SCORE.INTER.SOLV>
13.7338

>  <SCORE.INTER.VDW>
-20.8825

>  <SCORE.INTER.norm>
-0.508927

>  <SCORE.INTRA>
-4.86661

>  <SCORE.INTRA.DIHEDRAL>
-9.43739

>  <SCORE.INTRA.DIHEDRAL.0>
16.4056

>  <SCORE.INTRA.POLAR>
0

>  <SCORE.INTRA.POLAR.0>
0

>  <SCORE.INTRA.REPUL>
0

>  <SCORE.INTRA.REPUL.0>
0

>  <SCORE.INTRA.SOLV>
-0.967001

>  <SCORE.INTRA.SOLV.lig_0>
-90.9627

>  <SCORE.INTRA.VDW>
0.335582

>  <SCORE.INTRA.VDW.0>
-3.28744

>  <SCORE.INTRA.norm>
-0.13153

>  <SCORE.RESTR>
0

>  <SCORE.RESTR.CAVITY>
0

>  <SCORE.RESTR.norm>
0

>  <SCORE.SYSTEM>
0

>  <SCORE.SYSTEM.CONST>
0

>  <SCORE.SYSTEM.DIHEDRAL>
0

>  <SCORE.SYSTEM.SOLV>
0

>  <SCORE.SYSTEM.norm>
0

>  <SCORE.heavy>
37

>  <SCORE.norm>
-0.640457

>  <RMSD>
9.678

$$$$
2oe8_lig
 OpenBabel11021811463D
libRbt.so/2013.1/901 2013/11/27
 37 40  0  0  0  0  0  0  0  0999 V2000
   21.9339   -2.9392   50.3033 C   0  0  1  0  0  0  0  0  0  0  0  0
   22.9003   -2.9894   51.5471 C   0  0  1  0  0  0  0  0  0  0  0  0
   22.0915   -2.7208   52.8333 C   0  0  0  0  0  0  0  0  0  0  0  0
   21.4619   -1.3031   52.6606 C   0  0  1  0  0  0  0  0  0  0  0  0
   20.4849   -1.2305   51.3775 C   0  0  1  0  0  0  0  0  0  0  0  0
   19.8675    0.1859   51.1870 C   0  0  1  0  0  0  0  0  0  0  0  0
   19.0807    0.5396   52.5146 C   0  0  1  0  0  0  0  0  0  0  0  0
   20.0593    0.4104   53.7334 C   0  0  2  0  0  0  0  0  0  0  0  0
   18.0062    2.6205   53.7029 C   0  0  0  0  0  0  0  0  0  0  0  0
   23.5658   -4.3275   51.6412 N   0  0  0  0  0  0  0  0  0  0  0  0
   18.4747    1.9385   52.4422 N   0  0  0  0  0  0  0  0  0  0  0  0
   20.9182   -3.9473   50.3807 O   0  0  0  0  0  0  0  0  0  0  0  0
   21.2562   -1.6145   50.1871 O   0  0  0  0  0  0  0  0  0  0  0  0
   20.6858   -0.9401   53.8408 O   0  0  0  0  0  0  0  0  0  0  0  0
   20.9490    1.0858   50.9387 O   0  0  0  0  0  0  0  0  0  0  0  0
   19.3599    0.6577   54.8982 O   0  0  0  0  0  0  0  0  0  0  0  0
   20.1506    1.3024   55.9111 C   0  0  2  0  0  0  0  0  0  0  0  0
   20.4785    0.3073   57.0503 C   0  0  1  0  0  0  0  0  0  0  0  0
   19.1982   -0.1238   57.8295 C   0  0  2  0  0  0  0  0  0  0  0  0
   18.5047    1.1396   58.4193 C   0  0  1  0  0  0  0  0  0  0  0  0
   18.1269    2.0723   57.1943 C   0  0  1  0  0  0  0  0  0  0  0  0
   17.4491    3.3627   57.6462 C   0  0  0  0  0  0  0  0  0  0  0  0
   17.2804    0.7300   59.1650 N   0  0  0  0  0  0  0  0  0  0  0  0
   19.3904    2.4514   56.4681 O   0  0  0  0  0  0  0  0  0  0  0  0
   21.1512   -0.8181   56.4537 O   0  0  0  0  0  0  0  0  0  0  0  0
   19.5843   -0.9885   58.8772 O   0  0  0  0  0  0  0  0  0  0  0  0
   17.0253    4.0866   56.5213 O   0  0  0  0  0  0  0  0  0  0  0  0
   20.2404   -4.1633   49.1602 C   0  0  1  0  0  0  0  0  0  0  0  0
   19.0743   -3.1279   49.0613 C   0  0  1  0  0  0  0  0  0  0  0  0
   18.2987   -3.3752   47.7345 C   0  0  2  0  0  0  0  0  0  0  0  0
   19.2457   -3.2296   46.5034 C   0  0  1  0  0  0  0  0  0  0  0  0
   20.4320   -4.2631   46.6003 C   0  0  0  0  0  0  0  0  0  0  0  0
   21.2227   -4.0039   47.9493 C   0  0  2  0  0  0  0  0  0  0  0  0
   18.4826   -3.4759   45.2485 N   0  0  0  0  0  0  0  0  0  0  0  0
   22.3365   -4.9755   48.0303 N   0  0  0  0  0  0  0  0  0  0  0  0
   18.1703   -3.2849   50.1710 O   0  0  0  0  0  0  0  0  0  0  0  0
   17.2528   -2.4200   47.6668 O   0  0  0  0  0  0  0  0  0  0  0  0
  1  2  1  0  0  0  0
  1 12  1  1  0  0  0
  1 13  1  0  0  0  0
  2  3  1  0  0  0  0
  2 10  1  1  0  0  0
  4  3  1  1  0  0  0
  4  5  1  0  0  0  0
  4 14  1  0  0  0  0
  5  6  1  0  0  0  0
  5 13  1  6  0  0  0
  6  7  1  0  0  0  0
  6 15  1  1  0  0  0
  7  8  1  0  0  0  0
  7 11  1  6  0  0  0
  8 14  1  0  0  0  0
  8 16  1  1  0  0  0
  9 11  1  0  0  0  0
 17 16  1  6  0  0  0
 17 18  1  0  0  0  0
 17 24  1  0  0  0  0
 18 19  1  0  0  0  0
 18 25  1  6  0  0  0
 19 20  1  0  0  0  0
 19 26  1  1  0  0  0
 20 21  1  0  0  0  0
 20 23  1  6  0  0  0
 21 22  1  1  0  0  0
 21 24  1  0  0  0  0
 22 27  1  0  0  0  0
 28 12  1  1  0  0  0
 28 29  1  0  0  0  0
 28 33  1  0  0  0  0
 29 30  1  0  0  0  0
 29 36  1  1  0  0  0
 30 31  1  0  0  0  0
 30 37  1  6  0  0  0
 31 32  1  0  0  0  0
 31 34  1  6  0  0  0
 32 33  1  0  0  0  0
 33 35  1  1  0  0  0
M  END
>  <CHROM.1>
-165.21478580,-163.77083867,-146.61153487,-107.64555815,-174.45619426,-85.68835160
19.82416925,-0.97618224,52.57667640,-1.37622666,-0.74444801,1.18775119

>  <Name>
2oe8_lig

>  <RI>
0

>  <Rbt.Current_Directory>
/home/itssahil/PROJECTS/Mol_Feturizer/New_Systems/rnas/2oe8

>  <Rbt.Executable>
rbdock ($Id: //depot/dev/client3/rdock/2013.1/src/exe/rbdock.cxx#4 $)

>  <Rbt.Library>
libRbt.so (2013.1, Build901 2013/11/27)

>  <Rbt.Parameter_File>
/export/apps/rDock/src/rDock_2013.1_src/data/scripts/dock_solv.prm

>  <Rbt.Receptor>
prm/pocket_docking_3.prm

>  <SCORE>
-11.6451

>  <SCORE.INTER>
-15.247

>  <SCORE.INTER.CONST>
1

>  <SCORE.INTER.POLAR>
-2.01353

>  <SCORE.INTER.ROT>
6

>  <SCORE.INTER.SOLV>
17.045

>  <SCORE.INTER.VDW>
-16.7346

>  <SCORE.INTER.norm>
-0.412082

>  <SCORE.INTRA>
3.47711

>  <SCORE.INTRA.DIHEDRAL>
-1.54725

>  <SCORE.INTRA.DIHEDRAL.0>
16.4056

>  <SCORE.INTRA.POLAR>
0

>  <SCORE.INTRA.POLAR.0>
0

>  <SCORE.INTRA.REPUL>
0

>  <SCORE.INTRA.REPUL.0>
0

>  <SCORE.INTRA.SOLV>
-0.60812

>  <SCORE.INTRA.SOLV.lig_0>
-90.9627

>  <SCORE.INTRA.VDW>
4.55479

>  <SCORE.INTRA.VDW.0>
-3.28744

>  <SCORE.INTRA.norm>
0.0939759

>  <SCORE.RESTR>
0.124773

>  <SCORE.RESTR.CAVITY>
0.124773

>  <SCORE.RESTR.norm>
0.00337224

>  <SCORE.SYSTEM>
0

>  <SCORE.SYSTEM.CONST>
0

>  <SCORE.SYSTEM.DIHEDRAL>
0

>  <SCORE.SYSTEM.SOLV>
0

>  <SCORE.SYSTEM.norm>
0

>  <SCORE.heavy>
37

>  <SCORE.norm>
-0.314734

>  <RMSD>
9.693

$$$$
2oe8_lig
 OpenBabel11021811463D
libRbt.so/2013.1/901 2013/11/27
 37 40  0  0  0  0  0  0  0  0999 V2000
   17.3086   -4.3246   47.7102 C   0  0  1  0  0  0  0  0  0  0  0  0
   17.5337   -2.9004   47.0742 C   0  0  1  0  0  0  0  0  0  0  0  0
   19.0138   -2.4964   47.2374 C   0  0  0  0  0  0  0  0  0  0  0  0
   19.2920   -2.4825   48.7731 C   0  0  1  0  0  0  0  0  0  0  0  0
   19.0455   -3.9306   49.4427 C   0  0  1  0  0  0  0  0  0  0  0  0
   19.3023   -3.9207   50.9782 C   0  0  1  0  0  0  0  0  0  0  0  0
   20.7950   -3.4430   51.2032 C   0  0  1  0  0  0  0  0  0  0  0  0
   20.9955   -2.0571   50.4968 C   0  0  2  0  0  0  0  0  0  0  0  0
   22.5638   -3.4544   53.1443 C   0  0  0  0  0  0  0  0  0  0  0  0
   17.1722   -2.9113   45.6211 N   0  0  0  0  0  0  0  0  0  0  0  0
   21.1294   -3.3556   52.6898 N   0  0  0  0  0  0  0  0  0  0  0  0
   18.0941   -5.3278   47.0541 O   0  0  0  0  0  0  0  0  0  0  0  0
   17.6630   -4.3411   49.1600 O   0  0  0  0  0  0  0  0  0  0  0  0
   20.6709   -2.0898   49.0404 O   0  0  0  0  0  0  0  0  0  0  0  0
   18.3510   -3.0263   51.5576 O   0  0  0  0  0  0  0  0  0  0  0  0
   22.3129   -1.6680   50.6388 O   0  0  0  0  0  0  0  0  0  0  0  0
   22.5385   -0.2887   50.3019 C   0  0  2  0  0  0  0  0  0  0  0  0
   23.5769    0.3360   51.2648 C   0  0  1  0  0  0  0  0  0  0  0  0
   23.0369    0.4178   52.7256 C   0  0  2  0  0  0  0  0  0  0  0  0
   21.7287    1.2624   52.7443 C   0  0  1  0  0  0  0  0  0  0  0  0
   20.6889    0.5226   51.8037 C   0  0  1  0  0  0  0  0  0  0  0  0
   19.3592    1.2674   51.7248 C   0  0  0  0  0  0  0  0  0  0  0  0
   21.2105    1.3422   54.1399 N   0  0  0  0  0  0  0  0  0  0  0  0
   21.2581    0.4578   50.4112 O   0  0  0  0  0  0  0  0  0  0  0  0
   24.7742   -0.4600   51.1763 O   0  0  0  0  0  0  0  0  0  0  0  0
   24.0176    1.0400   53.5290 O   0  0  0  0  0  0  0  0  0  0  0  0
   18.5533    0.6812   50.7369 O   0  0  0  0  0  0  0  0  0  0  0  0
   17.4504   -6.5821   46.9644 C   0  0  1  0  0  0  0  0  0  0  0  0
   16.4206   -6.5178   45.7910 C   0  0  1  0  0  0  0  0  0  0  0  0
   15.6809   -7.8844   45.7009 C   0  0  2  0  0  0  0  0  0  0  0  0
   16.6922   -9.0472   45.4584 C   0  0  1  0  0  0  0  0  0  0  0  0
   17.7424   -9.1128   46.6321 C   0  0  0  0  0  0  0  0  0  0  0  0
   18.4975   -7.7218   46.7164 C   0  0  2  0  0  0  0  0  0  0  0  0
   15.9619  -10.3427   45.3815 N   0  0  0  0  0  0  0  0  0  0  0  0
   19.4838   -7.7934   47.8179 N   0  0  0  0  0  0  0  0  0  0  0  0
   15.4560   -5.4754   46.0284 O   0  0  0  0  0  0  0  0  0  0  0  0
   14.7594   -7.8013   44.6262 O   0  0  0  0  0  0  0  0  0  0  0  0
  1  2  1  0  0  0  0
  1 12  1  6  0  0  0
  1 13  1  0  0  0  0
  2  3  1  0  0  0  0
  2 10  1  6  0  0  0
  4  3  1  6  0  0  0
  4  5  1  0  0  0  0
  4 14  1  0  0  0  0
  5  6  1  0  0  0  0
  5 13  1  1  0  0  0
  6  7  1  0  0  0  0
  6 15  1  1  0  0  0
  7  8  1  0  0  0  0
  7 11  1  1  0  0  0
  8 14  1  0  0  0  0
  8 16  1  6  0  0  0
  9 11  1  0  0  0  0
 17 16  1  1  0  0  0
 17 18  1  0  0  0  0
 17 24  1  0  0  0  0
 18 19  1  0  0  0  0
 18 25  1  1  0  0  0
 19 20  1  0  0  0  0
 19 26  1  1  0  0  0
 20 21  1  0  0  0  0
 20 23  1  1  0  0  0
 21 22  1  6  0  0  0
 21 24  1  0  0  0  0
 22 27  1  0  0  0  0
 28 12  1  6  0  0  0
 28 29  1  0  0  0  0
 28 33  1  0  0  0  0
 29 30  1  0  0  0  0
 29 36  1  1  0  0  0
 30 31  1  0  0  0  0
 30 37  1  6  0  0  0
 31 32  1  0  0  0  0
 31 34  1  1  0  0  0
 32 33  1  0  0  0  0
 33 35  1  1  0  0  0
M  END
>  <CHROM.1>
-144.57542928,156.18920916,-166.57741212,142.17798665,171.47219342,78.66375813
19.47645870,-3.29969224,49.30321557,2.25088098,0.65867111,-2.91865924

>  <Name>
2oe8_lig

>  <RI>
0

>  <Rbt.Current_Directory>
/home/itssahil/PROJECTS/Mol_Feturizer/New_Systems/rnas/2oe8

>  <Rbt.Executable>
rbdock ($Id: //depot/dev/client3/rdock/2013.1/src/exe/rbdock.cxx#4 $)

>  <Rbt.Library>
libRbt.so (2013.1, Build901 2013/11/27)

>  <Rbt.Parameter_File>
/export/apps/rDock/src/rDock_2013.1_src/data/scripts/dock_solv.prm

>  <Rbt.Receptor>
prm/blind_docking_60.prm

>  <SCORE>
-18.1744

>  <SCORE.INTER>
-17.6687

>  <SCORE.INTER.CONST>
1

>  <SCORE.INTER.POLAR>
-2.31974

>  <SCORE.INTER.ROT>
6

>  <SCORE.INTER.SOLV>
13.3816

>  <SCORE.INTER.VDW>
-16.1072

>  <SCORE.INTER.norm>
-0.477534

>  <SCORE.INTRA>
-0.505684

>  <SCORE.INTRA.DIHEDRAL>
-3.63004

>  <SCORE.INTRA.DIHEDRAL.0>
16.4056

>  <SCORE.INTRA.POLAR>
0

>  <SCORE.INTRA.POLAR.0>
0

>  <SCORE.INTRA.REPUL>
0

>  <SCORE.INTRA.REPUL.0>
0

>  <SCORE.INTRA.SOLV>
-0.69589

>  <SCORE.INTRA.SOLV.lig_0>
-90.9627

>  <SCORE.INTRA.VDW>
1.65728

>  <SCORE.INTRA.VDW.0>
-3.28744

>  <SCORE.INTRA.norm>
-0.0136671

>  <SCORE.RESTR>
0

>  <SCORE.RESTR.CAVITY>
0

>  <SCORE.RESTR.norm>
0

>  <SCORE.SYSTEM>
0

>  <SCORE.SYSTEM.CONST>
0

>  <SCORE.SYSTEM.DIHEDRAL>
0

>  <SCORE.SYSTEM.SOLV>
0

>  <SCORE.SYSTEM.norm>
0

>  <SCORE.heavy>
37

>  <SCORE.norm>
-0.491201

>  <RMSD>
9.696

$$$$
2oe8_lig
 OpenBabel11021811463D
libRbt.so/2013.1/901 2013/11/27
 37 40  0  0  0  0  0  0  0  0999 V2000
   19.0952   -4.1714   48.9217 C   0  0  1  0  0  0  0  0  0  0  0  0
   19.4420   -4.9661   50.2376 C   0  0  1  0  0  0  0  0  0  0  0  0
   18.9133   -4.1862   51.4594 C   0  0  0  0  0  0  0  0  0  0  0  0
   19.6273   -2.7987   51.4295 C   0  0  1  0  0  0  0  0  0  0  0  0
   19.2977   -1.9812   50.0771 C   0  0  1  0  0  0  0  0  0  0  0  0
   20.0216   -0.6036   50.0306 C   0  0  1  0  0  0  0  0  0  0  0  0
   19.5638    0.2127   51.3077 C   0  0  1  0  0  0  0  0  0  0  0  0
   19.8628   -0.6412   52.5889 C   0  0  2  0  0  0  0  0  0  0  0  0
   19.7113    2.6515   52.2706 C   0  0  0  0  0  0  0  0  0  0  0  0
   18.8248   -6.3300   50.2054 N   0  0  0  0  0  0  0  0  0  0  0  0
   20.2606    1.5688   51.3762 N   0  0  0  0  0  0  0  0  0  0  0  0
   17.6800   -4.0257   48.7485 O   0  0  0  0  0  0  0  0  0  0  0  0
   19.6985   -2.8063   48.9290 O   0  0  0  0  0  0  0  0  0  0  0  0
   19.2094   -1.9830   52.5640 O   0  0  0  0  0  0  0  0  0  0  0  0
   21.4257   -0.8666   50.0268 O   0  0  0  0  0  0  0  0  0  0  0  0
   19.4076    0.0420   53.6993 O   0  0  0  0  0  0  0  0  0  0  0  0
   19.8758   -0.5125   54.9404 C   0  0  2  0  0  0  0  0  0  0  0  0
   19.6629    0.4975   56.0937 C   0  0  1  0  0  0  0  0  0  0  0  0
   20.5509    1.7680   55.9227 C   0  0  2  0  0  0  0  0  0  0  0  0
   22.0486    1.3452   55.8646 C   0  0  1  0  0  0  0  0  0  0  0  0
   22.2070    0.3795   54.6174 C   0  0  1  0  0  0  0  0  0  0  0  0
   23.6401   -0.1210   54.4606 C   0  0  0  0  0  0  0  0  0  0  0  0
   22.8998    2.5583   55.7013 N   0  0  0  0  0  0  0  0  0  0  0  0
   21.3242   -0.8231   54.8224 O   0  0  0  0  0  0  0  0  0  0  0  0
   18.2595    0.8207   56.1245 O   0  0  0  0  0  0  0  0  0  0  0  0
   20.3371    2.6139   57.0331 O   0  0  0  0  0  0  0  0  0  0  0  0
   23.7280   -0.9373   53.3226 O   0  0  0  0  0  0  0  0  0  0  0  0
   17.2544   -4.1795   47.4102 C   0  0  1  0  0  0  0  0  0  0  0  0
   18.0092   -3.1273   46.5356 C   0  0  1  0  0  0  0  0  0  0  0  0
   17.5261   -3.2645   45.0622 C   0  0  2  0  0  0  0  0  0  0  0  0
   17.7999   -4.7017   44.5207 C   0  0  1  0  0  0  0  0  0  0  0  0
   17.0512   -5.7712   45.4040 C   0  0  0  0  0  0  0  0  0  0  0  0
   17.5504   -5.6323   46.9019 C   0  0  2  0  0  0  0  0  0  0  0  0
   17.3246   -4.8091   43.1135 N   0  0  0  0  0  0  0  0  0  0  0  0
   16.8456   -6.6422   47.7232 N   0  0  0  0  0  0  0  0  0  0  0  0
   17.7265   -1.7945   47.0012 O   0  0  0  0  0  0  0  0  0  0  0  0
   18.2301   -2.3053   44.2908 O   0  0  0  0  0  0  0  0  0  0  0  0
  1  2  1  0  0  0  0
  1 12  1  1  0  0  0
  1 13  1  0  0  0  0
  2  3  1  0  0  0  0
  2 10  1  6  0  0  0
  4  3  1  6  0  0  0
  4  5  1  0  0  0  0
  4 14  1  0  0  0  0
  5  6  1  0  0  0  0
  5 13  1  6  0  0  0
  6  7  1  0  0  0  0
  6 15  1  1  0  0  0
  7  8  1  0  0  0  0
  7 11  1  1  0  0  0
  8 14  1  0  0  0  0
  8 16  1  1  0  0  0
  9 11  1  0  0  0  0
 17 16  1  6  0  0  0
 17 18  1  0  0  0  0
 17 24  1  0  0  0  0
 18 19  1  0  0  0  0
 18 25  1  6  0  0  0
 19 20  1  0  0  0  0
 19 26  1  1  0  0  0
 20 21  1  0  0  0  0
 20 23  1  6  0  0  0
 21 22  1  1  0  0  0
 21 24  1  0  0  0  0
 22 27  1  0  0  0  0
 28 12  1  1  0  0  0
 28 29  1  0  0  0  0
 28 33  1  0  0  0  0
 29 30  1  0  0  0  0
 29 36  1  1  0  0  0
 30 31  1  0  0  0  0
 30 37  1  6  0  0  0
 31 32  1  0  0  0  0
 31 34  1  6  0  0  0
 32 33  1  0  0  0  0
 33 35  1  1  0  0  0
M  END
>  <CHROM.1>
-140.22796170,163.13656112,-167.72206068,164.52584535,-178.31172687,-57.66259933
19.52453048,-1.72996382,50.86489941,2.81776667,-1.24703382,-0.88802662

>  <Name>
2oe8_lig

>  <RI>
0

>  <Rbt.Current_Directory>
/home/itssahil/PROJECTS/Mol_Feturizer/New_Systems/rnas/2oe8

>  <Rbt.Executable>
rbdock ($Id: //depot/dev/client3/rdock/2013.1/src/exe/rbdock.cxx#4 $)

>  <Rbt.Library>
libRbt.so (2013.1, Build901 2013/11/27)

>  <Rbt.Parameter_File>
/export/apps/rDock/src/rDock_2013.1_src/data/scripts/dock_solv.prm

>  <Rbt.Receptor>
prm/pocket_docking_4.prm

>  <SCORE>
-25.3366

>  <SCORE.INTER>
-22.3469

>  <SCORE.INTER.CONST>
1

>  <SCORE.INTER.POLAR>
-2.93265

>  <SCORE.INTER.ROT>
6

>  <SCORE.INTER.SOLV>
13.6798

>  <SCORE.INTER.VDW>
-17.2824

>  <SCORE.INTER.norm>
-0.60397

>  <SCORE.INTRA>
-3.04695

>  <SCORE.INTRA.DIHEDRAL>
-8.92783

>  <SCORE.INTRA.DIHEDRAL.0>
16.4056

>  <SCORE.INTRA.POLAR>
0

>  <SCORE.INTRA.POLAR.0>
0

>  <SCORE.INTRA.REPUL>
0.0175943

>  <SCORE.INTRA.REPUL.0>
0

>  <SCORE.INTRA.SOLV>
0.180986

>  <SCORE.INTRA.SOLV.lig_0>
-90.9627

>  <SCORE.INTRA.VDW>
1.2385

>  <SCORE.INTRA.VDW.0>
-3.28744

>  <SCORE.INTRA.norm>
-0.08235

>  <SCORE.RESTR>
0.0572753

>  <SCORE.RESTR.CAVITY>
0.0572753

>  <SCORE.RESTR.norm>
0.00154798

>  <SCORE.SYSTEM>
0

>  <SCORE.SYSTEM.CONST>
0

>  <SCORE.SYSTEM.DIHEDRAL>
0

>  <SCORE.SYSTEM.SOLV>
0

>  <SCORE.SYSTEM.norm>
0

>  <SCORE.heavy>
37

>  <SCORE.norm>
-0.684772

>  <RMSD>
9.699

$$$$
2oe8_lig
 OpenBabel11021811463D
libRbt.so/2013.1/901 2013/11/27
 37 40  0  0  0  0  0  0  0  0999 V2000
   17.2623   -5.0909   47.1145 C   0  0  1  0  0  0  0  0  0  0  0  0
   16.8900   -3.6830   46.5125 C   0  0  1  0  0  0  0  0  0  0  0  0
   18.0934   -2.7290   46.6627 C   0  0  0  0  0  0  0  0  0  0  0  0
   18.3816   -2.6335   48.1936 C   0  0  1  0  0  0  0  0  0  0  0  0
   18.7446   -4.0725   48.8288 C   0  0  1  0  0  0  0  0  0  0  0  0
   19.0148   -3.9891   50.3598 C   0  0  1  0  0  0  0  0  0  0  0  0
   20.2021   -2.9636   50.5736 C   0  0  1  0  0  0  0  0  0  0  0  0
   19.8206   -1.5992   49.9007 C   0  0  2  0  0  0  0  0  0  0  0  0
   21.9388   -2.8400   52.5396 C   0  0  0  0  0  0  0  0  0  0  0  0
   16.5261   -3.8102   45.0656 N   0  0  0  0  0  0  0  0  0  0  0  0
   20.5117   -2.7775   52.0565 N   0  0  0  0  0  0  0  0  0  0  0  0
   18.3639   -5.6894   46.4199 O   0  0  0  0  0  0  0  0  0  0  0  0
   17.6305   -4.9917   48.5575 O   0  0  0  0  0  0  0  0  0  0  0  0
   19.4991   -1.7318   48.4492 O   0  0  0  0  0  0  0  0  0  0  0  0
   17.8022   -3.5548   50.9775 O   0  0  0  0  0  0  0  0  0  0  0  0
   20.8799   -0.7230   50.0318 O   0  0  0  0  0  0  0  0  0  0  0  0
   20.4696    0.6421   50.2196 C   0  0  2  0  0  0  0  0  0  0  0  0
   21.7064    1.5524   50.4132 C   0  0  1  0  0  0  0  0  0  0  0  0
   22.4614    1.2298   51.7390 C   0  0  2  0  0  0  0  0  0  0  0  0
   21.4875    1.4043   52.9416 C   0  0  1  0  0  0  0  0  0  0  0  0
   20.2914    0.3884   52.7173 C   0  0  1  0  0  0  0  0  0  0  0  0
   19.2516    0.4749   53.8310 C   0  0  0  0  0  0  0  0  0  0  0  0
   22.2072    1.0967   54.2105 N   0  0  0  0  0  0  0  0  0  0  0  0
   19.6024    0.7315   51.4230 O   0  0  0  0  0  0  0  0  0  0  0  0
   22.5486    1.3799   49.2574 O   0  0  0  0  0  0  0  0  0  0  0  0
   23.5423    2.1297   51.8665 O   0  0  0  0  0  0  0  0  0  0  0  0
   18.1812   -0.3840   53.5386 O   0  0  0  0  0  0  0  0  0  0  0  0
   18.7558   -6.9390   46.9497 C   0  0  1  0  0  0  0  0  0  0  0  0
   17.7068   -8.0076   46.5032 C   0  0  1  0  0  0  0  0  0  0  0  0
   18.1095   -9.3847   47.1067 C   0  0  2  0  0  0  0  0  0  0  0  0
   19.5337   -9.8045   46.6281 C   0  0  1  0  0  0  0  0  0  0  0  0
   20.5976   -8.7263   47.0645 C   0  0  0  0  0  0  0  0  0  0  0  0
   20.1874   -7.3272   46.4429 C   0  0  2  0  0  0  0  0  0  0  0  0
   19.8977  -11.1205   47.2225 N   0  0  0  0  0  0  0  0  0  0  0  0
   21.1931   -6.3220   46.8543 N   0  0  0  0  0  0  0  0  0  0  0  0
   16.3955   -7.6507   46.9790 O   0  0  0  0  0  0  0  0  0  0  0  0
   17.1471  -10.3353   46.6812 O   0  0  0  0  0  0  0  0  0  0  0  0
  1  2  1  0  0  0  0
  1 12  1  6  0  0  0
  1 13  1  0  0  0  0
  2  3  1  0  0  0  0
  2 10  1  6  0  0  0
  4  3  1  6  0  0  0
  4  5  1  0  0  0  0
  4 14  1  0  0  0  0
  5  6  1  0  0  0  0
  5 13  1  1  0  0  0
  6  7  1  0  0  0  0
  6 15  1  1  0  0  0
  7  8  1  0  0  0  0
  7 11  1  1  0  0  0
  8 14  1  0  0  0  0
  8 16  1  6  0  0  0
  9 11  1  0  0  0  0
 17 16  1  1  0  0  0
 17 18  1  0  0  0  0
 17 24  1  0  0  0  0
 18 19  1  0  0  0  0
 18 25  1  6  0  0  0
 19 20  1  0  0  0  0
 19 26  1  1  0  0  0
 20 21  1  0  0  0  0
 20 23  1  1  0  0  0
 21 22  1  1  0  0  0
 21 24  1  0  0  0  0
 22 27  1  0  0  0  0
 28 12  1  6  0  0  0
 28 29  1  0  0  0  0
 28 33  1  0  0  0  0
 29 30  1  0  0  0  0
 29 36  1  1  0  0  0
 30 31  1  0  0  0  0
 30 37  1  6  0  0  0
 31 32  1  0  0  0  0
 31 34  1  1  0  0  0
 32 33  1  0  0  0  0
 33 35  1  1  0  0  0
M  END
>  <CHROM.1>
178.38860552,132.46057386,-144.92487218,177.79934891,176.43223848,75.57983443
19.53027184,-3.42404332,49.28899329,1.96797869,0.81510294,-2.89680976

>  <Name>
2oe8_lig

>  <RI>
0

>  <Rbt.Current_Directory>
/home/itssahil/PROJECTS/Mol_Feturizer/New_Systems/rnas/2oe8

>  <Rbt.Executable>
rbdock ($Id: //depot/dev/client3/rdock/2013.1/src/exe/rbdock.cxx#4 $)

>  <Rbt.Library>
libRbt.so (2013.1, Build901 2013/11/27)

>  <Rbt.Parameter_File>
/export/apps/rDock/src/rDock_2013.1_src/data/scripts/dock_solv.prm

>  <Rbt.Receptor>
prm/pocket_docking_8.prm

>  <SCORE>
-25.2046

>  <SCORE.INTER>
-19.7212

>  <SCORE.INTER.CONST>
1

>  <SCORE.INTER.POLAR>
-1.50317

>  <SCORE.INTER.ROT>
6

>  <SCORE.INTER.SOLV>
15.1213

>  <SCORE.INTER.VDW>
-20.7773

>  <SCORE.INTER.norm>
-0.533006

>  <SCORE.INTRA>
-5.48695

>  <SCORE.INTRA.DIHEDRAL>
-9.54484

>  <SCORE.INTRA.DIHEDRAL.0>
16.4056

>  <SCORE.INTRA.POLAR>
0

>  <SCORE.INTRA.POLAR.0>
0

>  <SCORE.INTRA.REPUL>
0

>  <SCORE.INTRA.REPUL.0>
0

>  <SCORE.INTRA.SOLV>
-1.39757

>  <SCORE.INTRA.SOLV.lig_0>
-90.9627

>  <SCORE.INTRA.VDW>
-0.015752

>  <SCORE.INTRA.VDW.0>
-3.28744

>  <SCORE.INTRA.norm>
-0.148296

>  <SCORE.RESTR>
0.00353648

>  <SCORE.RESTR.CAVITY>
0.00353648

>  <SCORE.RESTR.norm>
9.55805e-05

>  <SCORE.SYSTEM>
0

>  <SCORE.SYSTEM.CONST>
0

>  <SCORE.SYSTEM.DIHEDRAL>
0

>  <SCORE.SYSTEM.SOLV>
0

>  <SCORE.SYSTEM.norm>
0

>  <SCORE.heavy>
37

>  <SCORE.norm>
-0.681206

>  <RMSD>
9.699

$$$$
2oe8_lig
 OpenBabel11021811463D
libRbt.so/2013.1/901 2013/11/27
 37 40  0  0  0  0  0  0  0  0999 V2000
   21.6860   -2.4841   48.2496 C   0  0  1  0  0  0  0  0  0  0  0  0
   22.8430   -2.9086   49.2319 C   0  0  1  0  0  0  0  0  0  0  0  0
   22.2945   -2.9643   50.6730 C   0  0  0  0  0  0  0  0  0  0  0  0
   21.7755   -1.5280   50.9945 C   0  0  1  0  0  0  0  0  0  0  0  0
   20.6035   -1.0709   49.9828 C   0  0  1  0  0  0  0  0  0  0  0  0
   20.0932    0.3687   50.2848 C   0  0  1  0  0  0  0  0  0  0  0  0
   19.5811    0.3825   51.7830 C   0  0  1  0  0  0  0  0  0  0  0  0
   20.7386   -0.1117   52.7188 C   0  0  2  0  0  0  0  0  0  0  0  0
   20.1014    2.8793   52.4091 C   0  0  0  0  0  0  0  0  0  0  0  0
   23.3909   -4.2487   48.8497 N   0  0  0  0  0  0  0  0  0  0  0  0
   19.1007    1.7728   52.1902 N   0  0  0  0  0  0  0  0  0  0  0  0
   20.6117   -3.4327   48.2554 O   0  0  0  0  0  0  0  0  0  0  0  0
   21.1211   -1.1504   48.6098 O   0  0  0  0  0  0  0  0  0  0  0  0
   21.2494   -1.4657   52.3533 O   0  0  0  0  0  0  0  0  0  0  0  0
   21.1928    1.2565   50.0769 O   0  0  0  0  0  0  0  0  0  0  0  0
   20.2747   -0.1597   54.0186 O   0  0  0  0  0  0  0  0  0  0  0  0
   21.2853   -0.5336   54.9703 C   0  0  2  0  0  0  0  0  0  0  0  0
   20.7075   -0.5049   56.4059 C   0  0  1  0  0  0  0  0  0  0  0  0
   20.3292    0.9416   56.8495 C   0  0  2  0  0  0  0  0  0  0  0  0
   21.5916    1.8502   56.7732 C   0  0  1  0  0  0  0  0  0  0  0  0
   22.0788    1.8367   55.2647 C   0  0  1  0  0  0  0  0  0  0  0  0
   23.3306    2.6854   55.0609 C   0  0  0  0  0  0  0  0  0  0  0  0
   21.2325    3.2337   57.1971 N   0  0  0  0  0  0  0  0  0  0  0  0
   22.4202    0.4215   54.8800 O   0  0  0  0  0  0  0  0  0  0  0  0
   19.5711   -1.3898   56.4265 O   0  0  0  0  0  0  0  0  0  0  0  0
   19.8580    0.8908   58.1798 O   0  0  0  0  0  0  0  0  0  0  0  0
   23.5955    2.8051   53.6881 O   0  0  0  0  0  0  0  0  0  0  0  0
   19.4828   -3.0142   47.5163 C   0  0  1  0  0  0  0  0  0  0  0  0
   19.8622   -3.0245   46.0006 C   0  0  1  0  0  0  0  0  0  0  0  0
   18.6362   -2.5349   45.1760 C   0  0  2  0  0  0  0  0  0  0  0  0
   17.4000   -3.4542   45.4216 C   0  0  1  0  0  0  0  0  0  0  0  0
   17.0166   -3.4589   46.9505 C   0  0  0  0  0  0  0  0  0  0  0  0
   18.2654   -3.9639   47.7859 C   0  0  2  0  0  0  0  0  0  0  0  0
   16.2404   -2.9625   44.6272 N   0  0  0  0  0  0  0  0  0  0  0  0
   17.8956   -3.9688   49.2192 N   0  0  0  0  0  0  0  0  0  0  0  0
   20.9750   -2.1438   45.7573 O   0  0  0  0  0  0  0  0  0  0  0  0
   19.0045   -2.5605   43.8068 O   0  0  0  0  0  0  0  0  0  0  0  0
  1  2  1  0  0  0  0
  1 12  1  1  0  0  0
  1 13  1  0  0  0  0
  2  3  1  0  0  0  0
  2 10  1  6  0  0  0
  4  3  1  6  0  0  0
  4  5  1  0  0  0  0
  4 14  1  0  0  0  0
  5  6  1  0  0  0  0
  5 13  1  6  0  0  0
  6  7  1  0  0  0  0
  6 15  1  1  0  0  0
  7  8  1  0  0  0  0
  7 11  1  1  0  0  0
  8 14  1  0  0  0  0
  8 16  1  1  0  0  0
  9 11  1  0  0  0  0
 17 16  1  6  0  0  0
 17 18  1  0  0  0  0
 17 24  1  0  0  0  0
 18 19  1  0  0  0  0
 18 25  1  6  0  0  0
 19 20  1  0  0  0  0
 19 26  1  1  0  0  0
 20 21  1  0  0  0  0
 20 23  1  6  0  0  0
 21 22  1  1  0  0  0
 21 24  1  0  0  0  0
 22 27  1  0  0  0  0
 28 12  1  1  0  0  0
 28 29  1  0  0  0  0
 28 33  1  0  0  0  0
 29 30  1  0  0  0  0
 29 36  1  1  0  0  0
 30 31  1  0  0  0  0
 30 37  1  6  0  0  0
 31 32  1  0  0  0  0
 31 34  1  6  0  0  0
 32 33  1  0  0  0  0
 33 35  1  1  0  0  0
M  END
>  <CHROM.1>
172.69397393,-71.87408096,-176.82120968,177.51790833,-170.98240838,69.39548782
20.49039713,-0.88402137,51.06871795,-1.78022088,0.27942863,1.20211809

>  <Name>
2oe8_lig

>  <RI>
0

>  <Rbt.Current_Directory>
/home/itssahil/PROJECTS/Mol_Feturizer/New_Systems/rnas/2oe8

>  <Rbt.Executable>
rbdock ($Id: //depot/dev/client3/rdock/2013.1/src/exe/rbdock.cxx#4 $)

>  <Rbt.Library>
libRbt.so (2013.1, Build901 2013/11/27)

>  <Rbt.Parameter_File>
/export/apps/rDock/src/rDock_2013.1_src/data/scripts/dock_solv.prm

>  <Rbt.Receptor>
prm/pocket_docking_6.prm

>  <SCORE>
-22.4446

>  <SCORE.INTER>
-16.1003

>  <SCORE.INTER.CONST>
1

>  <SCORE.INTER.POLAR>
-2.17884

>  <SCORE.INTER.ROT>
6

>  <SCORE.INTER.SOLV>
16.507

>  <SCORE.INTER.VDW>
-16.5731

>  <SCORE.INTER.norm>
-0.435144

>  <SCORE.INTRA>
-6.34432

>  <SCORE.INTRA.DIHEDRAL>
-15.1687

>  <SCORE.INTRA.DIHEDRAL.0>
16.4056

>  <SCORE.INTRA.POLAR>
0

>  <SCORE.INTRA.POLAR.0>
0

>  <SCORE.INTRA.REPUL>
0

>  <SCORE.INTRA.REPUL.0>
0

>  <SCORE.INTRA.SOLV>
-2.83149

>  <SCORE.INTRA.SOLV.lig_0>
-90.9627

>  <SCORE.INTRA.VDW>
2.65576

>  <SCORE.INTRA.VDW.0>
-3.28744

>  <SCORE.INTRA.norm>
-0.171468

>  <SCORE.RESTR>
0

>  <SCORE.RESTR.CAVITY>
0

>  <SCORE.RESTR.norm>
0

>  <SCORE.SYSTEM>
0

>  <SCORE.SYSTEM.CONST>
0

>  <SCORE.SYSTEM.DIHEDRAL>
0

>  <SCORE.SYSTEM.SOLV>
0

>  <SCORE.SYSTEM.norm>
0

>  <SCORE.heavy>
37

>  <SCORE.norm>
-0.606612

>  <RMSD>
9.700

$$$$
2oe8_lig
 OpenBabel11021811463D
libRbt.so/2013.1/901 2013/11/27
 37 40  0  0  0  0  0  0  0  0999 V2000
   18.9625   -4.3093   48.8003 C   0  0  1  0  0  0  0  0  0  0  0  0
   19.2971   -5.0967   50.1237 C   0  0  1  0  0  0  0  0  0  0  0  0
   18.8391   -4.2670   51.3412 C   0  0  0  0  0  0  0  0  0  0  0  0
   19.6249   -2.9206   51.2679 C   0  0  1  0  0  0  0  0  0  0  0  0
   19.3079   -2.1119   49.9072 C   0  0  1  0  0  0  0  0  0  0  0  0
   20.1026   -0.7761   49.8173 C   0  0  1  0  0  0  0  0  0  0  0  0
   19.7186    0.0871   51.0879 C   0  0  1  0  0  0  0  0  0  0  0  0
   20.0015   -0.7575   52.3788 C   0  0  2  0  0  0  0  0  0  0  0  0
   20.0453    2.5153   52.0334 C   0  0  0  0  0  0  0  0  0  0  0  0
   18.6077   -6.4260   50.1323 N   0  0  0  0  0  0  0  0  0  0  0  0
   20.4879    1.4051   51.1139 N   0  0  0  0  0  0  0  0  0  0  0  0
   17.5534   -4.0912   48.6557 O   0  0  0  0  0  0  0  0  0  0  0  0
   19.6375   -2.9785   48.7671 O   0  0  0  0  0  0  0  0  0  0  0  0
   19.2774   -2.0626   52.3950 O   0  0  0  0  0  0  0  0  0  0  0  0
   21.4903   -1.1140   49.7876 O   0  0  0  0  0  0  0  0  0  0  0  0
   19.6092   -0.0303   53.4852 O   0  0  0  0  0  0  0  0  0  0  0  0
   20.0925   -0.5748   54.7249 C   0  0  2  0  0  0  0  0  0  0  0  0
   19.8106    0.4064   55.8882 C   0  0  1  0  0  0  0  0  0  0  0  0
   20.6292    1.7260   55.7445 C   0  0  2  0  0  0  0  0  0  0  0  0
   22.1485    1.3871   55.6999 C   0  0  1  0  0  0  0  0  0  0  0  0
   22.3746    0.4483   54.4426 C   0  0  1  0  0  0  0  0  0  0  0  0
   23.8349    0.0294   54.2975 C   0  0  0  0  0  0  0  0  0  0  0  0
   22.9333    2.6471   55.5627 N   0  0  0  0  0  0  0  0  0  0  0  0
   21.5572   -0.8036   54.6212 O   0  0  0  0  0  0  0  0  0  0  0  0
   18.3912    0.6516   55.9055 O   0  0  0  0  0  0  0  0  0  0  0  0
   20.3559    2.5440   56.8628 O   0  0  0  0  0  0  0  0  0  0  0  0
   23.9841   -0.7523   53.1417 O   0  0  0  0  0  0  0  0  0  0  0  0
   17.1008   -4.1796   47.3204 C   0  0  1  0  0  0  0  0  0  0  0  0
   17.8915   -3.1353   46.4684 C   0  0  1  0  0  0  0  0  0  0  0  0
   17.3801   -3.1999   44.9996 C   0  0  2  0  0  0  0  0  0  0  0  0
   17.5768   -4.6293   44.4065 C   0  0  1  0  0  0  0  0  0  0  0  0
   16.7914   -5.6915   45.2665 C   0  0  0  0  0  0  0  0  0  0  0  0
   17.3194   -5.6268   46.7596 C   0  0  2  0  0  0  0  0  0  0  0  0
   17.0757   -4.6667   43.0047 N   0  0  0  0  0  0  0  0  0  0  0  0
   16.5797   -6.6294   47.5589 N   0  0  0  0  0  0  0  0  0  0  0  0
   17.6799   -1.8071   46.9823 O   0  0  0  0  0  0  0  0  0  0  0  0
   18.1174   -2.2495   44.2485 O   0  0  0  0  0  0  0  0  0  0  0  0
  1  2  1  0  0  0  0
  1 12  1  1  0  0  0
  1 13  1  0  0  0  0
  2  3  1  0  0  0  0
  2 10  1  6  0  0  0
  4  3  1  6  0  0  0
  4  5  1  0  0  0  0
  4 14  1  0  0  0  0
  5  6  1  0  0  0  0
  5 13  1  6  0  0  0
  6  7  1  0  0  0  0
  6 15  1  1  0  0  0
  7  8  1  0  0  0  0
  7 11  1  1  0  0  0
  8 14  1  0  0  0  0
  8 16  1  1  0  0  0
  9 11  1  0  0  0  0
 17 16  1  6  0  0  0
 17 18  1  0  0  0  0
 17 24  1  0  0  0  0
 18 19  1  0  0  0  0
 18 25  1  6  0  0  0
 19 20  1  0  0  0  0
 19 26  1  1  0  0  0
 20 21  1  0  0  0  0
 20 23  1  6  0  0  0
 21 22  1  1  0  0  0
 21 24  1  0  0  0  0
 22 27  1  0  0  0  0
 28 12  1  1  0  0  0
 28 29  1  0  0  0  0
 28 33  1  0  0  0  0
 29 30  1  0  0  0  0
 29 36  1  1  0  0  0
 30 31  1  0  0  0  0
 30 37  1  6  0  0  0
 31 32  1  0  0  0  0
 31 34  1  6  0  0  0
 32 33  1  0  0  0  0
 33 35  1  1  0  0  0
M  END
>  <CHROM.1>
-143.28508855,165.21707683,-166.85533528,170.92145311,-177.61333874,-57.66105502
19.53552577,-1.77144836,50.70963225,2.61665144,-1.17289494,-1.11198273

>  <Name>
2oe8_lig

>  <RI>
0

>  <Rbt.Current_Directory>
/home/itssahil/PROJECTS/Mol_Feturizer/New_Systems/rnas/2oe8

>  <Rbt.Executable>
rbdock ($Id: //depot/dev/client3/rdock/2013.1/src/exe/rbdock.cxx#4 $)

>  <Rbt.Library>
libRbt.so (2013.1, Build901 2013/11/27)

>  <Rbt.Parameter_File>
/export/apps/rDock/src/rDock_2013.1_src/data/scripts/dock_solv.prm

>  <Rbt.Receptor>
prm/pocket_docking_7.prm

>  <SCORE>
-26.2054

>  <SCORE.INTER>
-22.4419

>  <SCORE.INTER.CONST>
1

>  <SCORE.INTER.POLAR>
-3.01526

>  <SCORE.INTER.ROT>
6

>  <SCORE.INTER.SOLV>
13.9406

>  <SCORE.INTER.VDW>
-17.1573

>  <SCORE.INTER.norm>
-0.606537

>  <SCORE.INTRA>
-3.85207

>  <SCORE.INTRA.DIHEDRAL>
-10.1037

>  <SCORE.INTRA.DIHEDRAL.0>
16.4056

>  <SCORE.INTRA.POLAR>
0

>  <SCORE.INTRA.POLAR.0>
0

>  <SCORE.INTRA.REPUL>
0.00728323

>  <SCORE.INTRA.REPUL.0>
0

>  <SCORE.INTRA.SOLV>
-0.0106155

>  <SCORE.INTRA.SOLV.lig_0>
-90.9627

>  <SCORE.INTRA.VDW>
1.16869

>  <SCORE.INTRA.VDW.0>
-3.28744

>  <SCORE.INTRA.norm>
-0.10411

>  <SCORE.RESTR>
0.0885635

>  <SCORE.RESTR.CAVITY>
0.0885635

>  <SCORE.RESTR.norm>
0.00239361

>  <SCORE.SYSTEM>
0

>  <SCORE.SYSTEM.CONST>
0

>  <SCORE.SYSTEM.DIHEDRAL>
0

>  <SCORE.SYSTEM.SOLV>
0

>  <SCORE.SYSTEM.norm>
0

>  <SCORE.heavy>
37

>  <SCORE.norm>
-0.708253

>  <RMSD>
9.700

$$$$
2oe8_lig
 OpenBabel11021811463D
libRbt.so/2013.1/901 2013/11/27
 37 40  0  0  0  0  0  0  0  0999 V2000
   18.9219   -4.2916   48.7602 C   0  0  1  0  0  0  0  0  0  0  0  0
   19.2700   -5.0953   50.0703 C   0  0  1  0  0  0  0  0  0  0  0  0
   18.8277   -4.2792   51.3028 C   0  0  0  0  0  0  0  0  0  0  0  0
   19.6155   -2.9335   51.2363 C   0  0  1  0  0  0  0  0  0  0  0  0
   19.2847   -2.1081   49.8890 C   0  0  1  0  0  0  0  0  0  0  0  0
   20.0813   -0.7730   49.8057 C   0  0  1  0  0  0  0  0  0  0  0  0
   19.7138    0.0759   51.0907 C   0  0  1  0  0  0  0  0  0  0  0  0
   20.0096   -0.7846   52.3682 C   0  0  2  0  0  0  0  0  0  0  0  0
   20.0056    2.5235   51.9965 C   0  0  0  0  0  0  0  0  0  0  0  0
   18.5778   -6.4232   50.0712 N   0  0  0  0  0  0  0  0  0  0  0  0
   20.4861    1.3919   51.1235 N   0  0  0  0  0  0  0  0  0  0  0  0
   17.5117   -4.0689   48.6344 O   0  0  0  0  0  0  0  0  0  0  0  0
   19.5993   -2.9619   48.7350 O   0  0  0  0  0  0  0  0  0  0  0  0
   19.2828   -2.0882   52.3773 O   0  0  0  0  0  0  0  0  0  0  0  0
   21.4678   -1.1134   49.7560 O   0  0  0  0  0  0  0  0  0  0  0  0
   19.6316   -0.0697   53.4877 O   0  0  0  0  0  0  0  0  0  0  0  0
   20.1680   -0.6017   54.7108 C   0  0  2  0  0  0  0  0  0  0  0  0
   19.8666    0.3547   55.8898 C   0  0  1  0  0  0  0  0  0  0  0  0
   20.6187    1.7128   55.7410 C   0  0  2  0  0  0  0  0  0  0  0  0
   22.1509    1.4466   55.6592 C   0  0  1  0  0  0  0  0  0  0  0  0
   22.3924    0.5308   54.3880 C   0  0  1  0  0  0  0  0  0  0  0  0
   23.8671    0.1829   54.2062 C   0  0  0  0  0  0  0  0  0  0  0  0
   22.8721    2.7436   55.5172 N   0  0  0  0  0  0  0  0  0  0  0  0
   21.6391   -0.7600   54.5722 O   0  0  0  0  0  0  0  0  0  0  0  0
   18.4381    0.5322   55.9411 O   0  0  0  0  0  0  0  0  0  0  0  0
   20.3326    2.5069   56.8733 O   0  0  0  0  0  0  0  0  0  0  0  0
   24.0281   -0.5718   53.0341 O   0  0  0  0  0  0  0  0  0  0  0  0
   17.0456   -4.1286   47.3022 C   0  0  1  0  0  0  0  0  0  0  0  0
   17.8605   -3.0992   46.4549 C   0  0  1  0  0  0  0  0  0  0  0  0
   17.3353   -3.1319   44.9900 C   0  0  2  0  0  0  0  0  0  0  0  0
   17.4837   -4.5598   44.3796 C   0  0  1  0  0  0  0  0  0  0  0  0
   16.6736   -5.6073   45.2346 C   0  0  0  0  0  0  0  0  0  0  0  0
   17.2155   -5.5754   46.7237 C   0  0  2  0  0  0  0  0  0  0  0  0
   16.9701   -4.5663   42.9818 N   0  0  0  0  0  0  0  0  0  0  0  0
   16.4525   -6.5641   47.5183 N   0  0  0  0  0  0  0  0  0  0  0  0
   17.6935   -1.7710   46.9852 O   0  0  0  0  0  0  0  0  0  0  0  0
   18.0948   -2.1958   44.2430 O   0  0  0  0  0  0  0  0  0  0  0  0
  1  2  1  0  0  0  0
  1 12  1  1  0  0  0
  1 13  1  0  0  0  0
  2  3  1  0  0  0  0
  2 10  1  6  0  0  0
  4  3  1  1  0  0  0
  4  5  1  0  0  0  0
  4 14  1  0  0  0  0
  5  6  1  0  0  0  0
  5 13  1  6  0  0  0
  6  7  1  0  0  0  0
  6 15  1  1  0  0  0
  7  8  1  0  0  0  0
  7 11  1  1  0  0  0
  8 14  1  0  0  0  0
  8 16  1  1  0  0  0
  9 11  1  0  0  0  0
 17 16  1  6  0  0  0
 17 18  1  0  0  0  0
 17 24  1  0  0  0  0
 18 19  1  0  0  0  0
 18 25  1  6  0  0  0
 19 20  1  0  0  0  0
 19 26  1  1  0  0  0
 20 21  1  0  0  0  0
 20 23  1  6  0  0  0
 21 22  1  1  0  0  0
 21 24  1  0  0  0  0
 22 27  1  0  0  0  0
 28 12  1  1  0  0  0
 28 29  1  0  0  0  0
 28 33  1  0  0  0  0
 29 30  1  0  0  0  0
 29 36  1  1  0  0  0
 30 31  1  0  0  0  0
 30 37  1  6  0  0  0
 31 32  1  0  0  0  0
 31 34  1  6  0  0  0
 32 33  1  0  0  0  0
 33 35  1  1  0  0  0
M  END
>  <CHROM.1>
-143.82512907,161.35695957,-164.71981805,172.21501977,-177.16035966,-55.89783051
19.51752822,-1.74695605,50.68407829,2.54659255,-1.14351533,-1.18850582

>  <Name>
2oe8_lig

>  <RI>
0

>  <Rbt.Current_Directory>
/home/itssahil/PROJECTS/Mol_Feturizer/New_Systems/rnas/2oe8

>  <Rbt.Executable>
rbdock ($Id: //depot/dev/client3/rdock/2013.1/src/exe/rbdock.cxx#4 $)

>  <Rbt.Library>
libRbt.so (2013.1, Build901 2013/11/27)

>  <Rbt.Parameter_File>
/export/apps/rDock/src/rDock_2013.1_src/data/scripts/dock_solv.prm

>  <Rbt.Receptor>
prm/pocket_docking_6.prm

>  <SCORE>
-26.3024

>  <SCORE.INTER>
-22.4187

>  <SCORE.INTER.CONST>
1

>  <SCORE.INTER.POLAR>
-3.06306

>  <SCORE.INTER.ROT>
6

>  <SCORE.INTER.SOLV>
13.976

>  <SCORE.INTER.VDW>
-16.9942

>  <SCORE.INTER.norm>
-0.605909

>  <SCORE.INTRA>
-3.88379

>  <SCORE.INTRA.DIHEDRAL>
-9.87662

>  <SCORE.INTRA.DIHEDRAL.0>
16.4056

>  <SCORE.INTRA.POLAR>
0

>  <SCORE.INTRA.POLAR.0>
0

>  <SCORE.INTRA.REPUL>
0.00663578

>  <SCORE.INTRA.REPUL.0>
0

>  <SCORE.INTRA.SOLV>
-0.0708477

>  <SCORE.INTRA.SOLV.lig_0>
-90.9627

>  <SCORE.INTRA.VDW>
1.05677

>  <SCORE.INTRA.VDW.0>
-3.28744

>  <SCORE.INTRA.norm>
-0.104967

>  <SCORE.RESTR>
0

>  <SCORE.RESTR.CAVITY>
0

>  <SCORE.RESTR.norm>
0

>  <SCORE.SYSTEM>
0

>  <SCORE.SYSTEM.CONST>
0

>  <SCORE.SYSTEM.DIHEDRAL>
0

>  <SCORE.SYSTEM.SOLV>
0

>  <SCORE.SYSTEM.norm>
0

>  <SCORE.heavy>
37

>  <SCORE.norm>
-0.710877

>  <RMSD>
9.705

$$$$
2oe8_lig
 OpenBabel11021811463D
libRbt.so/2013.1/901 2013/11/27
 37 40  0  0  0  0  0  0  0  0999 V2000
   20.5895   -5.2994   49.8783 C   0  0  1  0  0  0  0  0  0  0  0  0
   19.1318   -5.2172   50.4715 C   0  0  1  0  0  0  0  0  0  0  0  0
   18.7567   -3.7383   50.7014 C   0  0  0  0  0  0  0  0  0  0  0  0
   19.8107   -3.1755   51.7055 C   0  0  1  0  0  0  0  0  0  0  0  0
   21.3119   -3.2722   51.1198 C   0  0  1  0  0  0  0  0  0  0  0  0
   22.3716   -2.7302   52.1235 C   0  0  1  0  0  0  0  0  0  0  0  0
   21.9891   -1.2283   52.4474 C   0  0  1  0  0  0  0  0  0  0  0  0
   20.5104   -1.1830   52.9683 C   0  0  2  0  0  0  0  0  0  0  0  0
   23.3183    0.8387   53.3732 C   0  0  0  0  0  0  0  0  0  0  0  0
   18.1475   -5.8463   49.5346 N   0  0  0  0  0  0  0  0  0  0  0  0
   22.9496   -0.6205   53.4659 N   0  0  0  0  0  0  0  0  0  0  0  0
   20.6832   -4.6388   48.6100 O   0  0  0  0  0  0  0  0  0  0  0  0
   21.5911   -4.6776   50.7936 O   0  0  0  0  0  0  0  0  0  0  0  0
   19.5331   -1.7762   52.0088 O   0  0  0  0  0  0  0  0  0  0  0  0
   22.3210   -3.5668   53.2803 O   0  0  0  0  0  0  0  0  0  0  0  0
   20.1541    0.1323   53.1924 O   0  0  0  0  0  0  0  0  0  0  0  0
   18.7707    0.2946   53.5484 C   0  0  2  0  0  0  0  0  0  0  0  0
   18.1891    1.5624   52.8774 C   0  0  1  0  0  0  0  0  0  0  0  0
   18.8464    2.8640   53.4305 C   0  0  2  0  0  0  0  0  0  0  0  0
   18.6270    2.9373   54.9705 C   0  0  1  0  0  0  0  0  0  0  0  0
   19.3154    1.6534   55.5958 C   0  0  1  0  0  0  0  0  0  0  0  0
   19.1545    1.6000   57.1124 C   0  0  0  0  0  0  0  0  0  0  0  0
   19.2543    4.1810   55.5017 N   0  0  0  0  0  0  0  0  0  0  0  0
   18.6571    0.4256   55.0243 O   0  0  0  0  0  0  0  0  0  0  0  0
   18.3840    1.4214   51.4572 O   0  0  0  0  0  0  0  0  0  0  0  0
   18.2316    3.9727   52.8082 O   0  0  0  0  0  0  0  0  0  0  0  0
   17.9750    0.9108   57.4331 O   0  0  0  0  0  0  0  0  0  0  0  0
   19.7925   -5.1481   47.6389 C   0  0  1  0  0  0  0  0  0  0  0  0
   19.5862   -4.0516   46.5450 C   0  0  1  0  0  0  0  0  0  0  0  0
   18.5814   -4.5880   45.4841 C   0  0  2  0  0  0  0  0  0  0  0  0
   19.1144   -5.8997   44.8291 C   0  0  1  0  0  0  0  0  0  0  0  0
   19.3363   -7.0087   45.9272 C   0  0  0  0  0  0  0  0  0  0  0  0
   20.3645   -6.4610   47.0018 C   0  0  2  0  0  0  0  0  0  0  0  0
   18.1344   -6.3953   43.8234 N   0  0  0  0  0  0  0  0  0  0  0  0
   20.5699   -7.5094   48.0265 N   0  0  0  0  0  0  0  0  0  0  0  0
   19.0522   -2.8512   47.1342 O   0  0  0  0  0  0  0  0  0  0  0  0
   18.4179   -3.5784   44.5017 O   0  0  0  0  0  0  0  0  0  0  0  0
  1  2  1  0  0  0  0
  1 12  1  6  0  0  0
  1 13  1  0  0  0  0
  2  3  1  0  0  0  0
  2 10  1  6  0  0  0
  4  3  1  6  0  0  0
  4  5  1  0  0  0  0
  4 14  1  0  0  0  0
  5  6  1  0  0  0  0
  5 13  1  1  0  0  0
  6  7  1  0  0  0  0
  6 15  1  1  0  0  0
  7  8  1  0  0  0  0
  7 11  1  1  0  0  0
  8 14  1  0  0  0  0
  8 16  1  6  0  0  0
  9 11  1  0  0  0  0
 17 16  1  1  0  0  0
 17 18  1  0  0  0  0
 17 24  1  0  0  0  0
 18 19  1  0  0  0  0
 18 25  1  6  0  0  0
 19 20  1  0  0  0  0
 19 26  1  6  0  0  0
 20 21  1  0  0  0  0
 20 23  1  1  0  0  0
 21 22  1  1  0  0  0
 21 24  1  0  0  0  0
 22 27  1  0  0  0  0
 28 12  1  1  0  0  0
 28 29  1  0  0  0  0
 28 33  1  0  0  0  0
 29 30  1  0  0  0  0
 29 36  1  1  0  0  0
 30 31  1  0  0  0  0
 30 37  1  6  0  0  0
 31 32  1  0  0  0  0
 31 34  1  6  0  0  0
 32 33  1  0  0  0  0
 33 35  1  1  0  0  0
M  END
>  <CHROM.1>
-57.78379840,145.46906656,174.24944019,-141.00848529,89.88928503,158.42752068
19.76687477,-2.05365039,51.01535329,-1.56511715,-0.88806477,0.84384806

>  <Name>
2oe8_lig

>  <RI>
0

>  <Rbt.Current_Directory>
/home/itssahil/PROJECTS/Mol_Feturizer/New_Systems/rnas/2oe8

>  <Rbt.Executable>
rbdock ($Id: //depot/dev/client3/rdock/2013.1/src/exe/rbdock.cxx#4 $)

>  <Rbt.Library>
libRbt.so (2013.1, Build901 2013/11/27)

>  <Rbt.Parameter_File>
/export/apps/rDock/src/rDock_2013.1_src/data/scripts/dock_solv.prm

>  <Rbt.Receptor>
prm/pocket_docking_3.prm

>  <SCORE>
-13.9254

>  <SCORE.INTER>
-14.4902

>  <SCORE.INTER.CONST>
1

>  <SCORE.INTER.POLAR>
-0.800051

>  <SCORE.INTER.ROT>
6

>  <SCORE.INTER.SOLV>
11.1624

>  <SCORE.INTER.VDW>
-18.3141

>  <SCORE.INTER.norm>
-0.391626

>  <SCORE.INTRA>
0.560062

>  <SCORE.INTRA.DIHEDRAL>
-5.49501

>  <SCORE.INTRA.DIHEDRAL.0>
16.4056

>  <SCORE.INTRA.POLAR>
0

>  <SCORE.INTRA.POLAR.0>
0

>  <SCORE.INTRA.REPUL>
0

>  <SCORE.INTRA.REPUL.0>
0

>  <SCORE.INTRA.SOLV>
2.33627

>  <SCORE.INTRA.SOLV.lig_0>
-90.9627

>  <SCORE.INTRA.VDW>
2.13943

>  <SCORE.INTRA.VDW.0>
-3.28744

>  <SCORE.INTRA.norm>
0.0151368

>  <SCORE.RESTR>
0.00467894

>  <SCORE.RESTR.CAVITY>
0.00467894

>  <SCORE.RESTR.norm>
0.000126458

>  <SCORE.SYSTEM>
0

>  <SCORE.SYSTEM.CONST>
0

>  <SCORE.SYSTEM.DIHEDRAL>
0

>  <SCORE.SYSTEM.SOLV>
0

>  <SCORE.SYSTEM.norm>
0

>  <SCORE.heavy>
37

>  <SCORE.norm>
-0.376363

>  <RMSD>
9.711

$$$$
2oe8_lig
 OpenBabel11021811463D
libRbt.so/2013.1/901 2013/11/27
 37 40  0  0  0  0  0  0  0  0999 V2000
   19.1085   -4.1061   48.8647 C   0  0  1  0  0  0  0  0  0  0  0  0
   19.4793   -4.8912   50.1799 C   0  0  1  0  0  0  0  0  0  0  0  0
   18.9634   -4.1077   51.4049 C   0  0  0  0  0  0  0  0  0  0  0  0
   19.6681   -2.7160   51.3569 C   0  0  1  0  0  0  0  0  0  0  0  0
   19.3139   -1.9082   50.0048 C   0  0  1  0  0  0  0  0  0  0  0  0
   20.0284   -0.5264   49.9402 C   0  0  1  0  0  0  0  0  0  0  0  0
   19.5840    0.2942   51.2193 C   0  0  1  0  0  0  0  0  0  0  0  0
   19.9067   -0.5506   52.5007 C   0  0  2  0  0  0  0  0  0  0  0  0
   19.7355    2.7362   52.1734 C   0  0  0  0  0  0  0  0  0  0  0  0
   18.8703   -6.2591   50.1642 N   0  0  0  0  0  0  0  0  0  0  0  0
   20.2731    1.6550   51.2702 N   0  0  0  0  0  0  0  0  0  0  0  0
   17.6901   -3.9702   48.7112 O   0  0  0  0  0  0  0  0  0  0  0  0
   19.7033   -2.7373   48.8557 O   0  0  0  0  0  0  0  0  0  0  0  0
   19.2615   -1.8965   52.4927 O   0  0  0  0  0  0  0  0  0  0  0  0
   21.4339   -0.7808   49.9176 O   0  0  0  0  0  0  0  0  0  0  0  0
   19.4633    0.1361   53.6138 O   0  0  0  0  0  0  0  0  0  0  0  0
   19.7543   -0.5363   54.8508 C   0  0  2  0  0  0  0  0  0  0  0  0
   19.4887    0.4062   56.0494 C   0  0  1  0  0  0  0  0  0  0  0  0
   20.4767    1.6128   56.0678 C   0  0  2  0  0  0  0  0  0  0  0  0
   21.9386    1.0801   56.1325 C   0  0  1  0  0  0  0  0  0  0  0  0
   22.1634    0.1922   54.8385 C   0  0  1  0  0  0  0  0  0  0  0  0
   23.5665   -0.4061   54.7927 C   0  0  0  0  0  0  0  0  0  0  0  0
   22.8851    2.2318   56.1504 N   0  0  0  0  0  0  0  0  0  0  0  0
   21.1818   -0.9495   54.8595 O   0  0  0  0  0  0  0  0  0  0  0  0
   18.1163    0.8344   55.9599 O   0  0  0  0  0  0  0  0  0  0  0  0
   20.2033    2.3951   57.2113 O   0  0  0  0  0  0  0  0  0  0  0  0
   23.7759   -1.0112   53.5441 O   0  0  0  0  0  0  0  0  0  0  0  0
   17.2459   -4.1370   47.3805 C   0  0  1  0  0  0  0  0  0  0  0  0
   17.9444   -3.0555   46.4951 C   0  0  1  0  0  0  0  0  0  0  0  0
   17.4396   -3.2076   45.0305 C   0  0  2  0  0  0  0  0  0  0  0  0
   17.7570   -4.6323   44.4800 C   0  0  1  0  0  0  0  0  0  0  0  0
   17.0653   -5.7310   45.3740 C   0  0  0  0  0  0  0  0  0  0  0  0
   17.5866   -5.5767   46.8628 C   0  0  2  0  0  0  0  0  0  0  0  0
   17.2601   -4.7546   43.0815 N   0  0  0  0  0  0  0  0  0  0  0  0
   16.9354   -6.6140   47.6942 N   0  0  0  0  0  0  0  0  0  0  0  0
   17.6208   -1.7351   46.9696 O   0  0  0  0  0  0  0  0  0  0  0  0
   18.0929   -2.2211   44.2490 O   0  0  0  0  0  0  0  0  0  0  0  0
  1  2  1  0  0  0  0
  1 12  1  1  0  0  0
  1 13  1  0  0  0  0
  2  3  1  0  0  0  0
  2 10  1  6  0  0  0
  4  3  1  6  0  0  0
  4  5  1  0  0  0  0
  4 14  1  0  0  0  0
  5  6  1  0  0  0  0
  5 13  1  6  0  0  0
  6  7  1  0  0  0  0
  6 15  1  1  0  0  0
  7  8  1  0  0  0  0
  7 11  1  1  0  0  0
  8 14  1  0  0  0  0
  8 16  1  1  0  0  0
  9 11  1  0  0  0  0
 17 16  1  6  0  0  0
 17 18  1  0  0  0  0
 17 24  1  0  0  0  0
 18 19  1  0  0  0  0
 18 25  1  6  0  0  0
 19 20  1  0  0  0  0
 19 26  1  1  0  0  0
 20 21  1  0  0  0  0
 20 23  1  6  0  0  0
 21 22  1  1  0  0  0
 21 24  1  0  0  0  0
 22 27  1  0  0  0  0
 28 12  1  1  0  0  0
 28 29  1  0  0  0  0
 28 33  1  0  0  0  0
 29 30  1  0  0  0  0
 29 36  1  1  0  0  0
 30 31  1  0  0  0  0
 30 37  1  6  0  0  0
 31 32  1  0  0  0  0
 31 34  1  6  0  0  0
 32 33  1  0  0  0  0
 33 35  1  1  0  0  0
M  END
>  <CHROM.1>
-140.09973604,163.55153840,-177.98413141,168.76451723,-171.30203563,-59.57134420
19.49935741,-1.72740780,50.86458354,3.13244721,-1.26687574,-0.53114404

>  <Name>
2oe8_lig

>  <RI>
0

>  <Rbt.Current_Directory>
/home/itssahil/PROJECTS/Mol_Feturizer/New_Systems/rnas/2oe8

>  <Rbt.Executable>
rbdock ($Id: //depot/dev/client3/rdock/2013.1/src/exe/rbdock.cxx#4 $)

>  <Rbt.Library>
libRbt.so (2013.1, Build901 2013/11/27)

>  <Rbt.Parameter_File>
/export/apps/rDock/src/rDock_2013.1_src/data/scripts/dock_solv.prm

>  <Rbt.Receptor>
prm/pocket_docking_5.prm

>  <SCORE>
-25.2772

>  <SCORE.INTER>
-21.8305

>  <SCORE.INTER.CONST>
1

>  <SCORE.INTER.POLAR>
-2.7894

>  <SCORE.INTER.ROT>
6

>  <SCORE.INTER.SOLV>
14.1848

>  <SCORE.INTER.VDW>
-17.5839

>  <SCORE.INTER.norm>
-0.590014

>  <SCORE.INTRA>
-3.44668

>  <SCORE.INTRA.DIHEDRAL>
-9.88998

>  <SCORE.INTRA.DIHEDRAL.0>
16.4056

>  <SCORE.INTRA.POLAR>
0

>  <SCORE.INTRA.POLAR.0>
0

>  <SCORE.INTRA.REPUL>
0.00195963

>  <SCORE.INTRA.REPUL.0>
0

>  <SCORE.INTRA.SOLV>
-0.0414189

>  <SCORE.INTRA.SOLV.lig_0>
-90.9627

>  <SCORE.INTRA.VDW>
1.50922

>  <SCORE.INTRA.VDW.0>
-3.28744

>  <SCORE.INTRA.norm>
-0.0931535

>  <SCORE.RESTR>
0

>  <SCORE.RESTR.CAVITY>
0

>  <SCORE.RESTR.norm>
0

>  <SCORE.SYSTEM>
0

>  <SCORE.SYSTEM.CONST>
0

>  <SCORE.SYSTEM.DIHEDRAL>
0

>  <SCORE.SYSTEM.SOLV>
0

>  <SCORE.SYSTEM.norm>
0

>  <SCORE.heavy>
37

>  <SCORE.norm>
-0.683167

>  <RMSD>
9.711

$$$$
2oe8_lig
 OpenBabel11021811463D
libRbt.so/2013.1/901 2013/11/27
 37 40  0  0  0  0  0  0  0  0999 V2000
   21.7729   -3.3891   48.8574 C   0  0  1  0  0  0  0  0  0  0  0  0
   23.0572   -3.6807   49.7227 C   0  0  1  0  0  0  0  0  0  0  0  0
   22.7673   -3.3371   51.1987 C   0  0  0  0  0  0  0  0  0  0  0  0
   22.3970   -1.8211   51.2256 C   0  0  1  0  0  0  0  0  0  0  0  0
   21.0946   -1.5035   50.3263 C   0  0  1  0  0  0  0  0  0  0  0  0
   20.7297    0.0100   50.3323 C   0  0  1  0  0  0  0  0  0  0  0  0
   20.4895    0.4309   51.8397 C   0  0  1  0  0  0  0  0  0  0  0  0
   21.7623    0.0608   52.6781 C   0  0  2  0  0  0  0  0  0  0  0  0
   18.7556    2.3643   52.2299 C   0  0  0  0  0  0  0  0  0  0  0  0
   23.4509   -5.1210   49.6092 N   0  0  0  0  0  0  0  0  0  0  0  0
   20.1696    1.9189   51.9540 N   0  0  0  0  0  0  0  0  0  0  0  0
   20.6628   -4.1972   49.2681 O   0  0  0  0  0  0  0  0  0  0  0  0
   21.3583   -1.9585   48.9541 O   0  0  0  0  0  0  0  0  0  0  0  0
   22.1216   -1.3852   52.5898 O   0  0  0  0  0  0  0  0  0  0  0  0
   21.8258    0.7089   49.7398 O   0  0  0  0  0  0  0  0  0  0  0  0
   21.5311    0.3699   54.0041 O   0  0  0  0  0  0  0  0  0  0  0  0
   20.9008   -0.6953   54.7354 C   0  0  2  0  0  0  0  0  0  0  0  0
   19.4120   -0.3607   54.9946 C   0  0  1  0  0  0  0  0  0  0  0  0
   19.2506    0.8612   55.9501 C   0  0  2  0  0  0  0  0  0  0  0  0
   19.9631    0.5562   57.3008 C   0  0  1  0  0  0  0  0  0  0  0  0
   21.4925    0.3037   56.9684 C   0  0  1  0  0  0  0  0  0  0  0  0
   22.3025   -0.0244   58.2194 C   0  0  0  0  0  0  0  0  0  0  0  0
   19.8100    1.7229   58.2161 N   0  0  0  0  0  0  0  0  0  0  0  0
   21.5962   -0.8744   56.0364 O   0  0  0  0  0  0  0  0  0  0  0  0
   18.7973   -0.1279   53.7128 O   0  0  0  0  0  0  0  0  0  0  0  0
   17.8724    1.0718   56.1751 O   0  0  0  0  0  0  0  0  0  0  0  0
   22.3349    1.0968   59.0625 O   0  0  0  0  0  0  0  0  0  0  0  0
   19.6061   -4.2264   48.3308 C   0  0  1  0  0  0  0  0  0  0  0  0
   20.0331   -5.1495   47.1446 C   0  0  1  0  0  0  0  0  0  0  0  0
   18.8898   -5.1658   46.0885 C   0  0  2  0  0  0  0  0  0  0  0  0
   17.5612   -5.6878   46.7178 C   0  0  1  0  0  0  0  0  0  0  0  0
   17.1284   -4.7688   47.9231 C   0  0  0  0  0  0  0  0  0  0  0  0
   18.2924   -4.7599   48.9988 C   0  0  2  0  0  0  0  0  0  0  0  0
   16.4831   -5.6887   45.6905 N   0  0  0  0  0  0  0  0  0  0  0  0
   17.8763   -3.8982   50.1281 N   0  0  0  0  0  0  0  0  0  0  0  0
   21.2351   -4.6497   46.5293 O   0  0  0  0  0  0  0  0  0  0  0  0
   19.2993   -6.0143   45.0287 O   0  0  0  0  0  0  0  0  0  0  0  0
  1  2  1  0  0  0  0
  1 12  1  1  0  0  0
  1 13  1  0  0  0  0
  2  3  1  0  0  0  0
  2 10  1  1  0  0  0
  4  3  1  1  0  0  0
  4  5  1  0  0  0  0
  4 14  1  0  0  0  0
  5  6  1  0  0  0  0
  5 13  1  6  0  0  0
  6  7  1  0  0  0  0
  6 15  1  1  0  0  0
  7  8  1  0  0  0  0
  7 11  1  6  0  0  0
  8 14  1  0  0  0  0
  8 16  1  1  0  0  0
  9 11  1  0  0  0  0
 17 16  1  1  0  0  0
 17 18  1  0  0  0  0
 17 24  1  0  0  0  0
 18 19  1  0  0  0  0
 18 25  1  6  0  0  0
 19 20  1  0  0  0  0
 19 26  1  1  0  0  0
 20 21  1  0  0  0  0
 20 23  1  1  0  0  0
 21 22  1  1  0  0  0
 21 24  1  0  0  0  0
 22 27  1  0  0  0  0
 28 12  1  1  0  0  0
 28 29  1  0  0  0  0
 28 33  1  0  0  0  0
 29 30  1  0  0  0  0
 29 36  1  6  0  0  0
 30 31  1  0  0  0  0
 30 37  1  6  0  0  0
 31 32  1  0  0  0  0
 31 34  1  6  0  0  0
 32 33  1  0  0  0  0
 33 35  1  1  0  0  0
M  END
>  <CHROM.1>
-164.90739263,105.39101311,87.52114330,-105.68733591,-65.99823397,75.29956246
20.39394615,-1.78146054,51.60484319,-1.68528017,-0.12262888,1.01112339

>  <Name>
2oe8_lig

>  <RI>
0

>  <Rbt.Current_Directory>
/home/itssahil/PROJECTS/Mol_Feturizer/New_Systems/rnas/2oe8

>  <Rbt.Executable>
rbdock ($Id: //depot/dev/client3/rdock/2013.1/src/exe/rbdock.cxx#4 $)

>  <Rbt.Library>
libRbt.so (2013.1, Build901 2013/11/27)

>  <Rbt.Parameter_File>
/export/apps/rDock/src/rDock_2013.1_src/data/scripts/dock_solv.prm

>  <Rbt.Receptor>
prm/pocket_docking_2.prm

>  <SCORE>
-8.99611

>  <SCORE.INTER>
-11.7642

>  <SCORE.INTER.CONST>
1

>  <SCORE.INTER.POLAR>
-1.22369

>  <SCORE.INTER.ROT>
6

>  <SCORE.INTER.SOLV>
11.6265

>  <SCORE.INTER.VDW>
-15.2393

>  <SCORE.INTER.norm>
-0.317952

>  <SCORE.INTRA>
1.60078

>  <SCORE.INTRA.DIHEDRAL>
-3.68272

>  <SCORE.INTRA.DIHEDRAL.0>
16.4056

>  <SCORE.INTRA.POLAR>
0

>  <SCORE.INTRA.POLAR.0>
0

>  <SCORE.INTRA.REPUL>
0

>  <SCORE.INTRA.REPUL.0>
0

>  <SCORE.INTRA.SOLV>
0.219324

>  <SCORE.INTRA.SOLV.lig_0>
-90.9627

>  <SCORE.INTRA.VDW>
3.33248

>  <SCORE.INTRA.VDW.0>
-3.28744

>  <SCORE.INTRA.norm>
0.0432642

>  <SCORE.RESTR>
1.16733

>  <SCORE.RESTR.CAVITY>
1.16733

>  <SCORE.RESTR.norm>
0.0315494

>  <SCORE.SYSTEM>
0

>  <SCORE.SYSTEM.CONST>
0

>  <SCORE.SYSTEM.DIHEDRAL>
0

>  <SCORE.SYSTEM.SOLV>
0

>  <SCORE.SYSTEM.norm>
0

>  <SCORE.heavy>
37

>  <SCORE.norm>
-0.243138

>  <RMSD>
9.715

$$$$
2oe8_lig
 OpenBabel11021811463D
libRbt.so/2013.1/901 2013/11/27
 37 40  0  0  0  0  0  0  0  0999 V2000
   22.4493   -2.8709   49.5822 C   0  0  1  0  0  0  0  0  0  0  0  0
   23.8733   -2.7290   50.2420 C   0  0  1  0  0  0  0  0  0  0  0  0
   23.7282   -2.0838   51.6360 C   0  0  0  0  0  0  0  0  0  0  0  0
   23.0701   -0.6883   51.4008 C   0  0  1  0  0  0  0  0  0  0  0  0
   21.6186   -0.8167   50.7061 C   0  0  1  0  0  0  0  0  0  0  0  0
   20.9632    0.5723   50.4504 C   0  0  1  0  0  0  0  0  0  0  0  0
   20.8553    1.3070   51.8488 C   0  0  1  0  0  0  0  0  0  0  0  0
   22.2800    1.3654   52.5019 C   0  0  2  0  0  0  0  0  0  0  0  0
   19.2771    3.2204   52.7119 C   0  0  0  0  0  0  0  0  0  0  0  0
   24.5271   -4.0697   50.3735 N   0  0  0  0  0  0  0  0  0  0  0  0
   20.2637    2.7054   51.6944 N   0  0  0  0  0  0  0  0  0  0  0  0
   21.5909   -3.7213   50.3529 O   0  0  0  0  0  0  0  0  0  0  0  0
   21.7749   -1.5470   49.4405 O   0  0  0  0  0  0  0  0  0  0  0  0
   22.9050    0.0199   52.6651 O   0  0  0  0  0  0  0  0  0  0  0  0
   21.8047    1.2711   49.5315 O   0  0  0  0  0  0  0  0  0  0  0  0
   22.1780    1.9501   53.7488 O   0  0  0  0  0  0  0  0  0  0  0  0
   23.3912    1.8703   54.5160 C   0  0  2  0  0  0  0  0  0  0  0  0
   23.2151    2.5895   55.8752 C   0  0  1  0  0  0  0  0  0  0  0  0
   23.0162    4.1259   55.6963 C   0  0  2  0  0  0  0  0  0  0  0  0
   24.2432    4.7196   54.9432 C   0  0  1  0  0  0  0  0  0  0  0  0
   24.3133    3.9965   53.5342 C   0  0  1  0  0  0  0  0  0  0  0  0
   25.4944    4.4841   52.6998 C   0  0  0  0  0  0  0  0  0  0  0  0
   24.0555    6.1886   54.7712 N   0  0  0  0  0  0  0  0  0  0  0  0
   24.4932    2.5183   53.7582 O   0  0  0  0  0  0  0  0  0  0  0  0
   22.0956    1.9749   56.5414 O   0  0  0  0  0  0  0  0  0  0  0  0
   22.9123    4.7137   56.9762 O   0  0  0  0  0  0  0  0  0  0  0  0
   26.6937    4.1396   53.3416 O   0  0  0  0  0  0  0  0  0  0  0  0
   20.3809   -4.0461   49.6999 C   0  0  1  0  0  0  0  0  0  0  0  0
   20.6731   -5.1876   48.6736 C   0  0  1  0  0  0  0  0  0  0  0  0
   19.3538   -5.5341   47.9238 C   0  0  2  0  0  0  0  0  0  0  0  0
   18.2494   -5.9900   48.9269 C   0  0  1  0  0  0  0  0  0  0  0  0
   17.9558   -4.8484   49.9735 C   0  0  0  0  0  0  0  0  0  0  0  0
   19.3001   -4.5030   50.7390 C   0  0  2  0  0  0  0  0  0  0  0  0
   16.9974   -6.3101   48.1869 N   0  0  0  0  0  0  0  0  0  0  0  0
   19.0146   -3.4336   51.7218 N   0  0  0  0  0  0  0  0  0  0  0  0
   21.6598   -4.7593   47.7164 O   0  0  0  0  0  0  0  0  0  0  0  0
   19.6450   -6.5749   47.0058 O   0  0  0  0  0  0  0  0  0  0  0  0
  1  2  1  0  0  0  0
  1 12  1  1  0  0  0
  1 13  1  0  0  0  0
  2  3  1  0  0  0  0
  2 10  1  1  0  0  0
  4  3  1  1  0  0  0
  4  5  1  0  0  0  0
  4 14  1  0  0  0  0
  5  6  1  0  0  0  0
  5 13  1  6  0  0  0
  6  7  1  0  0  0  0
  6 15  1  6  0  0  0
  7  8  1  0  0  0  0
  7 11  1  6  0  0  0
  8 14  1  0  0  0  0
  8 16  1  1  0  0  0
  9 11  1  0  0  0  0
 17 16  1  6  0  0  0
 17 18  1  0  0  0  0
 17 24  1  0  0  0  0
 18 19  1  0  0  0  0
 18 25  1  6  0  0  0
 19 20  1  0  0  0  0
 19 26  1  1  0  0  0
 20 21  1  0  0  0  0
 20 23  1  6  0  0  0
 21 22  1  6  0  0  0
 21 24  1  0  0  0  0
 22 27  1  0  0  0  0
 28 12  1  1  0  0  0
 28 29  1  0  0  0  0
 28 33  1  0  0  0  0
 29 30  1  0  0  0  0
 29 36  1  6  0  0  0
 30 31  1  0  0  0  0
 30 37  1  6  0  0  0
 31 32  1  0  0  0  0
 31 34  1  6  0  0  0
 32 33  1  0  0  0  0
 33 35  1  1  0  0  0
M  END
>  <CHROM.1>
-170.66463443,139.94269033,171.15479749,177.95176525,64.13867670,79.63723040
21.92328908,-0.39837337,51.69292063,-1.92344263,0.18752229,0.63987695

>  <Name>
2oe8_lig

>  <RI>
0

>  <Rbt.Current_Directory>
/home/itssahil/PROJECTS/Mol_Feturizer/New_Systems/rnas/2oe8

>  <Rbt.Executable>
rbdock ($Id: //depot/dev/client3/rdock/2013.1/src/exe/rbdock.cxx#4 $)

>  <Rbt.Library>
libRbt.so (2013.1, Build901 2013/11/27)

>  <Rbt.Parameter_File>
/export/apps/rDock/src/rDock_2013.1_src/data/scripts/dock_solv.prm

>  <Rbt.Receptor>
prm/pocket_docking_8.prm

>  <SCORE>
-20.9388

>  <SCORE.INTER>
-14.7935

>  <SCORE.INTER.CONST>
1

>  <SCORE.INTER.POLAR>
-1.03923

>  <SCORE.INTER.ROT>
6

>  <SCORE.INTER.SOLV>
13.0742

>  <SCORE.INTER.VDW>
-18.3563

>  <SCORE.INTER.norm>
-0.399823

>  <SCORE.INTRA>
-6.14532

>  <SCORE.INTRA.DIHEDRAL>
-12.8181

>  <SCORE.INTRA.DIHEDRAL.0>
16.4056

>  <SCORE.INTRA.POLAR>
0

>  <SCORE.INTRA.POLAR.0>
0

>  <SCORE.INTRA.REPUL>
0

>  <SCORE.INTRA.REPUL.0>
0

>  <SCORE.INTRA.SOLV>
-2.04648

>  <SCORE.INTRA.SOLV.lig_0>
-90.9627

>  <SCORE.INTRA.VDW>
1.28699

>  <SCORE.INTRA.VDW.0>
-3.28744

>  <SCORE.INTRA.norm>
-0.16609

>  <SCORE.RESTR>
0

>  <SCORE.RESTR.CAVITY>
0

>  <SCORE.RESTR.norm>
0

>  <SCORE.SYSTEM>
0

>  <SCORE.SYSTEM.CONST>
0

>  <SCORE.SYSTEM.DIHEDRAL>
0

>  <SCORE.SYSTEM.SOLV>
0

>  <SCORE.SYSTEM.norm>
0

>  <SCORE.heavy>
37

>  <SCORE.norm>
-0.565913

>  <RMSD>
9.725

$$$$
2oe8_lig
 OpenBabel11021811463D
libRbt.so/2013.1/901 2013/11/27
 37 40  0  0  0  0  0  0  0  0999 V2000
   19.5695   -3.9883   47.0939 C   0  0  1  0  0  0  0  0  0  0  0  0
   18.3879   -3.0353   47.5171 C   0  0  1  0  0  0  0  0  0  0  0  0
   17.1067   -3.4434   46.7604 C   0  0  0  0  0  0  0  0  0  0  0  0
   17.4363   -3.2989   45.2417 C   0  0  1  0  0  0  0  0  0  0  0  0
   18.6592   -4.2545   44.7975 C   0  0  1  0  0  0  0  0  0  0  0  0
   19.0070   -4.1021   43.2876 C   0  0  1  0  0  0  0  0  0  0  0  0
   17.6977   -4.4442   42.4655 C   0  0  1  0  0  0  0  0  0  0  0  0
   16.5307   -3.5230   42.9648 C   0  0  2  0  0  0  0  0  0  0  0  0
   16.9692   -4.9045   39.9848 C   0  0  0  0  0  0  0  0  0  0  0  0
   18.1489   -3.1188   48.9930 N   0  0  0  0  0  0  0  0  0  0  0  0
   17.9269   -4.2768   40.9659 N   0  0  0  0  0  0  0  0  0  0  0  0
   19.2963   -5.3536   47.4334 O   0  0  0  0  0  0  0  0  0  0  0  0
   19.8277   -3.9246   45.6253 O   0  0  0  0  0  0  0  0  0  0  0  0
   16.2747   -3.6446   44.4303 O   0  0  0  0  0  0  0  0  0  0  0  0
   19.4380   -2.7546   43.0895 O   0  0  0  0  0  0  0  0  0  0  0  0
   15.3729   -3.8623   42.2929 O   0  0  0  0  0  0  0  0  0  0  0  0
   14.4909   -4.6959   43.0636 C   0  0  2  0  0  0  0  0  0  0  0  0
   14.6958   -6.1838   42.6897 C   0  0  1  0  0  0  0  0  0  0  0  0
   14.2591   -6.4778   41.2217 C   0  0  2  0  0  0  0  0  0  0  0  0
   12.7606   -6.0931   41.0435 C   0  0  1  0  0  0  0  0  0  0  0  0
   12.6409   -4.5451   41.3638 C   0  0  1  0  0  0  0  0  0  0  0  0
   11.2045   -4.0451   41.2390 C   0  0  0  0  0  0  0  0  0  0  0  0
   12.3406   -6.3735   39.6408 N   0  0  0  0  0  0  0  0  0  0  0  0
   13.0834   -4.3099   42.7838 O   0  0  0  0  0  0  0  0  0  0  0  0
   16.0854   -6.4922   42.9109 O   0  0  0  0  0  0  0  0  0  0  0  0
   14.4297   -7.8577   40.9740 O   0  0  0  0  0  0  0  0  0  0  0  0
   10.4150   -4.6384   42.2358 O   0  0  0  0  0  0  0  0  0  0  0  0
   20.3705   -6.2303   47.1628 C   0  0  1  0  0  0  0  0  0  0  0  0
   21.4970   -5.9577   48.2108 C   0  0  1  0  0  0  0  0  0  0  0  0
   22.7008   -6.8958   47.9048 C   0  0  2  0  0  0  0  0  0  0  0  0
   22.2667   -8.3929   47.9672 C   0  0  1  0  0  0  0  0  0  0  0  0
   21.1222   -8.6749   46.9206 C   0  0  0  0  0  0  0  0  0  0  0  0
   19.8962   -7.7222   47.2395 C   0  0  2  0  0  0  0  0  0  0  0  0
   23.4327   -9.2689   47.6659 N   0  0  0  0  0  0  0  0  0  0  0  0
   18.8252   -7.9962   46.2550 N   0  0  0  0  0  0  0  0  0  0  0  0
   21.9351   -4.5885   48.1297 O   0  0  0  0  0  0  0  0  0  0  0  0
   23.7037   -6.6333   48.8724 O   0  0  0  0  0  0  0  0  0  0  0  0
  1  2  1  0  0  0  0
  1 12  1  6  0  0  0
  1 13  1  0  0  0  0
  2  3  1  0  0  0  0
  2 10  1  1  0  0  0
  4  3  1  1  0  0  0
  4  5  1  0  0  0  0
  4 14  1  0  0  0  0
  5  6  1  0  0  0  0
  5 13  1  1  0  0  0
  6  7  1  0  0  0  0
  6 15  1  1  0  0  0
  7  8  1  0  0  0  0
  7 11  1  6  0  0  0
  8 14  1  0  0  0  0
  8 16  1  6  0  0  0
  9 11  1  0  0  0  0
 17 16  1  6  0  0  0
 17 18  1  0  0  0  0
 17 24  1  0  0  0  0
 18 19  1  0  0  0  0
 18 25  1  6  0  0  0
 19 20  1  0  0  0  0
 19 26  1  1  0  0  0
 20 21  1  0  0  0  0
 20 23  1  6  0  0  0
 21 22  1  1  0  0  0
 21 24  1  0  0  0  0
 22 27  1  0  0  0  0
 28 12  1  1  0  0  0
 28 29  1  0  0  0  0
 28 33  1  0  0  0  0
 29 30  1  0  0  0  0
 29 36  1  6  0  0  0
 30 31  1  0  0  0  0
 30 37  1  1  0  0  0
 31 32  1  0  0  0  0
 31 34  1  6  0  0  0
 32 33  1  0  0  0  0
 33 35  1  6  0  0  0
M  END
>  <CHROM.1>
-175.54661445,162.90168432,100.48109639,-97.03220622,66.29363324,71.95947974
17.54028726,-5.28101433,44.53132006,0.15535698,-0.65415950,0.45045528

>  <Name>
2oe8_lig

>  <RI>
0

>  <Rbt.Current_Directory>
/home/itssahil/PROJECTS/Mol_Feturizer/New_Systems/rnas/2oe8

>  <Rbt.Executable>
rbdock ($Id: //depot/dev/client3/rdock/2013.1/src/exe/rbdock.cxx#4 $)

>  <Rbt.Library>
libRbt.so (2013.1, Build901 2013/11/27)

>  <Rbt.Parameter_File>
/export/apps/rDock/src/rDock_2013.1_src/data/scripts/dock_solv.prm

>  <Rbt.Receptor>
prm/blind_docking_100.prm

>  <SCORE>
-15.9766

>  <SCORE.INTER>
-16.9915

>  <SCORE.INTER.CONST>
1

>  <SCORE.INTER.POLAR>
-1.95301

>  <SCORE.INTER.ROT>
6

>  <SCORE.INTER.SOLV>
12.0384

>  <SCORE.INTER.VDW>
-16.4305

>  <SCORE.INTER.norm>
-0.459231

>  <SCORE.INTRA>
1.01495

>  <SCORE.INTRA.DIHEDRAL>
-4.87158

>  <SCORE.INTRA.DIHEDRAL.0>
16.4056

>  <SCORE.INTRA.POLAR>
0

>  <SCORE.INTRA.POLAR.0>
0

>  <SCORE.INTRA.REPUL>
0

>  <SCORE.INTRA.REPUL.0>
0

>  <SCORE.INTRA.SOLV>
-0.787426

>  <SCORE.INTRA.SOLV.lig_0>
-90.9627

>  <SCORE.INTRA.VDW>
3.84445

>  <SCORE.INTRA.VDW.0>
-3.28744

>  <SCORE.INTRA.norm>
0.0274311

>  <SCORE.RESTR>
0

>  <SCORE.RESTR.CAVITY>
0

>  <SCORE.RESTR.norm>
0

>  <SCORE.SYSTEM>
0

>  <SCORE.SYSTEM.CONST>
0

>  <SCORE.SYSTEM.DIHEDRAL>
0

>  <SCORE.SYSTEM.SOLV>
0

>  <SCORE.SYSTEM.norm>
0

>  <SCORE.heavy>
37

>  <SCORE.norm>
-0.4318

>  <RMSD>
9.731

$$$$
2oe8_lig
 OpenBabel11021811463D
libRbt.so/2013.1/901 2013/11/27
 37 40  0  0  0  0  0  0  0  0999 V2000
   19.9304   -5.8364   49.7288 C   0  0  1  0  0  0  0  0  0  0  0  0
   18.6176   -5.7466   50.5960 C   0  0  1  0  0  0  0  0  0  0  0  0
   18.2881   -4.2647   50.8717 C   0  0  0  0  0  0  0  0  0  0  0  0
   19.5164   -3.6837   51.6396 C   0  0  1  0  0  0  0  0  0  0  0  0
   20.8734   -3.7877   50.7713 C   0  0  1  0  0  0  0  0  0  0  0  0
   22.1073   -3.2276   51.5379 C   0  0  1  0  0  0  0  0  0  0  0  0
   21.7889   -1.7212   51.9068 C   0  0  1  0  0  0  0  0  0  0  0  0
   20.4415   -1.6695   52.7080 C   0  0  2  0  0  0  0  0  0  0  0  0
   24.1745   -0.6269   51.9984 C   0  0  0  0  0  0  0  0  0  0  0  0
   17.4712   -6.3927   49.8815 N   0  0  0  0  0  0  0  0  0  0  0  0
   22.9282   -1.0951   52.7066 N   0  0  0  0  0  0  0  0  0  0  0  0
   19.7695   -5.1967   48.4565 O   0  0  0  0  0  0  0  0  0  0  0  0
   21.0896   -5.1979   50.4190 O   0  0  0  0  0  0  0  0  0  0  0  0
   19.2973   -2.2800   51.9693 O   0  0  0  0  0  0  0  0  0  0  0  0
   22.2895   -4.0450   52.6953 O   0  0  0  0  0  0  0  0  0  0  0  0
   20.1301   -0.3512   52.9768 O   0  0  0  0  0  0  0  0  0  0  0  0
   18.9724   -0.1995   53.8156 C   0  0  2  0  0  0  0  0  0  0  0  0
   18.5471    1.2874   53.8796 C   0  0  1  0  0  0  0  0  0  0  0  0
   19.6164    2.1655   54.5990 C   0  0  2  0  0  0  0  0  0  0  0  0
   19.8437    1.6219   56.0406 C   0  0  1  0  0  0  0  0  0  0  0  0
   20.3526    0.1276   55.8948 C   0  0  1  0  0  0  0  0  0  0  0  0
   20.5984   -0.5273   57.2511 C   0  0  0  0  0  0  0  0  0  0  0  0
   20.8655    2.4600   56.7306 N   0  0  0  0  0  0  0  0  0  0  0  0
   19.2947   -0.6760   55.1858 O   0  0  0  0  0  0  0  0  0  0  0  0
   18.3132    1.7231   52.5266 O   0  0  0  0  0  0  0  0  0  0  0  0
   19.1358    3.4920   54.6601 O   0  0  0  0  0  0  0  0  0  0  0  0
   21.2913   -1.7338   57.0687 O   0  0  0  0  0  0  0  0  0  0  0  0
   18.7679   -5.7826   47.6507 C   0  0  1  0  0  0  0  0  0  0  0  0
   17.8317   -4.6437   47.1330 C   0  0  1  0  0  0  0  0  0  0  0  0
   16.7040   -5.2792   46.2685 C   0  0  2  0  0  0  0  0  0  0  0  0
   17.3058   -6.0634   45.0617 C   0  0  1  0  0  0  0  0  0  0  0  0
   18.2609   -7.2078   45.5743 C   0  0  0  0  0  0  0  0  0  0  0  0
   19.4110   -6.5561   46.4486 C   0  0  2  0  0  0  0  0  0  0  0  0
   16.2088   -6.6656   44.2544 N   0  0  0  0  0  0  0  0  0  0  0  0
   20.3049   -7.6367   46.9224 N   0  0  0  0  0  0  0  0  0  0  0  0
   17.2369   -3.9426   48.2410 O   0  0  0  0  0  0  0  0  0  0  0  0
   15.8747   -4.2255   45.8068 O   0  0  0  0  0  0  0  0  0  0  0  0
  1  2  1  0  0  0  0
  1 12  1  6  0  0  0
  1 13  1  0  0  0  0
  2  3  1  0  0  0  0
  2 10  1  6  0  0  0
  4  3  1  6  0  0  0
  4  5  1  0  0  0  0
  4 14  1  0  0  0  0
  5  6  1  0  0  0  0
  5 13  1  1  0  0  0
  6  7  1  0  0  0  0
  6 15  1  1  0  0  0
  7  8  1  0  0  0  0
  7 11  1  1  0  0  0
  8 14  1  0  0  0  0
  8 16  1  6  0  0  0
  9 11  1  0  0  0  0
 17 16  1  6  0  0  0
 17 18  1  0  0  0  0
 17 24  1  0  0  0  0
 18 19  1  0  0  0  0
 18 25  1  6  0  0  0
 19 20  1  0  0  0  0
 19 26  1  1  0  0  0
 20 21  1  0  0  0  0
 20 23  1  6  0  0  0
 21 22  1  1  0  0  0
 21 24  1  0  0  0  0
 22 27  1  0  0  0  0
 28 12  1  1  0  0  0
 28 29  1  0  0  0  0
 28 33  1  0  0  0  0
 29 30  1  0  0  0  0
 29 36  1  1  0  0  0
 30 31  1  0  0  0  0
 30 37  1  6  0  0  0
 31 32  1  0  0  0  0
 31 34  1  1  0  0  0
 32 33  1  0  0  0  0
 33 35  1  1  0  0  0
M  END
>  <CHROM.1>
-61.88132858,78.52931822,-174.63623491,-170.59038337,-168.32324101,130.19897468
19.55990853,-2.75573015,51.16895084,-1.83322486,-0.60238610,0.74355670

>  <Name>
2oe8_lig

>  <RI>
0

>  <Rbt.Current_Directory>
/home/itssahil/PROJECTS/Mol_Feturizer/New_Systems/rnas/2oe8

>  <Rbt.Executable>
rbdock ($Id: //depot/dev/client3/rdock/2013.1/src/exe/rbdock.cxx#4 $)

>  <Rbt.Library>
libRbt.so (2013.1, Build901 2013/11/27)

>  <Rbt.Parameter_File>
/export/apps/rDock/src/rDock_2013.1_src/data/scripts/dock_solv.prm

>  <Rbt.Receptor>
prm/pocket_docking_8.prm

>  <SCORE>
-20.4551

>  <SCORE.INTER>
-18.0301

>  <SCORE.INTER.CONST>
1

>  <SCORE.INTER.POLAR>
-1.97406

>  <SCORE.INTER.ROT>
6

>  <SCORE.INTER.SOLV>
12.3324

>  <SCORE.INTER.VDW>
-17.1507

>  <SCORE.INTER.norm>
-0.4873

>  <SCORE.INTRA>
-2.42504

>  <SCORE.INTRA.DIHEDRAL>
-8.32034

>  <SCORE.INTRA.DIHEDRAL.0>
16.4056

>  <SCORE.INTRA.POLAR>
0

>  <SCORE.INTRA.POLAR.0>
0

>  <SCORE.INTRA.REPUL>
0

>  <SCORE.INTRA.REPUL.0>
0

>  <SCORE.INTRA.SOLV>
0.794655

>  <SCORE.INTRA.SOLV.lig_0>
-90.9627

>  <SCORE.INTRA.VDW>
1.3378

>  <SCORE.INTRA.VDW.0>
-3.28744

>  <SCORE.INTRA.norm>
-0.0655416

>  <SCORE.RESTR>
0

>  <SCORE.RESTR.CAVITY>
0

>  <SCORE.RESTR.norm>
0

>  <SCORE.SYSTEM>
0

>  <SCORE.SYSTEM.CONST>
0

>  <SCORE.SYSTEM.DIHEDRAL>
0

>  <SCORE.SYSTEM.SOLV>
0

>  <SCORE.SYSTEM.norm>
0

>  <SCORE.heavy>
37

>  <SCORE.norm>
-0.552842

>  <RMSD>
9.732

$$$$
2oe8_lig
 OpenBabel11021811463D
libRbt.so/2013.1/901 2013/11/27
 37 40  0  0  0  0  0  0  0  0999 V2000
   18.6847   -4.3729   48.5131 C   0  0  1  0  0  0  0  0  0  0  0  0
   18.9439   -5.1710   49.8469 C   0  0  1  0  0  0  0  0  0  0  0  0
   18.5743   -4.2830   51.0534 C   0  0  0  0  0  0  0  0  0  0  0  0
   19.4895   -3.0222   50.9594 C   0  0  1  0  0  0  0  0  0  0  0  0
   19.2498   -2.2053   49.5878 C   0  0  1  0  0  0  0  0  0  0  0  0
   20.1728   -0.9563   49.4774 C   0  0  1  0  0  0  0  0  0  0  0  0
   19.8804   -0.0415   50.7362 C   0  0  1  0  0  0  0  0  0  0  0  0
   20.0823   -0.8919   52.0385 C   0  0  2  0  0  0  0  0  0  0  0  0
   22.2753    1.0350   50.6922 C   0  0  0  0  0  0  0  0  0  0  0  0
   18.1262   -6.4251   49.8758 N   0  0  0  0  0  0  0  0  0  0  0  0
   20.7766    1.1939   50.7420 N   0  0  0  0  0  0  0  0  0  0  0  0
   17.3037   -4.0182   48.3679 O   0  0  0  0  0  0  0  0  0  0  0  0
   19.4882   -3.1163   48.4596 O   0  0  0  0  0  0  0  0  0  0  0  0
   19.2324   -2.1183   52.0747 O   0  0  0  0  0  0  0  0  0  0  0  0
   21.5201   -1.4306   49.4500 O   0  0  0  0  0  0  0  0  0  0  0  0
   19.7676   -0.1139   53.1352 O   0  0  0  0  0  0  0  0  0  0  0  0
   20.2477   -0.6585   54.3761 C   0  0  2  0  0  0  0  0  0  0  0  0
   19.9406    0.3116   55.5425 C   0  0  1  0  0  0  0  0  0  0  0  0
   20.7406    1.6441   55.4139 C   0  0  2  0  0  0  0  0  0  0  0  0
   22.2652    1.3281   55.3812 C   0  0  1  0  0  0  0  0  0  0  0  0
   22.5168    0.4003   54.1207 C   0  0  1  0  0  0  0  0  0  0  0  0
   23.9844    0.0042   53.9865 C   0  0  0  0  0  0  0  0  0  0  0  0
   23.0323    2.6006   55.2586 N   0  0  0  0  0  0  0  0  0  0  0  0
   21.7166   -0.8647   54.2845 O   0  0  0  0  0  0  0  0  0  0  0  0
   18.5177    0.5354   55.5482 O   0  0  0  0  0  0  0  0  0  0  0  0
   20.4450    2.4512   56.5344 O   0  0  0  0  0  0  0  0  0  0  0  0
   24.7502    1.1420   53.6896 O   0  0  0  0  0  0  0  0  0  0  0  0
   16.8385   -4.0865   47.0358 C   0  0  1  0  0  0  0  0  0  0  0  0
   17.6997   -3.1124   46.1690 C   0  0  1  0  0  0  0  0  0  0  0  0
   17.1769   -3.1540   44.7035 C   0  0  2  0  0  0  0  0  0  0  0  0
   17.2639   -4.6000   44.1246 C   0  0  1  0  0  0  0  0  0  0  0  0
   16.4068   -5.5922   44.9996 C   0  0  0  0  0  0  0  0  0  0  0  0
   16.9462   -5.5516   46.4894 C   0  0  2  0  0  0  0  0  0  0  0  0
   16.7537   -4.6145   42.7257 N   0  0  0  0  0  0  0  0  0  0  0  0
   16.1388   -6.4884   47.3027 N   0  0  0  0  0  0  0  0  0  0  0  0
   17.5898   -1.7670   46.6699 O   0  0  0  0  0  0  0  0  0  0  0  0
   17.9783   -2.2685   43.9388 O   0  0  0  0  0  0  0  0  0  0  0  0
  1  2  1  0  0  0  0
  1 12  1  1  0  0  0
  1 13  1  0  0  0  0
  2  3  1  0  0  0  0
  2 10  1  6  0  0  0
  4  3  1  1  0  0  0
  4  5  1  0  0  0  0
  4 14  1  0  0  0  0
  5  6  1  0  0  0  0
  5 13  1  6  0  0  0
  6  7  1  0  0  0  0
  6 15  1  1  0  0  0
  7  8  1  0  0  0  0
  7 11  1  1  0  0  0
  8 14  1  0  0  0  0
  8 16  1  1  0  0  0
  9 11  1  0  0  0  0
 17 16  1  6  0  0  0
 17 18  1  0  0  0  0
 17 24  1  0  0  0  0
 18 19  1  0  0  0  0
 18 25  1  6  0  0  0
 19 20  1  0  0  0  0
 19 26  1  1  0  0  0
 20 21  1  0  0  0  0
 20 23  1  6  0  0  0
 21 22  1  1  0  0  0
 21 24  1  0  0  0  0
 22 27  1  0  0  0  0
 28 12  1  1  0  0  0
 28 29  1  0  0  0  0
 28 33  1  0  0  0  0
 29 30  1  0  0  0  0
 29 36  1  1  0  0  0
 30 31  1  0  0  0  0
 30 37  1  6  0  0  0
 31 32  1  0  0  0  0
 31 34  1  6  0  0  0
 32 33  1  0  0  0  0
 33 35  1  1  0  0  0
M  END
>  <CHROM.1>
-142.98464142,-56.06637505,-164.39280789,176.23432398,-66.80366340,-59.22213797
19.55343843,-1.80149624,50.39436620,2.26167683,-0.90705724,-1.54322793

>  <Name>
2oe8_lig

>  <RI>
0

>  <Rbt.Current_Directory>
/home/itssahil/PROJECTS/Mol_Feturizer/New_Systems/rnas/2oe8

>  <Rbt.Executable>
rbdock ($Id: //depot/dev/client3/rdock/2013.1/src/exe/rbdock.cxx#4 $)

>  <Rbt.Library>
libRbt.so (2013.1, Build901 2013/11/27)

>  <Rbt.Parameter_File>
/export/apps/rDock/src/rDock_2013.1_src/data/scripts/dock_solv.prm

>  <Rbt.Receptor>
prm/pocket_docking_7.prm

>  <SCORE>
-25.1228

>  <SCORE.INTER>
-22.7903

>  <SCORE.INTER.CONST>
1

>  <SCORE.INTER.POLAR>
-3.03064

>  <SCORE.INTER.ROT>
6

>  <SCORE.INTER.SOLV>
14.6744

>  <SCORE.INTER.VDW>
-17.5829

>  <SCORE.INTER.norm>
-0.615955

>  <SCORE.INTRA>
-2.33928

>  <SCORE.INTRA.DIHEDRAL>
-10.1018

>  <SCORE.INTRA.DIHEDRAL.0>
16.4056

>  <SCORE.INTRA.POLAR>
0

>  <SCORE.INTRA.POLAR.0>
0

>  <SCORE.INTRA.REPUL>
0

>  <SCORE.INTRA.REPUL.0>
0

>  <SCORE.INTRA.SOLV>
1.18696

>  <SCORE.INTRA.SOLV.lig_0>
-90.9627

>  <SCORE.INTRA.VDW>
2.11815

>  <SCORE.INTRA.VDW.0>
-3.28744

>  <SCORE.INTRA.norm>
-0.0632238

>  <SCORE.RESTR>
0.00679167

>  <SCORE.RESTR.CAVITY>
0.00679167

>  <SCORE.RESTR.norm>
0.000183559

>  <SCORE.SYSTEM>
0

>  <SCORE.SYSTEM.CONST>
0

>  <SCORE.SYSTEM.DIHEDRAL>
0

>  <SCORE.SYSTEM.SOLV>
0

>  <SCORE.SYSTEM.norm>
0

>  <SCORE.heavy>
37

>  <SCORE.norm>
-0.678995

>  <RMSD>
9.744

$$$$
2oe8_lig
 OpenBabel11021811463D
libRbt.so/2013.1/901 2013/11/27
 37 40  0  0  0  0  0  0  0  0999 V2000
   21.7193   -3.1192   50.7335 C   0  0  1  0  0  0  0  0  0  0  0  0
   22.7037   -2.9744   51.9556 C   0  0  1  0  0  0  0  0  0  0  0  0
   21.8935   -2.6512   53.2284 C   0  0  0  0  0  0  0  0  0  0  0  0
   21.1478   -1.3112   52.9383 C   0  0  1  0  0  0  0  0  0  0  0  0
   20.1505   -1.4384   51.6753 C   0  0  1  0  0  0  0  0  0  0  0  0
   19.4168   -0.1002   51.3673 C   0  0  1  0  0  0  0  0  0  0  0  0
   18.6221    0.3129   52.6729 C   0  0  1  0  0  0  0  0  0  0  0  0
   19.6249    0.3780   53.8772 C   0  0  2  0  0  0  0  0  0  0  0  0
   18.6856    2.9340   52.5234 C   0  0  0  0  0  0  0  0  0  0  0  0
   23.4775   -4.2400   52.1594 N   0  0  0  0  0  0  0  0  0  0  0  0
   17.9029    1.6458   52.4840 N   0  0  0  0  0  0  0  0  0  0  0  0
   20.7905   -4.1936   50.9260 O   0  0  0  0  0  0  0  0  0  0  0  0
   20.9341   -1.8698   50.5094 O   0  0  0  0  0  0  0  0  0  0  0  0
   20.3610   -0.9018   54.0961 O   0  0  0  0  0  0  0  0  0  0  0  0
   20.4176    0.8559   51.0134 O   0  0  0  0  0  0  0  0  0  0  0  0
   18.9237    0.6772   55.0287 O   0  0  0  0  0  0  0  0  0  0  0  0
   19.6687    1.4860   55.9549 C   0  0  2  0  0  0  0  0  0  0  0  0
   20.2236    0.6115   57.1052 C   0  0  1  0  0  0  0  0  0  0  0  0
   19.0813    0.0282   57.9923 C   0  0  2  0  0  0  0  0  0  0  0  0
   18.2385    1.1978   58.5814 C   0  0  1  0  0  0  0  0  0  0  0  0
   17.6387    1.9986   57.3517 C   0  0  1  0  0  0  0  0  0  0  0  0
   16.7981    3.1903   57.8011 C   0  0  0  0  0  0  0  0  0  0  0  0
   17.1459    0.6426   59.4302 N   0  0  0  0  0  0  0  0  0  0  0  0
   18.7761    2.5307   56.5206 O   0  0  0  0  0  0  0  0  0  0  0  0
   21.0236   -0.4254   56.5055 O   0  0  0  0  0  0  0  0  0  0  0  0
   19.6669   -0.7132   59.0420 O   0  0  0  0  0  0  0  0  0  0  0  0
   16.3031    3.8644   56.6743 O   0  0  0  0  0  0  0  0  0  0  0  0
   20.2462   -4.6941   49.7223 C   0  0  1  0  0  0  0  0  0  0  0  0
   19.1378   -3.7037   49.2405 C   0  0  1  0  0  0  0  0  0  0  0  0
   18.5071   -4.2596   47.9305 C   0  0  2  0  0  0  0  0  0  0  0  0
   19.5909   -4.4264   46.8209 C   0  0  1  0  0  0  0  0  0  0  0  0
   20.7196   -5.4157   47.3026 C   0  0  0  0  0  0  0  0  0  0  0  0
   21.3633   -4.8429   48.6329 C   0  0  2  0  0  0  0  0  0  0  0  0
   18.9646   -4.9639   45.5813 N   0  0  0  0  0  0  0  0  0  0  0  0
   22.4241   -5.7754   49.0760 N   0  0  0  0  0  0  0  0  0  0  0  0
   18.1100   -3.5778   50.2410 O   0  0  0  0  0  0  0  0  0  0  0  0
   17.5116   -3.3404   47.5122 O   0  0  0  0  0  0  0  0  0  0  0  0
  1  2  1  0  0  0  0
  1 12  1  1  0  0  0
  1 13  1  0  0  0  0
  2  3  1  0  0  0  0
  2 10  1  1  0  0  0
  4  3  1  1  0  0  0
  4  5  1  0  0  0  0
  4 14  1  0  0  0  0
  5  6  1  0  0  0  0
  5 13  1  6  0  0  0
  6  7  1  0  0  0  0
  6 15  1  1  0  0  0
  7  8  1  0  0  0  0
  7 11  1  6  0  0  0
  8 14  1  0  0  0  0
  8 16  1  1  0  0  0
  9 11  1  0  0  0  0
 17 16  1  6  0  0  0
 17 18  1  0  0  0  0
 17 24  1  0  0  0  0
 18 19  1  0  0  0  0
 18 25  1  6  0  0  0
 19 20  1  0  0  0  0
 19 26  1  1  0  0  0
 20 21  1  0  0  0  0
 20 23  1  1  0  0  0
 21 22  1  1  0  0  0
 21 24  1  0  0  0  0
 22 27  1  0  0  0  0
 28 12  1  1  0  0  0
 28 29  1  0  0  0  0
 28 33  1  0  0  0  0
 29 30  1  0  0  0  0
 29 36  1  1  0  0  0
 30 31  1  0  0  0  0
 30 37  1  6  0  0  0
 31 32  1  0  0  0  0
 31 34  1  6  0  0  0
 32 33  1  0  0  0  0
 33 35  1  1  0  0  0
M  END
>  <CHROM.1>
-157.38919849,-75.92605687,-146.08295625,-101.92624639,179.57930780,-77.95019256
19.65276005,-1.21868354,52.79565123,-1.32692783,-0.76808934,1.14484430

>  <Name>
2oe8_lig

>  <RI>
0

>  <Rbt.Current_Directory>
/home/itssahil/PROJECTS/Mol_Feturizer/New_Systems/rnas/2oe8

>  <Rbt.Executable>
rbdock ($Id: //depot/dev/client3/rdock/2013.1/src/exe/rbdock.cxx#4 $)

>  <Rbt.Library>
libRbt.so (2013.1, Build901 2013/11/27)

>  <Rbt.Parameter_File>
/export/apps/rDock/src/rDock_2013.1_src/data/scripts/dock_solv.prm

>  <Rbt.Receptor>
prm/pocket_docking_6.prm

>  <SCORE>
-17.5065

>  <SCORE.INTER>
-18.3951

>  <SCORE.INTER.CONST>
1

>  <SCORE.INTER.POLAR>
-1.87601

>  <SCORE.INTER.ROT>
6

>  <SCORE.INTER.SOLV>
17.7298

>  <SCORE.INTER.VDW>
-19.52

>  <SCORE.INTER.norm>
-0.497164

>  <SCORE.INTRA>
0.888557

>  <SCORE.INTRA.DIHEDRAL>
-2.44438

>  <SCORE.INTRA.DIHEDRAL.0>
16.4056

>  <SCORE.INTRA.POLAR>
0

>  <SCORE.INTRA.POLAR.0>
0

>  <SCORE.INTRA.REPUL>
0

>  <SCORE.INTRA.REPUL.0>
0

>  <SCORE.INTRA.SOLV>
-0.365337

>  <SCORE.INTRA.SOLV.lig_0>
-90.9627

>  <SCORE.INTRA.VDW>
2.29341

>  <SCORE.INTRA.VDW.0>
-3.28744

>  <SCORE.INTRA.norm>
0.0240151

>  <SCORE.RESTR>
0

>  <SCORE.RESTR.CAVITY>
0

>  <SCORE.RESTR.norm>
0

>  <SCORE.SYSTEM>
0

>  <SCORE.SYSTEM.CONST>
0

>  <SCORE.SYSTEM.DIHEDRAL>
0

>  <SCORE.SYSTEM.SOLV>
0

>  <SCORE.SYSTEM.norm>
0

>  <SCORE.heavy>
37

>  <SCORE.norm>
-0.473149

>  <RMSD>
9.754

$$$$
2oe8_lig
 OpenBabel11021811463D
libRbt.so/2013.1/901 2013/11/27
 37 40  0  0  0  0  0  0  0  0999 V2000
   19.3336   -2.2528   48.9747 C   0  0  1  0  0  0  0  0  0  0  0  0
   20.7095   -2.9235   49.3497 C   0  0  1  0  0  0  0  0  0  0  0  0
   20.8065   -3.0671   50.8829 C   0  0  0  0  0  0  0  0  0  0  0  0
   20.7041   -1.6208   51.4605 C   0  0  1  0  0  0  0  0  0  0  0  0
   19.3077   -0.9128   51.0668 C   0  0  1  0  0  0  0  0  0  0  0  0
   19.2055    0.5377   51.6232 C   0  0  1  0  0  0  0  0  0  0  0  0
   19.3698    0.4520   53.1956 C   0  0  1  0  0  0  0  0  0  0  0  0
   20.7159   -0.2825   53.5252 C   0  0  2  0  0  0  0  0  0  0  0  0
   18.0692    2.6624   53.7605 C   0  0  0  0  0  0  0  0  0  0  0  0
   20.8281   -4.2720   48.7094 N   0  0  0  0  0  0  0  0  0  0  0  0
   19.3302    1.8386   53.8320 N   0  0  0  0  0  0  0  0  0  0  0  0
   18.2220   -3.0543   49.3942 O   0  0  0  0  0  0  0  0  0  0  0  0
   19.1897   -0.9062   49.6021 O   0  0  0  0  0  0  0  0  0  0  0  0
   20.8059   -1.6417   52.9152 O   0  0  0  0  0  0  0  0  0  0  0  0
   20.2464    1.2981   51.0074 O   0  0  0  0  0  0  0  0  0  0  0  0
   20.8313   -0.4136   54.8951 O   0  0  0  0  0  0  0  0  0  0  0  0
   22.1832   -0.6286   55.3345 C   0  0  2  0  0  0  0  0  0  0  0  0
   22.2363   -0.7281   56.8782 C   0  0  1  0  0  0  0  0  0  0  0  0
   21.8592    0.6232   57.5593 C   0  0  2  0  0  0  0  0  0  0  0  0
   22.8336    1.7355   57.0709 C   0  0  1  0  0  0  0  0  0  0  0  0
   22.6670    1.8360   55.4976 C   0  0  1  0  0  0  0  0  0  0  0  0
   23.5892    2.8900   54.8915 C   0  0  0  0  0  0  0  0  0  0  0  0
   22.4752    3.0284   57.7209 N   0  0  0  0  0  0  0  0  0  0  0  0
   23.0298    0.5080   54.8875 O   0  0  0  0  0  0  0  0  0  0  0  0
   21.3498   -1.7944   57.2680 O   0  0  0  0  0  0  0  0  0  0  0  0
   21.9780    0.4657   58.9577 O   0  0  0  0  0  0  0  0  0  0  0  0
   23.4044    2.9286   53.5010 O   0  0  0  0  0  0  0  0  0  0  0  0
   17.9674   -4.1567   48.5482 C   0  0  1  0  0  0  0  0  0  0  0  0
   17.1900   -5.2330   49.3720 C   0  0  1  0  0  0  0  0  0  0  0  0
   16.9302   -6.4676   48.4602 C   0  0  2  0  0  0  0  0  0  0  0  0
   16.1042   -6.0623   47.2005 C   0  0  1  0  0  0  0  0  0  0  0  0
   16.8760   -4.9681   46.3687 C   0  0  0  0  0  0  0  0  0  0  0  0
   17.1329   -3.7106   47.2987 C   0  0  2  0  0  0  0  0  0  0  0  0
   15.8739   -7.2576   46.3427 N   0  0  0  0  0  0  0  0  0  0  0  0
   17.8542   -2.6871   46.5091 N   0  0  0  0  0  0  0  0  0  0  0  0
   17.9649   -5.6456   50.5132 O   0  0  0  0  0  0  0  0  0  0  0  0
   16.2190   -7.4239   49.2286 O   0  0  0  0  0  0  0  0  0  0  0  0
  1  2  1  0  0  0  0
  1 12  1  1  0  0  0
  1 13  1  0  0  0  0
  2  3  1  0  0  0  0
  2 10  1  6  0  0  0
  4  3  1  1  0  0  0
  4  5  1  0  0  0  0
  4 14  1  0  0  0  0
  5  6  1  0  0  0  0
  5 13  1  6  0  0  0
  6  7  1  0  0  0  0
  6 15  1  6  0  0  0
  7  8  1  0  0  0  0
  7 11  1  6  0  0  0
  8 14  1  0  0  0  0
  8 16  1  1  0  0  0
  9 11  1  0  0  0  0
 17 16  1  1  0  0  0
 17 18  1  0  0  0  0
 17 24  1  0  0  0  0
 18 19  1  0  0  0  0
 18 25  1  1  0  0  0
 19 20  1  0  0  0  0
 19 26  1  1  0  0  0
 20 21  1  0  0  0  0
 20 23  1  1  0  0  0
 21 22  1  6  0  0  0
 21 24  1  0  0  0  0
 22 27  1  0  0  0  0
 28 12  1  1  0  0  0
 28 29  1  0  0  0  0
 28 33  1  0  0  0  0
 29 30  1  0  0  0  0
 29 36  1  1  0  0  0
 30 31  1  0  0  0  0
 30 37  1  1  0  0  0
 31 32  1  0  0  0  0
 31 34  1  6  0  0  0
 32 33  1  0  0  0  0
 33 35  1  6  0  0  0
M  END
>  <CHROM.1>
-77.76310032,64.81169401,-159.34930360,178.51509828,179.65120975,156.86778093
19.89224381,-1.52891171,52.03434677,-3.06936184,1.14020752,2.39437576

>  <Name>
2oe8_lig

>  <RI>
0

>  <Rbt.Current_Directory>
/home/itssahil/PROJECTS/Mol_Feturizer/New_Systems/rnas/2oe8

>  <Rbt.Executable>
rbdock ($Id: //depot/dev/client3/rdock/2013.1/src/exe/rbdock.cxx#4 $)

>  <Rbt.Library>
libRbt.so (2013.1, Build901 2013/11/27)

>  <Rbt.Parameter_File>
/export/apps/rDock/src/rDock_2013.1_src/data/scripts/dock_solv.prm

>  <Rbt.Receptor>
prm/pocket_docking_7.prm

>  <SCORE>
-27.1616

>  <SCORE.INTER>
-22.5888

>  <SCORE.INTER.CONST>
1

>  <SCORE.INTER.POLAR>
-1.99192

>  <SCORE.INTER.ROT>
6

>  <SCORE.INTER.SOLV>
14.7572

>  <SCORE.INTER.VDW>
-20.9385

>  <SCORE.INTER.norm>
-0.610508

>  <SCORE.INTRA>
-4.57279

>  <SCORE.INTRA.DIHEDRAL>
-10.648

>  <SCORE.INTRA.DIHEDRAL.0>
16.4056

>  <SCORE.INTRA.POLAR>
0

>  <SCORE.INTRA.POLAR.0>
0

>  <SCORE.INTRA.REPUL>
0

>  <SCORE.INTRA.REPUL.0>
0

>  <SCORE.INTRA.SOLV>
0.704132

>  <SCORE.INTRA.SOLV.lig_0>
-90.9627

>  <SCORE.INTRA.VDW>
0.399134

>  <SCORE.INTRA.VDW.0>
-3.28744

>  <SCORE.INTRA.norm>
-0.123589

>  <SCORE.RESTR>
0

>  <SCORE.RESTR.CAVITY>
0

>  <SCORE.RESTR.norm>
0

>  <SCORE.SYSTEM>
0

>  <SCORE.SYSTEM.CONST>
0

>  <SCORE.SYSTEM.DIHEDRAL>
0

>  <SCORE.SYSTEM.SOLV>
0

>  <SCORE.SYSTEM.norm>
0

>  <SCORE.heavy>
37

>  <SCORE.norm>
-0.734097

>  <RMSD>
9.762

$$$$
2oe8_lig
 OpenBabel11021811463D
libRbt.so/2013.1/901 2013/11/27
 37 40  0  0  0  0  0  0  0  0999 V2000
   19.8595   -2.3420   48.7455 C   0  0  1  0  0  0  0  0  0  0  0  0
   21.2027   -2.9945   49.2491 C   0  0  1  0  0  0  0  0  0  0  0  0
   21.2661   -2.9093   50.7884 C   0  0  0  0  0  0  0  0  0  0  0  0
   21.2061   -1.3901   51.1407 C   0  0  1  0  0  0  0  0  0  0  0  0
   19.8441   -0.7029   50.6127 C   0  0  1  0  0  0  0  0  0  0  0  0
   19.7850    0.8173   50.9434 C   0  0  1  0  0  0  0  0  0  0  0  0
   19.9169    0.9633   52.5145 C   0  0  1  0  0  0  0  0  0  0  0  0
   21.2288    0.2420   52.9820 C   0  0  2  0  0  0  0  0  0  0  0  0
   18.6238    3.2066   52.9525 C   0  0  0  0  0  0  0  0  0  0  0  0
   21.2836   -4.4270   48.8205 N   0  0  0  0  0  0  0  0  0  0  0  0
   19.9164    2.4303   52.9354 N   0  0  0  0  0  0  0  0  0  0  0  0
   18.7117   -3.0337   49.2535 O   0  0  0  0  0  0  0  0  0  0  0  0
   19.7535   -0.9124   49.1610 O   0  0  0  0  0  0  0  0  0  0  0  0
   21.2802   -1.1957   52.5843 O   0  0  0  0  0  0  0  0  0  0  0  0
   20.8642    1.4414   50.2459 O   0  0  0  0  0  0  0  0  0  0  0  0
   21.3140    0.3143   54.3585 O   0  0  0  0  0  0  0  0  0  0  0  0
   22.6050   -0.0589   54.8693 C   0  0  2  0  0  0  0  0  0  0  0  0
   22.4644   -1.2108   55.8936 C   0  0  1  0  0  0  0  0  0  0  0  0
   21.7005   -0.7566   57.1751 C   0  0  2  0  0  0  0  0  0  0  0  0
   22.4561    0.4380   57.8287 C   0  0  1  0  0  0  0  0  0  0  0  0
   22.4912    1.6040   56.7552 C   0  0  1  0  0  0  0  0  0  0  0  0
   23.2260    2.8367   57.2742 C   0  0  0  0  0  0  0  0  0  0  0  0
   21.7277    0.8739   59.0543 N   0  0  0  0  0  0  0  0  0  0  0  0
   23.2262    1.1155   55.5351 O   0  0  0  0  0  0  0  0  0  0  0  0
   21.7968   -2.2978   55.2246 O   0  0  0  0  0  0  0  0  0  0  0  0
   21.6565   -1.8432   58.0761 O   0  0  0  0  0  0  0  0  0  0  0  0
   23.2251    3.8321   56.2852 O   0  0  0  0  0  0  0  0  0  0  0  0
   18.3214   -4.1388   48.4647 C   0  0  1  0  0  0  0  0  0  0  0  0
   17.4407   -5.0802   49.3477 C   0  0  1  0  0  0  0  0  0  0  0  0
   17.0294   -6.3189   48.4996 C   0  0  2  0  0  0  0  0  0  0  0  0
   16.2345   -5.8825   47.2302 C   0  0  1  0  0  0  0  0  0  0  0  0
   17.1115   -4.9231   46.3385 C   0  0  0  0  0  0  0  0  0  0  0  0
   17.5229   -3.6604   47.2036 C   0  0  2  0  0  0  0  0  0  0  0  0
   15.8577   -7.0831   46.4339 N   0  0  0  0  0  0  0  0  0  0  0  0
   18.3424   -2.7634   46.3580 N   0  0  0  0  0  0  0  0  0  0  0  0
   18.1821   -5.5237   50.4996 O   0  0  0  0  0  0  0  0  0  0  0  0
   16.2271   -7.1514   49.3208 O   0  0  0  0  0  0  0  0  0  0  0  0
  1  2  1  0  0  0  0
  1 12  1  1  0  0  0
  1 13  1  0  0  0  0
  2  3  1  0  0  0  0
  2 10  1  1  0  0  0
  4  3  1  1  0  0  0
  4  5  1  0  0  0  0
  4 14  1  0  0  0  0
  5  6  1  0  0  0  0
  5 13  1  6  0  0  0
  6  7  1  0  0  0  0
  6 15  1  6  0  0  0
  7  8  1  0  0  0  0
  7 11  1  6  0  0  0
  8 14  1  0  0  0  0
  8 16  1  1  0  0  0
  9 11  1  0  0  0  0
 17 16  1  1  0  0  0
 17 18  1  0  0  0  0
 17 24  1  0  0  0  0
 18 19  1  0  0  0  0
 18 25  1  6  0  0  0
 19 20  1  0  0  0  0
 19 26  1  1  0  0  0
 20 21  1  0  0  0  0
 20 23  1  1  0  0  0
 21 22  1  1  0  0  0
 21 24  1  0  0  0  0
 22 27  1  0  0  0  0
 28 12  1  1  0  0  0
 28 29  1  0  0  0  0
 28 33  1  0  0  0  0
 29 30  1  0  0  0  0
 29 36  1  1  0  0  0
 30 31  1  0  0  0  0
 30 37  1  1  0  0  0
 31 32  1  0  0  0  0
 31 34  1  6  0  0  0
 32 33  1  0  0  0  0
 33 35  1  6  0  0  0
M  END
>  <CHROM.1>
-86.08619224,76.16432958,-167.47512812,-123.68501175,-179.98831898,159.91427035
20.14951092,-1.55641667,51.96153754,-3.11983088,1.15714696,2.49115050

>  <Name>
2oe8_lig

>  <RI>
0

>  <Rbt.Current_Directory>
/home/itssahil/PROJECTS/Mol_Feturizer/New_Systems/rnas/2oe8

>  <Rbt.Executable>
rbdock ($Id: //depot/dev/client3/rdock/2013.1/src/exe/rbdock.cxx#4 $)

>  <Rbt.Library>
libRbt.so (2013.1, Build901 2013/11/27)

>  <Rbt.Parameter_File>
/export/apps/rDock/src/rDock_2013.1_src/data/scripts/dock_solv.prm

>  <Rbt.Receptor>
prm/pocket_docking_5.prm

>  <SCORE>
-20.7161

>  <SCORE.INTER>
-19.1029

>  <SCORE.INTER.CONST>
1

>  <SCORE.INTER.POLAR>
-1.0198

>  <SCORE.INTER.ROT>
6

>  <SCORE.INTER.SOLV>
14.9981

>  <SCORE.INTER.VDW>
-21.9353

>  <SCORE.INTER.norm>
-0.516294

>  <SCORE.INTRA>
-1.61321

>  <SCORE.INTRA.DIHEDRAL>
-3.60204

>  <SCORE.INTRA.DIHEDRAL.0>
16.4056

>  <SCORE.INTRA.POLAR>
0

>  <SCORE.INTRA.POLAR.0>
0

>  <SCORE.INTRA.REPUL>
0

>  <SCORE.INTRA.REPUL.0>
0

>  <SCORE.INTRA.SOLV>
-0.103544

>  <SCORE.INTRA.SOLV.lig_0>
-90.9627

>  <SCORE.INTRA.VDW>
0.239584

>  <SCORE.INTRA.VDW.0>
-3.28744

>  <SCORE.INTRA.norm>
-0.0436002

>  <SCORE.RESTR>
0

>  <SCORE.RESTR.CAVITY>
0

>  <SCORE.RESTR.norm>
0

>  <SCORE.SYSTEM>
0

>  <SCORE.SYSTEM.CONST>
0

>  <SCORE.SYSTEM.DIHEDRAL>
0

>  <SCORE.SYSTEM.SOLV>
0

>  <SCORE.SYSTEM.norm>
0

>  <SCORE.heavy>
37

>  <SCORE.norm>
-0.559894

>  <RMSD>
9.763

$$$$
2oe8_lig
 OpenBabel11021811463D
libRbt.so/2013.1/901 2013/11/27
 37 40  0  0  0  0  0  0  0  0999 V2000
   21.8981   -2.8279   51.2952 C   0  0  1  0  0  0  0  0  0  0  0  0
   20.4912   -3.2278   51.8820 C   0  0  1  0  0  0  0  0  0  0  0  0
   19.6541   -1.9529   52.1151 C   0  0  0  0  0  0  0  0  0  0  0  0
   20.4639   -1.0821   53.1259 C   0  0  1  0  0  0  0  0  0  0  0  0
   21.9166   -0.6816   52.5467 C   0  0  1  0  0  0  0  0  0  0  0  0
   22.7386    0.1713   53.5570 C   0  0  1  0  0  0  0  0  0  0  0  0
   21.8866    1.4652   53.8841 C   0  0  1  0  0  0  0  0  0  0  0  0
   20.4722    1.0239   54.3985 C   0  0  2  0  0  0  0  0  0  0  0  0
   22.6658    1.9143   56.3515 C   0  0  0  0  0  0  0  0  0  0  0  0
   19.7686   -4.1389   50.9386 N   0  0  0  0  0  0  0  0  0  0  0  0
   22.5934    2.3480   54.9091 N   0  0  0  0  0  0  0  0  0  0  0  0
   21.7756   -2.1669   50.0295 O   0  0  0  0  0  0  0  0  0  0  0  0
   22.6394   -1.9179   52.2171 O   0  0  0  0  0  0  0  0  0  0  0  0
   19.7445    0.1491   53.4325 O   0  0  0  0  0  0  0  0  0  0  0  0
   22.9596   -0.6414   54.7109 O   0  0  0  0  0  0  0  0  0  0  0  0
   19.7061    2.1503   54.6252 O   0  0  0  0  0  0  0  0  0  0  0  0
   18.3148    1.8587   54.8402 C   0  0  2  0  0  0  0  0  0  0  0  0
   17.5065    3.1714   54.9784 C   0  0  1  0  0  0  0  0  0  0  0  0
   17.8998    3.9614   56.2642 C   0  0  2  0  0  0  0  0  0  0  0  0
   17.6604    3.0633   57.5137 C   0  0  1  0  0  0  0  0  0  0  0  0
   18.5769    1.7812   57.3422 C   0  0  1  0  0  0  0  0  0  0  0  0
   18.4192    0.8062   58.5056 C   0  0  0  0  0  0  0  0  0  0  0  0
   18.0354    3.8165   58.7444 N   0  0  0  0  0  0  0  0  0  0  0  0
   18.1686    1.0601   56.0849 O   0  0  0  0  0  0  0  0  0  0  0  0
   17.7340    3.9408   53.7821 O   0  0  0  0  0  0  0  0  0  0  0  0
   17.0889    5.1149   56.3439 O   0  0  0  0  0  0  0  0  0  0  0  0
   19.3133   -0.2630   58.3436 O   0  0  0  0  0  0  0  0  0  0  0  0
   21.2923   -3.0030   48.9984 C   0  0  1  0  0  0  0  0  0  0  0  0
   20.6907   -2.0954   47.8777 C   0  0  1  0  0  0  0  0  0  0  0  0
   20.1255   -3.0055   46.7485 C   0  0  2  0  0  0  0  0  0  0  0  0
   21.2468   -3.9126   46.1541 C   0  0  1  0  0  0  0  0  0  0  0  0
   21.8675   -4.8242   47.2803 C   0  0  0  0  0  0  0  0  0  0  0  0
   22.4474   -3.8938   48.4250 C   0  0  2  0  0  0  0  0  0  0  0  0
   20.6807   -4.7764   45.0812 N   0  0  0  0  0  0  0  0  0  0  0  0
   23.0314   -4.7573   49.4759 N   0  0  0  0  0  0  0  0  0  0  0  0
   19.6243   -1.2861   48.4079 O   0  0  0  0  0  0  0  0  0  0  0  0
   19.5932   -2.1584   45.7435 O   0  0  0  0  0  0  0  0  0  0  0  0
  1  2  1  0  0  0  0
  1 12  1  6  0  0  0
  1 13  1  0  0  0  0
  2  3  1  0  0  0  0
  2 10  1  6  0  0  0
  4  3  1  6  0  0  0
  4  5  1  0  0  0  0
  4 14  1  0  0  0  0
  5  6  1  0  0  0  0
  5 13  1  1  0  0  0
  6  7  1  0  0  0  0
  6 15  1  1  0  0  0
  7  8  1  0  0  0  0
  7 11  1  1  0  0  0
  8 14  1  0  0  0  0
  8 16  1  6  0  0  0
  9 11  1  0  0  0  0
 17 16  1  1  0  0  0
 17 18  1  0  0  0  0
 17 24  1  0  0  0  0
 18 19  1  0  0  0  0
 18 25  1  6  0  0  0
 19 20  1  0  0  0  0
 19 26  1  1  0  0  0
 20 21  1  0  0  0  0
 20 23  1  1  0  0  0
 21 22  1  1  0  0  0
 21 24  1  0  0  0  0
 22 27  1  0  0  0  0
 28 12  1  1  0  0  0
 28 29  1  0  0  0  0
 28 33  1  0  0  0  0
 29 30  1  0  0  0  0
 29 36  1  1  0  0  0
 30 31  1  0  0  0  0
 30 37  1  6  0  0  0
 31 32  1  0  0  0  0
 31 34  1  6  0  0  0
 32 33  1  0  0  0  0
 33 35  1  1  0  0  0
M  END
>  <CHROM.1>
-67.04598174,-72.44280540,168.23465533,-175.67165075,-176.24220909,158.39088403
20.27388851,-0.36342015,52.65520039,-1.28960296,-0.67084378,1.14308312

>  <Name>
2oe8_lig

>  <RI>
0

>  <Rbt.Current_Directory>
/home/itssahil/PROJECTS/Mol_Feturizer/New_Systems/rnas/2oe8

>  <Rbt.Executable>
rbdock ($Id: //depot/dev/client3/rdock/2013.1/src/exe/rbdock.cxx#4 $)

>  <Rbt.Library>
libRbt.so (2013.1, Build901 2013/11/27)

>  <Rbt.Parameter_File>
/export/apps/rDock/src/rDock_2013.1_src/data/scripts/dock_solv.prm

>  <Rbt.Receptor>
prm/pocket_docking_6.prm

>  <SCORE>
-14.4779

>  <SCORE.INTER>
-10.9612

>  <SCORE.INTER.CONST>
1

>  <SCORE.INTER.POLAR>
-1.54468

>  <SCORE.INTER.ROT>
6

>  <SCORE.INTER.SOLV>
11.7176

>  <SCORE.INTER.VDW>
-13.6644

>  <SCORE.INTER.norm>
-0.296248

>  <SCORE.INTRA>
-3.51675

>  <SCORE.INTRA.DIHEDRAL>
-13.1058

>  <SCORE.INTRA.DIHEDRAL.0>
16.4056

>  <SCORE.INTRA.POLAR>
0

>  <SCORE.INTRA.POLAR.0>
0

>  <SCORE.INTRA.REPUL>
0

>  <SCORE.INTRA.REPUL.0>
0

>  <SCORE.INTRA.SOLV>
1.39573

>  <SCORE.INTRA.SOLV.lig_0>
-90.9627

>  <SCORE.INTRA.VDW>
2.33828

>  <SCORE.INTRA.VDW.0>
-3.28744

>  <SCORE.INTRA.norm>
-0.0950473

>  <SCORE.RESTR>
0

>  <SCORE.RESTR.CAVITY>
0

>  <SCORE.RESTR.norm>
0

>  <SCORE.SYSTEM>
0

>  <SCORE.SYSTEM.CONST>
0

>  <SCORE.SYSTEM.DIHEDRAL>
0

>  <SCORE.SYSTEM.SOLV>
0

>  <SCORE.SYSTEM.norm>
0

>  <SCORE.heavy>
37

>  <SCORE.norm>
-0.391295

>  <RMSD>
9.763

$$$$
2oe8_lig
 OpenBabel11021811463D
libRbt.so/2013.1/901 2013/11/27
 37 40  0  0  0  0  0  0  0  0999 V2000
   19.4795   -4.8106   48.9945 C   0  0  1  0  0  0  0  0  0  0  0  0
   19.4714   -5.2517   50.5074 C   0  0  1  0  0  0  0  0  0  0  0  0
   18.7733   -4.1656   51.3522 C   0  0  0  0  0  0  0  0  0  0  0  0
   19.6010   -2.8585   51.1466 C   0  0  1  0  0  0  0  0  0  0  0  0
   19.6356   -2.4053   49.5976 C   0  0  1  0  0  0  0  0  0  0  0  0
   20.4755   -1.1124   49.3809 C   0  0  1  0  0  0  0  0  0  0  0  0
   19.8382    0.0205   50.2850 C   0  0  1  0  0  0  0  0  0  0  0  0
   19.7853   -0.4851   51.7688 C   0  0  2  0  0  0  0  0  0  0  0  0
   22.1064    1.3322   50.4623 C   0  0  0  0  0  0  0  0  0  0  0  0
   18.7530   -6.5553   50.6704 N   0  0  0  0  0  0  0  0  0  0  0  0
   20.6259    1.3232   50.1760 N   0  0  0  0  0  0  0  0  0  0  0  0
   18.1505   -4.6646   48.4783 O   0  0  0  0  0  0  0  0  0  0  0  0
   20.1897   -3.5116   48.8047 O   0  0  0  0  0  0  0  0  0  0  0  0
   19.0322   -1.7642   51.9251 O   0  0  0  0  0  0  0  0  0  0  0  0
   21.8198   -1.4169   49.7562 O   0  0  0  0  0  0  0  0  0  0  0  0
   19.1732    0.4764   52.5484 O   0  0  0  0  0  0  0  0  0  0  0  0
   20.1038    1.3026   53.2684 C   0  0  2  0  0  0  0  0  0  0  0  0
   20.6937    0.5251   54.4698 C   0  0  1  0  0  0  0  0  0  0  0  0
   19.6081    0.2061   55.5430 C   0  0  2  0  0  0  0  0  0  0  0  0
   18.9697    1.5364   56.0408 C   0  0  1  0  0  0  0  0  0  0  0  0
   18.3182    2.2366   54.7765 C   0  0  1  0  0  0  0  0  0  0  0  0
   17.6680    3.5702   55.1336 C   0  0  0  0  0  0  0  0  0  0  0  0
   17.9316    1.2341   57.0672 N   0  0  0  0  0  0  0  0  0  0  0  0
   19.4002    2.5131   53.7664 O   0  0  0  0  0  0  0  0  0  0  0  0
   21.3027   -0.6709   53.9467 O   0  0  0  0  0  0  0  0  0  0  0  0
   20.2307   -0.4574   56.6230 O   0  0  0  0  0  0  0  0  0  0  0  0
   18.6474    4.4543   55.6114 O   0  0  0  0  0  0  0  0  0  0  0  0
   18.0844   -4.6959   47.0675 C   0  0  1  0  0  0  0  0  0  0  0  0
   18.6750   -3.3557   46.5227 C   0  0  1  0  0  0  0  0  0  0  0  0
   18.5793   -3.3634   44.9691 C   0  0  2  0  0  0  0  0  0  0  0  0
   19.3632   -4.5725   44.3714 C   0  0  1  0  0  0  0  0  0  0  0  0
   18.7813   -5.9291   44.9243 C   0  0  0  0  0  0  0  0  0  0  0  0
   18.8863   -5.9199   46.5058 C   0  0  2  0  0  0  0  0  0  0  0  0
   19.2521   -4.5608   42.8864 N   0  0  0  0  0  0  0  0  0  0  0  0
   18.3416   -7.1982   47.0162 N   0  0  0  0  0  0  0  0  0  0  0  0
   17.9291   -2.2356   47.0346 O   0  0  0  0  0  0  0  0  0  0  0  0
   19.1272   -2.1419   44.5015 O   0  0  0  0  0  0  0  0  0  0  0  0
  1  2  1  0  0  0  0
  1 12  1  1  0  0  0
  1 13  1  0  0  0  0
  2  3  1  0  0  0  0
  2 10  1  6  0  0  0
  4  3  1  6  0  0  0
  4  5  1  0  0  0  0
  4 14  1  0  0  0  0
  5  6  1  0  0  0  0
  5 13  1  6  0  0  0
  6  7  1  0  0  0  0
  6 15  1  1  0  0  0
  7  8  1  0  0  0  0
  7 11  1  1  0  0  0
  8 14  1  0  0  0  0
  8 16  1  1  0  0  0
  9 11  1  0  0  0  0
 17 16  1  1  0  0  0
 17 18  1  0  0  0  0
 17 24  1  0  0  0  0
 18 19  1  0  0  0  0
 18 25  1  6  0  0  0
 19 20  1  0  0  0  0
 19 26  1  1  0  0  0
 20 21  1  0  0  0  0
 20 23  1  1  0  0  0
 21 22  1  1  0  0  0
 21 24  1  0  0  0  0
 22 27  1  0  0  0  0
 28 12  1  1  0  0  0
 28 29  1  0  0  0  0
 28 33  1  0  0  0  0
 29 30  1  0  0  0  0
 29 36  1  1  0  0  0
 30 31  1  0  0  0  0
 30 37  1  6  0  0  0
 31 32  1  0  0  0  0
 31 34  1  6  0  0  0
 32 33  1  0  0  0  0
 33 35  1  1  0  0  0
M  END
>  <CHROM.1>
-160.84118513,-55.04918787,-99.15357380,-75.35395661,62.41890585,-72.45639128
19.38511385,-1.66372759,50.51858624,1.88023375,-1.44254623,-1.88957954

>  <Name>
2oe8_lig

>  <RI>
0

>  <Rbt.Current_Directory>
/home/itssahil/PROJECTS/Mol_Feturizer/New_Systems/rnas/2oe8

>  <Rbt.Executable>
rbdock ($Id: //depot/dev/client3/rdock/2013.1/src/exe/rbdock.cxx#4 $)

>  <Rbt.Library>
libRbt.so (2013.1, Build901 2013/11/27)

>  <Rbt.Parameter_File>
/export/apps/rDock/src/rDock_2013.1_src/data/scripts/dock_solv.prm

>  <Rbt.Receptor>
prm/pocket_docking_5.prm

>  <SCORE>
-20.2091

>  <SCORE.INTER>
-20.0116

>  <SCORE.INTER.CONST>
1

>  <SCORE.INTER.POLAR>
-2.4154

>  <SCORE.INTER.ROT>
6

>  <SCORE.INTER.SOLV>
19.2803

>  <SCORE.INTER.VDW>
-19.3165

>  <SCORE.INTER.norm>
-0.540853

>  <SCORE.INTRA>
-0.197544

>  <SCORE.INTRA.DIHEDRAL>
-7.59532

>  <SCORE.INTRA.DIHEDRAL.0>
16.4056

>  <SCORE.INTRA.POLAR>
0

>  <SCORE.INTRA.POLAR.0>
0

>  <SCORE.INTRA.REPUL>
0

>  <SCORE.INTRA.REPUL.0>
0

>  <SCORE.INTRA.SOLV>
0.496589

>  <SCORE.INTRA.SOLV.lig_0>
-90.9627

>  <SCORE.INTRA.VDW>
3.35182

>  <SCORE.INTRA.VDW.0>
-3.28744

>  <SCORE.INTRA.norm>
-0.00533902

>  <SCORE.RESTR>
0

>  <SCORE.RESTR.CAVITY>
0

>  <SCORE.RESTR.norm>
0

>  <SCORE.SYSTEM>
0

>  <SCORE.SYSTEM.CONST>
0

>  <SCORE.SYSTEM.DIHEDRAL>
0

>  <SCORE.SYSTEM.SOLV>
0

>  <SCORE.SYSTEM.norm>
0

>  <SCORE.heavy>
37

>  <SCORE.norm>
-0.546192

>  <RMSD>
9.765

$$$$
2oe8_lig
 OpenBabel11021811463D
libRbt.so/2013.1/901 2013/11/27
 37 40  0  0  0  0  0  0  0  0999 V2000
   17.2600   -4.7942   46.3202 C   0  0  1  0  0  0  0  0  0  0  0  0
   16.8113   -3.3029   46.0789 C   0  0  1  0  0  0  0  0  0  0  0  0
   17.9627   -2.3535   46.4707 C   0  0  0  0  0  0  0  0  0  0  0  0
   18.2506   -2.6223   47.9809 C   0  0  1  0  0  0  0  0  0  0  0  0
   18.6916   -4.1522   48.2467 C   0  0  1  0  0  0  0  0  0  0  0  0
   18.9622   -4.4337   49.7539 C   0  0  1  0  0  0  0  0  0  0  0  0
   20.0940   -3.4315   50.2247 C   0  0  1  0  0  0  0  0  0  0  0  0
   19.6382   -1.9655   49.9038 C   0  0  2  0  0  0  0  0  0  0  0  0
   21.7791   -3.2947   52.2342 C   0  0  0  0  0  0  0  0  0  0  0  0
   16.4498   -3.0894   44.6416 N   0  0  0  0  0  0  0  0  0  0  0  0
   20.3982   -3.5997   51.7108 N   0  0  0  0  0  0  0  0  0  0  0  0
   18.3894   -5.1450   45.5108 O   0  0  0  0  0  0  0  0  0  0  0  0
   17.6272   -5.0335   47.7470 O   0  0  0  0  0  0  0  0  0  0  0  0
   19.3194   -1.7538   48.4611 O   0  0  0  0  0  0  0  0  0  0  0  0
   17.7303   -4.2287   50.4474 O   0  0  0  0  0  0  0  0  0  0  0  0
   20.6498   -1.0941   50.2566 O   0  0  0  0  0  0  0  0  0  0  0  0
   20.2199    0.2755   50.3349 C   0  0  2  0  0  0  0  0  0  0  0  0
   21.4447    1.2202   50.3901 C   0  0  1  0  0  0  0  0  0  0  0  0
   22.2604    1.0351   51.7063 C   0  0  2  0  0  0  0  0  0  0  0  0
   21.3338    1.3049   52.9285 C   0  0  1  0  0  0  0  0  0  0  0  0
   20.1504    0.2529   52.8507 C   0  0  1  0  0  0  0  0  0  0  0  0
   19.1560    0.4257   53.9954 C   0  0  0  0  0  0  0  0  0  0  0  0
   22.1114    1.1288   54.1882 N   0  0  0  0  0  0  0  0  0  0  0  0
   19.4016    0.4624   51.5612 O   0  0  0  0  0  0  0  0  0  0  0  0
   22.2417    0.9547   49.2199 O   0  0  0  0  0  0  0  0  0  0  0  0
   23.3270    1.9607   51.7033 O   0  0  0  0  0  0  0  0  0  0  0  0
   18.2082   -0.6082   53.9511 O   0  0  0  0  0  0  0  0  0  0  0  0
   18.6867   -6.5261   45.5215 C   0  0  1  0  0  0  0  0  0  0  0  0
   19.3937   -6.8612   46.8741 C   0  0  1  0  0  0  0  0  0  0  0  0
   19.7556   -8.3751   46.8861 C   0  0  2  0  0  0  0  0  0  0  0  0
   18.4760   -9.2523   46.7226 C   0  0  1  0  0  0  0  0  0  0  0  0
   17.7497   -8.9130   45.3654 C   0  0  0  0  0  0  0  0  0  0  0  0
   17.3774   -7.3723   45.3598 C   0  0  2  0  0  0  0  0  0  0  0  0
   18.8486  -10.6941   46.7317 N   0  0  0  0  0  0  0  0  0  0  0  0
   16.6928   -7.0633   44.0842 N   0  0  0  0  0  0  0  0  0  0  0  0
   20.6002   -6.0879   47.0131 O   0  0  0  0  0  0  0  0  0  0  0  0
   20.3881   -8.6532   48.1245 O   0  0  0  0  0  0  0  0  0  0  0  0
  1  2  1  0  0  0  0
  1 12  1  6  0  0  0
  1 13  1  0  0  0  0
  2  3  1  0  0  0  0
  2 10  1  6  0  0  0
  4  3  1  6  0  0  0
  4  5  1  0  0  0  0
  4 14  1  0  0  0  0
  5  6  1  0  0  0  0
  5 13  1  1  0  0  0
  6  7  1  0  0  0  0
  6 15  1  1  0  0  0
  7  8  1  0  0  0  0
  7 11  1  1  0  0  0
  8 14  1  0  0  0  0
  8 16  1  6  0  0  0
  9 11  1  0  0  0  0
 17 16  1  1  0  0  0
 17 18  1  0  0  0  0
 17 24  1  0  0  0  0
 18 19  1  0  0  0  0
 18 25  1  6  0  0  0
 19 20  1  0  0  0  0
 19 26  1  6  0  0  0
 20 21  1  0  0  0  0
 20 23  1  1  0  0  0
 21 22  1  1  0  0  0
 21 24  1  0  0  0  0
 22 27  1  0  0  0  0
 28 12  1  1  0  0  0
 28 29  1  0  0  0  0
 28 33  1  0  0  0  0
 29 30  1  0  0  0  0
 29 36  1  6  0  0  0
 30 31  1  0  0  0  0
 30 37  1  1  0  0  0
 31 32  1  0  0  0  0
 31 34  1  6  0  0  0
 32 33  1  0  0  0  0
 33 35  1  6  0  0  0
M  END
>  <CHROM.1>
-169.87091535,150.77864141,-164.68998302,-166.24629488,-174.27013703,-76.40060180
19.42444505,-3.36329730,48.99453018,2.15214715,1.06293376,-3.00261457

>  <Name>
2oe8_lig

>  <RI>
0

>  <Rbt.Current_Directory>
/home/itssahil/PROJECTS/Mol_Feturizer/New_Systems/rnas/2oe8

>  <Rbt.Executable>
rbdock ($Id: //depot/dev/client3/rdock/2013.1/src/exe/rbdock.cxx#4 $)

>  <Rbt.Library>
libRbt.so (2013.1, Build901 2013/11/27)

>  <Rbt.Parameter_File>
/export/apps/rDock/src/rDock_2013.1_src/data/scripts/dock_solv.prm

>  <Rbt.Receptor>
prm/pocket_docking_8.prm

>  <SCORE>
-19.4332

>  <SCORE.INTER>
-14.2933

>  <SCORE.INTER.CONST>
1

>  <SCORE.INTER.POLAR>
-1.4795

>  <SCORE.INTER.ROT>
6

>  <SCORE.INTER.SOLV>
14.0851

>  <SCORE.INTER.VDW>
-16.8922

>  <SCORE.INTER.norm>
-0.386305

>  <SCORE.INTRA>
-5.17531

>  <SCORE.INTRA.DIHEDRAL>
-11.9255

>  <SCORE.INTRA.DIHEDRAL.0>
16.4056

>  <SCORE.INTRA.POLAR>
0

>  <SCORE.INTRA.POLAR.0>
0

>  <SCORE.INTRA.REPUL>
0

>  <SCORE.INTRA.REPUL.0>
0

>  <SCORE.INTRA.SOLV>
-1.57891

>  <SCORE.INTRA.SOLV.lig_0>
-90.9627

>  <SCORE.INTRA.VDW>
1.57691

>  <SCORE.INTRA.VDW.0>
-3.28744

>  <SCORE.INTRA.norm>
-0.139873

>  <SCORE.RESTR>
0.0353782

>  <SCORE.RESTR.CAVITY>
0.0353782

>  <SCORE.RESTR.norm>
0.000956167

>  <SCORE.SYSTEM>
0

>  <SCORE.SYSTEM.CONST>
0

>  <SCORE.SYSTEM.DIHEDRAL>
0

>  <SCORE.SYSTEM.SOLV>
0

>  <SCORE.SYSTEM.norm>
0

>  <SCORE.heavy>
37

>  <SCORE.norm>
-0.525222

>  <RMSD>
9.765

$$$$
2oe8_lig
 OpenBabel11021811463D
libRbt.so/2013.1/901 2013/11/27
 37 40  0  0  0  0  0  0  0  0999 V2000
   19.3312   -2.2431   49.0106 C   0  0  1  0  0  0  0  0  0  0  0  0
   20.7184   -2.8993   49.3692 C   0  0  1  0  0  0  0  0  0  0  0  0
   20.8249   -3.0640   50.8996 C   0  0  0  0  0  0  0  0  0  0  0  0
   20.7046   -1.6280   51.4989 C   0  0  1  0  0  0  0  0  0  0  0  0
   19.2963   -0.9345   51.1223 C   0  0  1  0  0  0  0  0  0  0  0  0
   19.1760    0.5060   51.7005 C   0  0  1  0  0  0  0  0  0  0  0  0
   19.3492    0.3996   53.2707 C   0  0  1  0  0  0  0  0  0  0  0  0
   20.7072   -0.3201   53.5832 C   0  0  2  0  0  0  0  0  0  0  0  0
   18.0912    2.6618   53.7142 C   0  0  0  0  0  0  0  0  0  0  0  0
   20.8532   -4.2364   48.7085 N   0  0  0  0  0  0  0  0  0  0  0  0
   19.2927    1.7760   53.9277 N   0  0  0  0  0  0  0  0  0  0  0  0
   18.2333   -3.0666   49.4233 O   0  0  0  0  0  0  0  0  0  0  0  0
   19.1711   -0.9081   49.6584 O   0  0  0  0  0  0  0  0  0  0  0  0
   20.8138   -1.6688   52.9528 O   0  0  0  0  0  0  0  0  0  0  0  0
   20.2028    1.2904   51.0912 O   0  0  0  0  0  0  0  0  0  0  0  0
   20.8312   -0.4697   54.9504 O   0  0  0  0  0  0  0  0  0  0  0  0
   22.1876   -0.6763   55.3798 C   0  0  2  0  0  0  0  0  0  0  0  0
   22.2561   -0.7506   56.9243 C   0  0  1  0  0  0  0  0  0  0  0  0
   21.8843    0.6112   57.5871 C   0  0  2  0  0  0  0  0  0  0  0  0
   22.8526    1.7163   57.0710 C   0  0  1  0  0  0  0  0  0  0  0  0
   22.6703    1.7911   55.4980 C   0  0  1  0  0  0  0  0  0  0  0  0
   23.5854    2.8359   54.8657 C   0  0  0  0  0  0  0  0  0  0  0  0
   22.4993    3.0193   57.7034 N   0  0  0  0  0  0  0  0  0  0  0  0
   23.0286    0.4536   54.9060 O   0  0  0  0  0  0  0  0  0  0  0  0
   21.3746   -1.8112   57.3402 O   0  0  0  0  0  0  0  0  0  0  0  0
   22.0171    0.4766   58.9866 O   0  0  0  0  0  0  0  0  0  0  0  0
   23.3723    2.8658   53.4790 O   0  0  0  0  0  0  0  0  0  0  0  0
   17.9796   -4.1502   48.5531 C   0  0  1  0  0  0  0  0  0  0  0  0
   17.2190   -5.2528   49.3577 C   0  0  1  0  0  0  0  0  0  0  0  0
   16.9606   -6.4669   48.4185 C   0  0  2  0  0  0  0  0  0  0  0  0
   16.1191   -6.0381   47.1770 C   0  0  1  0  0  0  0  0  0  0  0  0
   16.8738   -4.9175   46.3649 C   0  0  0  0  0  0  0  0  0  0  0  0
   17.1294   -3.6809   47.3228 C   0  0  2  0  0  0  0  0  0  0  0  0
   15.8903   -7.2141   46.2925 N   0  0  0  0  0  0  0  0  0  0  0  0
   17.8346   -2.6324   46.5517 N   0  0  0  0  0  0  0  0  0  0  0  0
   18.0083   -5.6865   50.4811 O   0  0  0  0  0  0  0  0  0  0  0  0
   16.2647   -7.4477   49.1700 O   0  0  0  0  0  0  0  0  0  0  0  0
  1  2  1  0  0  0  0
  1 12  1  1  0  0  0
  1 13  1  0  0  0  0
  2  3  1  0  0  0  0
  2 10  1  6  0  0  0
  4  3  1  1  0  0  0
  4  5  1  0  0  0  0
  4 14  1  0  0  0  0
  5  6  1  0  0  0  0
  5 13  1  6  0  0  0
  6  7  1  0  0  0  0
  6 15  1  6  0  0  0
  7  8  1  0  0  0  0
  7 11  1  1  0  0  0
  8 14  1  0  0  0  0
  8 16  1  1  0  0  0
  9 11  1  0  0  0  0
 17 16  1  1  0  0  0
 17 18  1  0  0  0  0
 17 24  1  0  0  0  0
 18 19  1  0  0  0  0
 18 25  1  1  0  0  0
 19 20  1  0  0  0  0
 19 26  1  1  0  0  0
 20 21  1  0  0  0  0
 20 23  1  1  0  0  0
 21 22  1  6  0  0  0
 21 24  1  0  0  0  0
 22 27  1  0  0  0  0
 28 12  1  1  0  0  0
 28 29  1  0  0  0  0
 28 33  1  0  0  0  0
 29 30  1  0  0  0  0
 29 36  1  1  0  0  0
 30 31  1  0  0  0  0
 30 37  1  1  0  0  0
 31 32  1  0  0  0  0
 31 34  1  6  0  0  0
 32 33  1  0  0  0  0
 33 35  1  6  0  0  0
M  END
>  <CHROM.1>
-78.52851659,56.37356615,-159.55475343,176.64796997,-179.46571902,157.07366766
19.89804091,-1.54170830,52.05339866,-3.10551906,1.14163418,2.44026493

>  <Name>
2oe8_lig

>  <RI>
0

>  <Rbt.Current_Directory>
/home/itssahil/PROJECTS/Mol_Feturizer/New_Systems/rnas/2oe8

>  <Rbt.Executable>
rbdock ($Id: //depot/dev/client3/rdock/2013.1/src/exe/rbdock.cxx#4 $)

>  <Rbt.Library>
libRbt.so (2013.1, Build901 2013/11/27)

>  <Rbt.Parameter_File>
/export/apps/rDock/src/rDock_2013.1_src/data/scripts/dock_solv.prm

>  <Rbt.Receptor>
prm/pocket_docking_6.prm

>  <SCORE>
-27.1975

>  <SCORE.INTER>
-22.8242

>  <SCORE.INTER.CONST>
1

>  <SCORE.INTER.POLAR>
-1.98348

>  <SCORE.INTER.ROT>
6

>  <SCORE.INTER.SOLV>
14.938

>  <SCORE.INTER.VDW>
-21.1839

>  <SCORE.INTER.norm>
-0.616871

>  <SCORE.INTRA>
-4.37327

>  <SCORE.INTRA.DIHEDRAL>
-10.5648

>  <SCORE.INTRA.DIHEDRAL.0>
16.4056

>  <SCORE.INTRA.POLAR>
0

>  <SCORE.INTRA.POLAR.0>
0

>  <SCORE.INTRA.REPUL>
0

>  <SCORE.INTRA.REPUL.0>
0

>  <SCORE.INTRA.SOLV>
0.659465

>  <SCORE.INTRA.SOLV.lig_0>
-90.9627

>  <SCORE.INTRA.VDW>
0.579387

>  <SCORE.INTRA.VDW.0>
-3.28744

>  <SCORE.INTRA.norm>
-0.118197

>  <SCORE.RESTR>
0

>  <SCORE.RESTR.CAVITY>
0

>  <SCORE.RESTR.norm>
0

>  <SCORE.SYSTEM>
0

>  <SCORE.SYSTEM.CONST>
0

>  <SCORE.SYSTEM.DIHEDRAL>
0

>  <SCORE.SYSTEM.SOLV>
0

>  <SCORE.SYSTEM.norm>
0

>  <SCORE.heavy>
37

>  <SCORE.norm>
-0.735068

>  <RMSD>
9.766

$$$$
2oe8_lig
 OpenBabel11021811463D
libRbt.so/2013.1/901 2013/11/27
 37 40  0  0  0  0  0  0  0  0999 V2000
   21.9115   -3.0575   48.2139 C   0  0  1  0  0  0  0  0  0  0  0  0
   23.0102   -3.6452   49.1787 C   0  0  1  0  0  0  0  0  0  0  0  0
   22.4584   -3.6814   50.6191 C   0  0  0  0  0  0  0  0  0  0  0  0
   22.1111   -2.2050   50.9869 C   0  0  1  0  0  0  0  0  0  0  0  0
   21.0012   -1.5822   49.9938 C   0  0  1  0  0  0  0  0  0  0  0  0
   20.6630   -0.1030   50.3422 C   0  0  1  0  0  0  0  0  0  0  0  0
   20.1552   -0.0762   51.8416 C   0  0  1  0  0  0  0  0  0  0  0  0
   21.2464   -0.7317   52.7579 C   0  0  2  0  0  0  0  0  0  0  0  0
   18.4566    1.9108   52.0932 C   0  0  0  0  0  0  0  0  0  0  0  0
   23.3976   -5.0276   48.7532 N   0  0  0  0  0  0  0  0  0  0  0  0
   19.8409    1.3473   52.2936 N   0  0  0  0  0  0  0  0  0  0  0  0
   20.7334   -3.8734   48.1935 O   0  0  0  0  0  0  0  0  0  0  0  0
   21.5066   -1.6787   48.6173 O   0  0  0  0  0  0  0  0  0  0  0  0
   21.5953   -2.1240   52.3488 O   0  0  0  0  0  0  0  0  0  0  0  0
   21.8592    0.6560   50.1585 O   0  0  0  0  0  0  0  0  0  0  0  0
   20.7794   -0.7657   54.0571 O   0  0  0  0  0  0  0  0  0  0  0  0
   21.4442    0.1674   54.9256 C   0  0  2  0  0  0  0  0  0  0  0  0
   21.3806   -0.3249   56.3916 C   0  0  1  0  0  0  0  0  0  0  0  0
   19.9200   -0.3302   56.9382 C   0  0  2  0  0  0  0  0  0  0  0  0
   19.3286    1.1072   56.8408 C   0  0  1  0  0  0  0  0  0  0  0  0
   19.3513    1.5120   55.3082 C   0  0  1  0  0  0  0  0  0  0  0  0
   18.8067    2.9194   55.0809 C   0  0  0  0  0  0  0  0  0  0  0  0
   17.9323    1.1048   57.3631 N   0  0  0  0  0  0  0  0  0  0  0  0
   20.7770    1.4914   54.8241 O   0  0  0  0  0  0  0  0  0  0  0  0
   21.9745   -1.6366   56.4276 O   0  0  0  0  0  0  0  0  0  0  0  0
   19.9512   -0.7423   58.2886 O   0  0  0  0  0  0  0  0  0  0  0  0
   17.4531    2.9616   55.4482 O   0  0  0  0  0  0  0  0  0  0  0  0
   19.6755   -3.3216   47.4371 C   0  0  1  0  0  0  0  0  0  0  0  0
   20.0415   -3.4490   45.9233 C   0  0  1  0  0  0  0  0  0  0  0  0
   18.8976   -2.8159   45.0785 C   0  0  2  0  0  0  0  0  0  0  0  0
   17.5399   -3.5307   45.3599 C   0  0  1  0  0  0  0  0  0  0  0  0
   17.1678   -3.4170   46.8874 C   0  0  0  0  0  0  0  0  0  0  0  0
   18.3318   -4.0682   47.7436 C   0  0  2  0  0  0  0  0  0  0  0  0
   16.4621   -2.9042   44.5452 N   0  0  0  0  0  0  0  0  0  0  0  0
   17.9728   -3.9607   49.1756 N   0  0  0  0  0  0  0  0  0  0  0  0
   21.2715   -2.7539   45.6458 O   0  0  0  0  0  0  0  0  0  0  0  0
   19.2511   -2.9508   43.7119 O   0  0  0  0  0  0  0  0  0  0  0  0
  1  2  1  0  0  0  0
  1 12  1  1  0  0  0
  1 13  1  0  0  0  0
  2  3  1  0  0  0  0
  2 10  1  6  0  0  0
  4  3  1  6  0  0  0
  4  5  1  0  0  0  0
  4 14  1  0  0  0  0
  5  6  1  0  0  0  0
  5 13  1  6  0  0  0
  6  7  1  0  0  0  0
  6 15  1  1  0  0  0
  7  8  1  0  0  0  0
  7 11  1  1  0  0  0
  8 14  1  0  0  0  0
  8 16  1  1  0  0  0
  9 11  1  0  0  0  0
 17 16  1  6  0  0  0
 17 18  1  0  0  0  0
 17 24  1  0  0  0  0
 18 19  1  0  0  0  0
 18 25  1  6  0  0  0
 19 20  1  0  0  0  0
 19 26  1  1  0  0  0
 20 21  1  0  0  0  0
 20 23  1  6  0  0  0
 21 22  1  1  0  0  0
 21 24  1  0  0  0  0
 22 27  1  0  0  0  0
 28 12  1  1  0  0  0
 28 29  1  0  0  0  0
 28 33  1  0  0  0  0
 29 30  1  0  0  0  0
 29 36  1  1  0  0  0
 30 31  1  0  0  0  0
 30 37  1  6  0  0  0
 31 32  1  0  0  0  0
 31 34  1  6  0  0  0
 32 33  1  0  0  0  0
 33 35  1  1  0  0  0
M  END
>  <CHROM.1>
174.53738807,89.59853496,-108.44403723,-154.21048200,-63.95941306,72.81788497
20.16385006,-1.31407620,51.10557278,-1.59960214,-0.56880137,1.15528285

>  <Name>
2oe8_lig

>  <RI>
0

>  <Rbt.Current_Directory>
/home/itssahil/PROJECTS/Mol_Feturizer/New_Systems/rnas/2oe8

>  <Rbt.Executable>
rbdock ($Id: //depot/dev/client3/rdock/2013.1/src/exe/rbdock.cxx#4 $)

>  <Rbt.Library>
libRbt.so (2013.1, Build901 2013/11/27)

>  <Rbt.Parameter_File>
/export/apps/rDock/src/rDock_2013.1_src/data/scripts/dock_solv.prm

>  <Rbt.Receptor>
prm/pocket_docking_4.prm

>  <SCORE>
-20.966

>  <SCORE.INTER>
-19.4494

>  <SCORE.INTER.CONST>
1

>  <SCORE.INTER.POLAR>
-2.37176

>  <SCORE.INTER.ROT>
6

>  <SCORE.INTER.SOLV>
17.6963

>  <SCORE.INTER.VDW>
-18.5592

>  <SCORE.INTER.norm>
-0.525659

>  <SCORE.INTRA>
-1.51665

>  <SCORE.INTRA.DIHEDRAL>
-5.45868

>  <SCORE.INTRA.DIHEDRAL.0>
16.4056

>  <SCORE.INTRA.POLAR>
0

>  <SCORE.INTRA.POLAR.0>
0

>  <SCORE.INTRA.REPUL>
0

>  <SCORE.INTRA.REPUL.0>
0

>  <SCORE.INTRA.SOLV>
-0.329056

>  <SCORE.INTRA.SOLV.lig_0>
-90.9627

>  <SCORE.INTRA.VDW>
1.37722

>  <SCORE.INTRA.VDW.0>
-3.28744

>  <SCORE.INTRA.norm>
-0.0409906

>  <SCORE.RESTR>
0

>  <SCORE.RESTR.CAVITY>
0

>  <SCORE.RESTR.norm>
0

>  <SCORE.SYSTEM>
0

>  <SCORE.SYSTEM.CONST>
0

>  <SCORE.SYSTEM.DIHEDRAL>
0

>  <SCORE.SYSTEM.SOLV>
0

>  <SCORE.SYSTEM.norm>
0

>  <SCORE.heavy>
37

>  <SCORE.norm>
-0.56665

>  <RMSD>
9.772

$$$$
2oe8_lig
 OpenBabel11021811463D
libRbt.so/2013.1/901 2013/11/27
 37 40  0  0  0  0  0  0  0  0999 V2000
   21.9694   -3.0312   48.2709 C   0  0  1  0  0  0  0  0  0  0  0  0
   23.0647   -3.6266   49.2349 C   0  0  1  0  0  0  0  0  0  0  0  0
   22.5103   -3.6676   50.6742 C   0  0  0  0  0  0  0  0  0  0  0  0
   22.1669   -2.1917   51.0481 C   0  0  1  0  0  0  0  0  0  0  0  0
   21.0606   -1.5611   50.0558 C   0  0  1  0  0  0  0  0  0  0  0  0
   20.7264   -0.0824   50.4103 C   0  0  1  0  0  0  0  0  0  0  0  0
   20.2163   -0.0607   51.9090 C   0  0  1  0  0  0  0  0  0  0  0  0
   21.3039   -0.7237   52.8242 C   0  0  2  0  0  0  0  0  0  0  0  0
   18.5489    1.9599   52.0923 C   0  0  0  0  0  0  0  0  0  0  0  0
   23.4484   -5.0083   48.8038 N   0  0  0  0  0  0  0  0  0  0  0  0
   19.9056    1.3617   52.3668 N   0  0  0  0  0  0  0  0  0  0  0  0
   20.7888   -3.8433   48.2448 O   0  0  0  0  0  0  0  0  0  0  0  0
   21.5681   -1.6530   48.6798 O   0  0  0  0  0  0  0  0  0  0  0  0
   21.6491   -2.1153   52.4094 O   0  0  0  0  0  0  0  0  0  0  0  0
   21.9253    0.6737   50.2320 O   0  0  0  0  0  0  0  0  0  0  0  0
   20.8346   -0.7621   54.1224 O   0  0  0  0  0  0  0  0  0  0  0  0
   21.4820    0.1840   54.9899 C   0  0  2  0  0  0  0  0  0  0  0  0
   21.4309   -0.3098   56.4560 C   0  0  1  0  0  0  0  0  0  0  0  0
   19.9717   -0.3446   57.0052 C   0  0  2  0  0  0  0  0  0  0  0  0
   19.3514    1.0806   56.9092 C   0  0  1  0  0  0  0  0  0  0  0  0
   19.3632    1.4862   55.3767 C   0  0  1  0  0  0  0  0  0  0  0  0
   18.7901    2.8824   55.1507 C   0  0  0  0  0  0  0  0  0  0  0  0
   17.9563    1.0501   57.4339 N   0  0  0  0  0  0  0  0  0  0  0  0
   20.7882    1.4944   54.8900 O   0  0  0  0  0  0  0  0  0  0  0  0
   22.0512   -1.6094   56.4905 O   0  0  0  0  0  0  0  0  0  0  0  0
   20.0136   -0.7563   58.3554 O   0  0  0  0  0  0  0  0  0  0  0  0
   17.4391    2.8998   55.5295 O   0  0  0  0  0  0  0  0  0  0  0  0
   19.7390   -3.2920   47.4768 C   0  0  1  0  0  0  0  0  0  0  0  0
   20.1060   -3.4506   45.9662 C   0  0  1  0  0  0  0  0  0  0  0  0
   18.9715   -2.8185   45.1082 C   0  0  2  0  0  0  0  0  0  0  0  0
   17.6045   -3.5114   45.3995 C   0  0  1  0  0  0  0  0  0  0  0  0
   17.2313   -3.3662   46.9241 C   0  0  0  0  0  0  0  0  0  0  0  0
   18.3858   -4.0165   47.7939 C   0  0  2  0  0  0  0  0  0  0  0  0
   16.5360   -2.8863   44.5718 N   0  0  0  0  0  0  0  0  0  0  0  0
   18.0256   -3.8792   49.2231 N   0  0  0  0  0  0  0  0  0  0  0  0
   21.3450   -2.7758   45.6788 O   0  0  0  0  0  0  0  0  0  0  0  0
   19.3256   -2.9820   43.7448 O   0  0  0  0  0  0  0  0  0  0  0  0
  1  2  1  0  0  0  0
  1 12  1  1  0  0  0
  1 13  1  0  0  0  0
  2  3  1  0  0  0  0
  2 10  1  6  0  0  0
  4  3  1  6  0  0  0
  4  5  1  0  0  0  0
  4 14  1  0  0  0  0
  5  6  1  0  0  0  0
  5 13  1  6  0  0  0
  6  7  1  0  0  0  0
  6 15  1  1  0  0  0
  7  8  1  0  0  0  0
  7 11  1  1  0  0  0
  8 14  1  0  0  0  0
  8 16  1  1  0  0  0
  9 11  1  0  0  0  0
 17 16  1  6  0  0  0
 17 18  1  0  0  0  0
 17 24  1  0  0  0  0
 18 19  1  0  0  0  0
 18 25  1  6  0  0  0
 19 20  1  0  0  0  0
 19 26  1  1  0  0  0
 20 21  1  0  0  0  0
 20 23  1  6  0  0  0
 21 22  1  1  0  0  0
 21 24  1  0  0  0  0
 22 27  1  0  0  0  0
 28 12  1  1  0  0  0
 28 29  1  0  0  0  0
 28 33  1  0  0  0  0
 29 30  1  0  0  0  0
 29 36  1  1  0  0  0
 30 31  1  0  0  0  0
 30 37  1  6  0  0  0
 31 32  1  0  0  0  0
 31 34  1  6  0  0  0
 32 33  1  0  0  0  0
 33 35  1  1  0  0  0
M  END
>  <CHROM.1>
175.21094831,85.91865037,-107.25614412,-153.86001393,-63.53890806,73.77832506
20.21629525,-1.30563808,51.16120508,-1.59631694,-0.56146653,1.16127606

>  <Name>
2oe8_lig

>  <RI>
0

>  <Rbt.Current_Directory>
/home/itssahil/PROJECTS/Mol_Feturizer/New_Systems/rnas/2oe8

>  <Rbt.Executable>
rbdock ($Id: //depot/dev/client3/rdock/2013.1/src/exe/rbdock.cxx#4 $)

>  <Rbt.Library>
libRbt.so (2013.1, Build901 2013/11/27)

>  <Rbt.Parameter_File>
/export/apps/rDock/src/rDock_2013.1_src/data/scripts/dock_solv.prm

>  <Rbt.Receptor>
prm/pocket_docking_3.prm

>  <SCORE>
-20.109

>  <SCORE.INTER>
-19.1869

>  <SCORE.INTER.CONST>
1

>  <SCORE.INTER.POLAR>
-2.31527

>  <SCORE.INTER.ROT>
6

>  <SCORE.INTER.SOLV>
17.6462

>  <SCORE.INTER.VDW>
-18.5557

>  <SCORE.INTER.norm>
-0.518564

>  <SCORE.INTRA>
-1.72574

>  <SCORE.INTRA.DIHEDRAL>
-5.56897

>  <SCORE.INTRA.DIHEDRAL.0>
16.4056

>  <SCORE.INTRA.POLAR>
0

>  <SCORE.INTRA.POLAR.0>
0

>  <SCORE.INTRA.REPUL>
0

>  <SCORE.INTRA.REPUL.0>
0

>  <SCORE.INTRA.SOLV>
-0.300744

>  <SCORE.INTRA.SOLV.lig_0>
-90.9627

>  <SCORE.INTRA.VDW>
1.20912

>  <SCORE.INTRA.VDW.0>
-3.28744

>  <SCORE.INTRA.norm>
-0.0466416

>  <SCORE.RESTR>
0.803641

>  <SCORE.RESTR.CAVITY>
0.803641

>  <SCORE.RESTR.norm>
0.02172

>  <SCORE.SYSTEM>
0

>  <SCORE.SYSTEM.CONST>
0

>  <SCORE.SYSTEM.DIHEDRAL>
0

>  <SCORE.SYSTEM.SOLV>
0

>  <SCORE.SYSTEM.norm>
0

>  <SCORE.heavy>
37

>  <SCORE.norm>
-0.543486

>  <RMSD>
9.774

$$$$
2oe8_lig
 OpenBabel11021811463D
libRbt.so/2013.1/901 2013/11/27
 37 40  0  0  0  0  0  0  0  0999 V2000
   17.2296   -5.1647   47.0926 C   0  0  1  0  0  0  0  0  0  0  0  0
   16.8808   -3.7515   46.4887 C   0  0  1  0  0  0  0  0  0  0  0  0
   18.0983   -2.8161   46.6419 C   0  0  0  0  0  0  0  0  0  0  0  0
   18.3834   -2.7241   48.1736 C   0  0  1  0  0  0  0  0  0  0  0  0
   18.7223   -4.1681   48.8107 C   0  0  1  0  0  0  0  0  0  0  0  0
   18.9893   -4.0879   50.3425 C   0  0  1  0  0  0  0  0  0  0  0  0
   20.1915   -3.0807   50.5591 C   0  0  1  0  0  0  0  0  0  0  0  0
   19.8330   -1.7110   49.8843 C   0  0  2  0  0  0  0  0  0  0  0  0
   21.9315   -2.8665   52.5145 C   0  0  0  0  0  0  0  0  0  0  0  0
   16.5193   -3.8741   45.0407 N   0  0  0  0  0  0  0  0  0  0  0  0
   20.4996   -2.8984   52.0428 N   0  0  0  0  0  0  0  0  0  0  0  0
   18.3239   -5.7805   46.4016 O   0  0  0  0  0  0  0  0  0  0  0  0
   17.5950   -5.0702   48.5366 O   0  0  0  0  0  0  0  0  0  0  0  0
   19.5139   -1.8396   48.4319 O   0  0  0  0  0  0  0  0  0  0  0  0
   17.7816   -3.6346   50.9563 O   0  0  0  0  0  0  0  0  0  0  0  0
   20.9053   -0.8511   50.0181 O   0  0  0  0  0  0  0  0  0  0  0  0
   20.5244    0.5351   50.0373 C   0  0  2  0  0  0  0  0  0  0  0  0
   21.7587    1.4270   50.3138 C   0  0  1  0  0  0  0  0  0  0  0  0
   22.3267    1.2017   51.7487 C   0  0  2  0  0  0  0  0  0  0  0  0
   21.2146    1.5046   52.7960 C   0  0  1  0  0  0  0  0  0  0  0  0
   20.0206    0.5038   52.5030 C   0  0  1  0  0  0  0  0  0  0  0  0
   18.8514    0.7131   53.4611 C   0  0  0  0  0  0  0  0  0  0  0  0
   21.7552    1.2901   54.1687 N   0  0  0  0  0  0  0  0  0  0  0  0
   19.5149    0.7507   51.1063 O   0  0  0  0  0  0  0  0  0  0  0  0
   22.7344    1.1335   49.2955 O   0  0  0  0  0  0  0  0  0  0  0  0
   23.4145    2.0816   51.9405 O   0  0  0  0  0  0  0  0  0  0  0  0
   18.3301    2.0042   53.2871 O   0  0  0  0  0  0  0  0  0  0  0  0
   18.6705   -7.0524   46.9095 C   0  0  1  0  0  0  0  0  0  0  0  0
   17.6096   -8.0832   46.4059 C   0  0  1  0  0  0  0  0  0  0  0  0
   17.9618   -9.4847   46.9844 C   0  0  2  0  0  0  0  0  0  0  0  0
   19.3888   -9.9270   46.5353 C   0  0  1  0  0  0  0  0  0  0  0  0
   20.4651   -8.8868   47.0295 C   0  0  0  0  0  0  0  0  0  0  0  0
   20.1064   -7.4627   46.4333 C   0  0  2  0  0  0  0  0  0  0  0  0
   19.7040  -11.2663   47.1052 N   0  0  0  0  0  0  0  0  0  0  0  0
   21.1236   -6.4933   46.8989 N   0  0  0  0  0  0  0  0  0  0  0  0
   16.2941   -7.7063   46.8537 O   0  0  0  0  0  0  0  0  0  0  0  0
   16.9897  -10.4002   46.5074 O   0  0  0  0  0  0  0  0  0  0  0  0
  1  2  1  0  0  0  0
  1 12  1  6  0  0  0
  1 13  1  0  0  0  0
  2  3  1  0  0  0  0
  2 10  1  6  0  0  0
  4  3  1  6  0  0  0
  4  5  1  0  0  0  0
  4 14  1  0  0  0  0
  5  6  1  0  0  0  0
  5 13  1  1  0  0  0
  6  7  1  0  0  0  0
  6 15  1  1  0  0  0
  7  8  1  0  0  0  0
  7 11  1  1  0  0  0
  8 14  1  0  0  0  0
  8 16  1  6  0  0  0
  9 11  1  0  0  0  0
 17 16  1  1  0  0  0
 17 18  1  0  0  0  0
 17 24  1  0  0  0  0
 18 19  1  0  0  0  0
 18 25  1  6  0  0  0
 19 20  1  0  0  0  0
 19 26  1  1  0  0  0
 20 21  1  0  0  0  0
 20 23  1  1  0  0  0
 21 22  1  1  0  0  0
 21 24  1  0  0  0  0
 22 27  1  0  0  0  0
 28 12  1  6  0  0  0
 28 29  1  0  0  0  0
 28 33  1  0  0  0  0
 29 30  1  0  0  0  0
 29 36  1  1  0  0  0
 30 31  1  0  0  0  0
 30 37  1  6  0  0  0
 31 32  1  0  0  0  0
 31 34  1  1  0  0  0
 32 33  1  0  0  0  0
 33 35  1  1  0  0  0
M  END
>  <CHROM.1>
-179.92778398,137.60461633,-152.19737221,175.02813345,62.56661040,76.41806948
19.46025456,-3.41829289,49.21902733,1.87848779,0.60620022,-2.79467464

>  <Name>
2oe8_lig

>  <RI>
0

>  <Rbt.Current_Directory>
/home/itssahil/PROJECTS/Mol_Feturizer/New_Systems/rnas/2oe8

>  <Rbt.Executable>
rbdock ($Id: //depot/dev/client3/rdock/2013.1/src/exe/rbdock.cxx#4 $)

>  <Rbt.Library>
libRbt.so (2013.1, Build901 2013/11/27)

>  <Rbt.Parameter_File>
/export/apps/rDock/src/rDock_2013.1_src/data/scripts/dock_solv.prm

>  <Rbt.Receptor>
prm/pocket_docking_7.prm

>  <SCORE>
-26.0576

>  <SCORE.INTER>
-20.2273

>  <SCORE.INTER.CONST>
1

>  <SCORE.INTER.POLAR>
-1.24277

>  <SCORE.INTER.ROT>
6

>  <SCORE.INTER.SOLV>
13.6713

>  <SCORE.INTER.VDW>
-21.4994

>  <SCORE.INTER.norm>
-0.546683

>  <SCORE.INTRA>
-5.8303

>  <SCORE.INTRA.DIHEDRAL>
-10.8245

>  <SCORE.INTRA.DIHEDRAL.0>
16.4056

>  <SCORE.INTRA.POLAR>
0

>  <SCORE.INTRA.POLAR.0>
0

>  <SCORE.INTRA.REPUL>
0

>  <SCORE.INTRA.REPUL.0>
0

>  <SCORE.INTRA.SOLV>
-1.46016

>  <SCORE.INTRA.SOLV.lig_0>
-90.9627

>  <SCORE.INTRA.VDW>
0.31202

>  <SCORE.INTRA.VDW.0>
-3.28744

>  <SCORE.INTRA.norm>
-0.157576

>  <SCORE.RESTR>
0

>  <SCORE.RESTR.CAVITY>
0

>  <SCORE.RESTR.norm>
0

>  <SCORE.SYSTEM>
0

>  <SCORE.SYSTEM.CONST>
0

>  <SCORE.SYSTEM.DIHEDRAL>
0

>  <SCORE.SYSTEM.SOLV>
0

>  <SCORE.SYSTEM.norm>
0

>  <SCORE.heavy>
37

>  <SCORE.norm>
-0.704259

>  <RMSD>
9.775

$$$$
2oe8_lig
 OpenBabel11021811463D
libRbt.so/2013.1/901 2013/11/27
 37 40  0  0  0  0  0  0  0  0999 V2000
   24.8760   -3.3020   49.2667 C   0  0  1  0  0  0  0  0  0  0  0  0
   25.6537   -2.1801   50.0542 C   0  0  1  0  0  0  0  0  0  0  0  0
   25.1549   -2.1415   51.5137 C   0  0  0  0  0  0  0  0  0  0  0  0
   23.6275   -1.8290   51.4411 C   0  0  1  0  0  0  0  0  0  0  0  0
   22.8200   -2.9597   50.6192 C   0  0  1  0  0  0  0  0  0  0  0  0
   21.2981   -2.6454   50.5257 C   0  0  1  0  0  0  0  0  0  0  0  0
   20.7497   -2.5261   52.0062 C   0  0  1  0  0  0  0  0  0  0  0  0
   21.5943   -1.4507   52.7743 C   0  0  2  0  0  0  0  0  0  0  0  0
   18.8082   -0.8335   51.4938 C   0  0  0  0  0  0  0  0  0  0  0  0
   27.1267   -2.4486   50.0326 N   0  0  0  0  0  0  0  0  0  0  0  0
   19.2653   -2.1711   52.0191 N   0  0  0  0  0  0  0  0  0  0  0  0
   25.1094   -4.6006   49.8264 O   0  0  0  0  0  0  0  0  0  0  0  0
   23.4035   -3.0582   49.2740 O   0  0  0  0  0  0  0  0  0  0  0  0
   23.0566   -1.7499   52.7809 O   0  0  0  0  0  0  0  0  0  0  0  0
   21.1651   -1.4248   49.7956 O   0  0  0  0  0  0  0  0  0  0  0  0
   21.1585   -1.3896   54.0833 O   0  0  0  0  0  0  0  0  0  0  0  0
   21.6807   -0.2612   54.8050 C   0  0  2  0  0  0  0  0  0  0  0  0
   21.4338   -0.4341   56.3232 C   0  0  1  0  0  0  0  0  0  0  0  0
   19.9140   -0.3972   56.6709 C   0  0  2  0  0  0  0  0  0  0  0  0
   19.3088    0.9551   56.1911 C   0  0  1  0  0  0  0  0  0  0  0  0
   19.5259    1.0265   54.6224 C   0  0  1  0  0  0  0  0  0  0  0  0
   18.9851    2.3244   54.0292 C   0  0  0  0  0  0  0  0  0  0  0  0
   17.8558    0.9929   56.5227 N   0  0  0  0  0  0  0  0  0  0  0  0
   21.0034    0.9758   54.3364 O   0  0  0  0  0  0  0  0  0  0  0  0
   22.0469   -1.6767   56.7166 O   0  0  0  0  0  0  0  0  0  0  0  0
   19.7745   -0.5116   58.0716 O   0  0  0  0  0  0  0  0  0  0  0  0
   19.1398    2.3008   52.6347 O   0  0  0  0  0  0  0  0  0  0  0  0
   24.9497   -5.6541   48.8988 C   0  0  1  0  0  0  0  0  0  0  0  0
   26.1088   -6.6782   49.1213 C   0  0  1  0  0  0  0  0  0  0  0  0
   25.9632   -7.8295   48.0839 C   0  0  2  0  0  0  0  0  0  0  0  0
   24.5849   -8.5437   48.2382 C   0  0  1  0  0  0  0  0  0  0  0  0
   23.4090   -7.5155   48.0264 C   0  0  0  0  0  0  0  0  0  0  0  0
   23.5573   -6.3483   49.0884 C   0  0  2  0  0  0  0  0  0  0  0  0
   24.4677   -9.6359   47.2327 N   0  0  0  0  0  0  0  0  0  0  0  0
   22.4477   -5.3899   48.8851 N   0  0  0  0  0  0  0  0  0  0  0  0
   27.3849   -6.0373   48.9370 O   0  0  0  0  0  0  0  0  0  0  0  0
   27.0209   -8.7462   48.3120 O   0  0  0  0  0  0  0  0  0  0  0  0
  1  2  1  0  0  0  0
  1 12  1  1  0  0  0
  1 13  1  0  0  0  0
  2  3  1  0  0  0  0
  2 10  1  1  0  0  0
  4  3  1  1  0  0  0
  4  5  1  0  0  0  0
  4 14  1  0  0  0  0
  5  6  1  0  0  0  0
  5 13  1  6  0  0  0
  6  7  1  0  0  0  0
  6 15  1  6  0  0  0
  7  8  1  0  0  0  0
  7 11  1  6  0  0  0
  8 14  1  0  0  0  0
  8 16  1  1  0  0  0
  9 11  1  0  0  0  0
 17 16  1  6  0  0  0
 17 18  1  0  0  0  0
 17 24  1  0  0  0  0
 18 19  1  0  0  0  0
 18 25  1  6  0  0  0
 19 20  1  0  0  0  0
 19 26  1  1  0  0  0
 20 21  1  0  0  0  0
 20 23  1  6  0  0  0
 21 22  1  1  0  0  0
 21 24  1  0  0  0  0
 22 27  1  0  0  0  0
 28 12  1  1  0  0  0
 28 29  1  0  0  0  0
 28 33  1  0  0  0  0
 29 30  1  0  0  0  0
 29 36  1  6  0  0  0
 30 31  1  0  0  0  0
 30 37  1  1  0  0  0
 31 32  1  0  0  0  0
 31 34  1  6  0  0  0
 32 33  1  0  0  0  0
 33 35  1  6  0  0  0
M  END
>  <CHROM.1>
-154.22371386,-65.56317901,-168.50107058,-166.58774510,-176.88320207,137.84766268
22.57182826,-2.77623476,51.73237579,-1.01354145,-0.36503177,0.96711982

>  <Name>
2oe8_lig

>  <RI>
0

>  <Rbt.Current_Directory>
/home/itssahil/PROJECTS/Mol_Feturizer/New_Systems/rnas/2oe8

>  <Rbt.Executable>
rbdock ($Id: //depot/dev/client3/rdock/2013.1/src/exe/rbdock.cxx#4 $)

>  <Rbt.Library>
libRbt.so (2013.1, Build901 2013/11/27)

>  <Rbt.Parameter_File>
/export/apps/rDock/src/rDock_2013.1_src/data/scripts/dock_solv.prm

>  <Rbt.Receptor>
prm/pocket_docking_7.prm

>  <SCORE>
-21.0441

>  <SCORE.INTER>
-18.6574

>  <SCORE.INTER.CONST>
1

>  <SCORE.INTER.POLAR>
-1.84485

>  <SCORE.INTER.ROT>
6

>  <SCORE.INTER.SOLV>
14.5364

>  <SCORE.INTER.VDW>
-18.7342

>  <SCORE.INTER.norm>
-0.504253

>  <SCORE.INTRA>
-2.38674

>  <SCORE.INTRA.DIHEDRAL>
-6.27477

>  <SCORE.INTRA.DIHEDRAL.0>
16.4056

>  <SCORE.INTRA.POLAR>
0

>  <SCORE.INTRA.POLAR.0>
0

>  <SCORE.INTRA.REPUL>
0

>  <SCORE.INTRA.REPUL.0>
0

>  <SCORE.INTRA.SOLV>
0.525296

>  <SCORE.INTRA.SOLV.lig_0>
-90.9627

>  <SCORE.INTRA.VDW>
0.488001

>  <SCORE.INTRA.VDW.0>
-3.28744

>  <SCORE.INTRA.norm>
-0.0645064

>  <SCORE.RESTR>
0

>  <SCORE.RESTR.CAVITY>
0

>  <SCORE.RESTR.norm>
0

>  <SCORE.SYSTEM>
0

>  <SCORE.SYSTEM.CONST>
0

>  <SCORE.SYSTEM.DIHEDRAL>
0

>  <SCORE.SYSTEM.SOLV>
0

>  <SCORE.SYSTEM.norm>
0

>  <SCORE.heavy>
37

>  <SCORE.norm>
-0.56876

>  <RMSD>
9.776

$$$$
2oe8_lig
 OpenBabel11021811463D
libRbt.so/2013.1/901 2013/11/27
 37 40  0  0  0  0  0  0  0  0999 V2000
   21.9172   -3.0239   48.2486 C   0  0  1  0  0  0  0  0  0  0  0  0
   23.0257   -3.6206   49.1965 C   0  0  1  0  0  0  0  0  0  0  0  0
   22.4890   -3.6698   50.6422 C   0  0  0  0  0  0  0  0  0  0  0  0
   22.1460   -2.1966   51.0270 C   0  0  1  0  0  0  0  0  0  0  0  0
   21.0260   -1.5646   50.0512 C   0  0  1  0  0  0  0  0  0  0  0  0
   20.6920   -0.0885   50.4165 C   0  0  1  0  0  0  0  0  0  0  0  0
   20.2000   -0.0752   51.9214 C   0  0  1  0  0  0  0  0  0  0  0  0
   21.3005   -0.7393   52.8202 C   0  0  2  0  0  0  0  0  0  0  0  0
   18.5502    1.9618   52.0813 C   0  0  0  0  0  0  0  0  0  0  0  0
   23.4081   -4.9992   48.7544 N   0  0  0  0  0  0  0  0  0  0  0  0
   19.8909    1.3442   52.3895 N   0  0  0  0  0  0  0  0  0  0  0  0
   20.7386   -3.8393   48.2331 O   0  0  0  0  0  0  0  0  0  0  0  0
   21.5170   -1.6488   48.6687 O   0  0  0  0  0  0  0  0  0  0  0  0
   21.6446   -2.1280   52.3948 O   0  0  0  0  0  0  0  0  0  0  0  0
   21.8865    0.6718   50.2273 O   0  0  0  0  0  0  0  0  0  0  0  0
   20.8471   -0.7850   54.1239 O   0  0  0  0  0  0  0  0  0  0  0  0
   21.4878    0.1730   54.9833 C   0  0  2  0  0  0  0  0  0  0  0  0
   21.4637   -0.3212   56.4499 C   0  0  1  0  0  0  0  0  0  0  0  0
   20.0123   -0.3823   57.0170 C   0  0  2  0  0  0  0  0  0  0  0  0
   19.3650    1.0314   56.9285 C   0  0  1  0  0  0  0  0  0  0  0  0
   19.3506    1.4366   55.3959 C   0  0  1  0  0  0  0  0  0  0  0  0
   18.7495    2.8221   55.1768 C   0  0  0  0  0  0  0  0  0  0  0  0
   17.9773    0.9756   57.4703 N   0  0  0  0  0  0  0  0  0  0  0  0
   20.7691    1.4705   54.8918 O   0  0  0  0  0  0  0  0  0  0  0  0
   22.1079   -1.6093   56.4770 O   0  0  0  0  0  0  0  0  0  0  0  0
   20.0782   -0.7927   58.3666 O   0  0  0  0  0  0  0  0  0  0  0  0
   17.3903    2.8021   55.5251 O   0  0  0  0  0  0  0  0  0  0  0  0
   19.6840   -3.2958   47.4662 C   0  0  1  0  0  0  0  0  0  0  0  0
   20.0631   -3.4261   45.9559 C   0  0  1  0  0  0  0  0  0  0  0  0
   18.9229   -2.8020   45.0996 C   0  0  2  0  0  0  0  0  0  0  0  0
   17.5667   -3.5232   45.3722 C   0  0  1  0  0  0  0  0  0  0  0  0
   17.1815   -3.4066   46.8962 C   0  0  0  0  0  0  0  0  0  0  0  0
   18.3419   -4.0486   47.7641 C   0  0  2  0  0  0  0  0  0  0  0  0
   16.4924   -2.9053   44.5466 N   0  0  0  0  0  0  0  0  0  0  0  0
   17.9705   -3.9384   49.1928 N   0  0  0  0  0  0  0  0  0  0  0  0
   21.2917   -2.7252   45.6862 O   0  0  0  0  0  0  0  0  0  0  0  0
   19.2884   -2.9395   43.7364 O   0  0  0  0  0  0  0  0  0  0  0  0
  1  2  1  0  0  0  0
  1 12  1  1  0  0  0
  1 13  1  0  0  0  0
  2  3  1  0  0  0  0
  2 10  1  6  0  0  0
  4  3  1  6  0  0  0
  4  5  1  0  0  0  0
  4 14  1  0  0  0  0
  5  6  1  0  0  0  0
  5 13  1  6  0  0  0
  6  7  1  0  0  0  0
  6 15  1  1  0  0  0
  7  8  1  0  0  0  0
  7 11  1  1  0  0  0
  8 14  1  0  0  0  0
  8 16  1  1  0  0  0
  9 11  1  0  0  0  0
 17 16  1  6  0  0  0
 17 18  1  0  0  0  0
 17 24  1  0  0  0  0
 18 19  1  0  0  0  0
 18 25  1  6  0  0  0
 19 20  1  0  0  0  0
 19 26  1  1  0  0  0
 20 21  1  0  0  0  0
 20 23  1  6  0  0  0
 21 22  1  1  0  0  0
 21 24  1  0  0  0  0
 22 27  1  0  0  0  0
 28 12  1  1  0  0  0
 28 29  1  0  0  0  0
 28 33  1  0  0  0  0
 29 30  1  0  0  0  0
 29 36  1  1  0  0  0
 30 31  1  0  0  0  0
 30 37  1  6  0  0  0
 31 32  1  0  0  0  0
 31 34  1  6  0  0  0
 32 33  1  0  0  0  0
 33 35  1  1  0  0  0
M  END
>  <CHROM.1>
175.98431419,83.24085737,-106.35759783,-153.80671161,-65.72363742,72.17646516
20.19597444,-1.32039990,51.15436178,-1.60441463,-0.55352212,1.16253719

>  <Name>
2oe8_lig

>  <RI>
0

>  <Rbt.Current_Directory>
/home/itssahil/PROJECTS/Mol_Feturizer/New_Systems/rnas/2oe8

>  <Rbt.Executable>
rbdock ($Id: //depot/dev/client3/rdock/2013.1/src/exe/rbdock.cxx#4 $)

>  <Rbt.Library>
libRbt.so (2013.1, Build901 2013/11/27)

>  <Rbt.Parameter_File>
/export/apps/rDock/src/rDock_2013.1_src/data/scripts/dock_solv.prm

>  <Rbt.Receptor>
prm/pocket_docking_4.prm

>  <SCORE>
-20.945

>  <SCORE.INTER>
-19.1287

>  <SCORE.INTER.CONST>
1

>  <SCORE.INTER.POLAR>
-2.33286

>  <SCORE.INTER.ROT>
6

>  <SCORE.INTER.SOLV>
17.7939

>  <SCORE.INTER.VDW>
-18.5076

>  <SCORE.INTER.norm>
-0.516992

>  <SCORE.INTRA>
-1.81634

>  <SCORE.INTRA.DIHEDRAL>
-5.89606

>  <SCORE.INTRA.DIHEDRAL.0>
16.4056

>  <SCORE.INTRA.POLAR>
0

>  <SCORE.INTRA.POLAR.0>
0

>  <SCORE.INTRA.REPUL>
0

>  <SCORE.INTRA.REPUL.0>
0

>  <SCORE.INTRA.SOLV>
-0.353613

>  <SCORE.INTRA.SOLV.lig_0>
-90.9627

>  <SCORE.INTRA.VDW>
1.3085

>  <SCORE.INTRA.VDW.0>
-3.28744

>  <SCORE.INTRA.norm>
-0.0490903

>  <SCORE.RESTR>
0

>  <SCORE.RESTR.CAVITY>
0

>  <SCORE.RESTR.norm>
0

>  <SCORE.SYSTEM>
0

>  <SCORE.SYSTEM.CONST>
0

>  <SCORE.SYSTEM.DIHEDRAL>
0

>  <SCORE.SYSTEM.SOLV>
0

>  <SCORE.SYSTEM.norm>
0

>  <SCORE.heavy>
37

>  <SCORE.norm>
-0.566082

>  <RMSD>
9.777

$$$$
2oe8_lig
 OpenBabel11021811463D
libRbt.so/2013.1/901 2013/11/27
 37 40  0  0  0  0  0  0  0  0999 V2000
   20.3888   -3.6806   48.7390 C   0  0  1  0  0  0  0  0  0  0  0  0
   19.2624   -3.5913   49.8374 C   0  0  1  0  0  0  0  0  0  0  0  0
   19.1255   -2.1292   50.3107 C   0  0  0  0  0  0  0  0  0  0  0  0
   20.5179   -1.7301   50.8919 C   0  0  1  0  0  0  0  0  0  0  0  0
   21.6862   -1.8367   49.7829 C   0  0  1  0  0  0  0  0  0  0  0  0
   23.0819   -1.4586   50.3598 C   0  0  1  0  0  0  0  0  0  0  0  0
   22.9745    0.0167   50.9247 C   0  0  1  0  0  0  0  0  0  0  0  0
   21.7990    0.0781   51.9612 C   0  0  2  0  0  0  0  0  0  0  0  0
   24.7277   -0.1260   52.8746 C   0  0  0  0  0  0  0  0  0  0  0  0
   17.9535   -4.0669   49.2871 N   0  0  0  0  0  0  0  0  0  0  0  0
   24.2895    0.4634   51.5577 N   0  0  0  0  0  0  0  0  0  0  0  0
   20.0677   -2.8926   47.5857 O   0  0  0  0  0  0  0  0  0  0  0  0
   21.7052   -3.2108   49.2624 O   0  0  0  0  0  0  0  0  0  0  0  0
   20.4913   -0.3597   51.3902 O   0  0  0  0  0  0  0  0  0  0  0  0
   23.3872   -2.4113   51.3796 O   0  0  0  0  0  0  0  0  0  0  0  0
   21.6634    1.3775   52.4087 O   0  0  0  0  0  0  0  0  0  0  0  0
   20.6920    1.5194   53.4590 C   0  0  2  0  0  0  0  0  0  0  0  0
   19.4903    2.3625   52.9683 C   0  0  1  0  0  0  0  0  0  0  0  0
   19.9002    3.8375   52.6711 C   0  0  2  0  0  0  0  0  0  0  0  0
   20.4979    4.4755   53.9598 C   0  0  1  0  0  0  0  0  0  0  0  0
   21.7663    3.6111   54.3565 C   0  0  1  0  0  0  0  0  0  0  0  0
   22.4375    4.1301   55.6249 C   0  0  0  0  0  0  0  0  0  0  0  0
   20.8903    5.8859   53.6783 N   0  0  0  0  0  0  0  0  0  0  0  0
   21.3233    2.1966   54.6215 O   0  0  0  0  0  0  0  0  0  0  0  0
   18.9558    1.7060   51.8029 O   0  0  0  0  0  0  0  0  0  0  0  0
   18.7461    4.5500   52.2776 O   0  0  0  0  0  0  0  0  0  0  0  0
   23.5188    3.2988   55.9549 O   0  0  0  0  0  0  0  0  0  0  0  0
   19.3076   -3.5876   46.6188 C   0  0  1  0  0  0  0  0  0  0  0  0
   18.1218   -2.6694   46.1800 C   0  0  1  0  0  0  0  0  0  0  0  0
   17.2570   -3.4356   45.1369 C   0  0  2  0  0  0  0  0  0  0  0  0
   18.1111   -3.8328   43.8933 C   0  0  1  0  0  0  0  0  0  0  0  0
   19.3169   -4.7504   44.3280 C   0  0  0  0  0  0  0  0  0  0  0  0
   20.1981   -3.9644   45.3852 C   0  0  2  0  0  0  0  0  0  0  0  0
   17.2640   -4.5682   42.9140 N   0  0  0  0  0  0  0  0  0  0  0  0
   21.3295   -4.8313   45.7849 N   0  0  0  0  0  0  0  0  0  0  0  0
   17.3021   -2.3340   47.3153 O   0  0  0  0  0  0  0  0  0  0  0  0
   16.1946   -2.5792   44.7512 O   0  0  0  0  0  0  0  0  0  0  0  0
  1  2  1  0  0  0  0
  1 12  1  6  0  0  0
  1 13  1  0  0  0  0
  2  3  1  0  0  0  0
  2 10  1  6  0  0  0
  4  3  1  6  0  0  0
  4  5  1  0  0  0  0
  4 14  1  0  0  0  0
  5  6  1  0  0  0  0
  5 13  1  1  0  0  0
  6  7  1  0  0  0  0
  6 15  1  1  0  0  0
  7  8  1  0  0  0  0
  7 11  1  1  0  0  0
  8 14  1  0  0  0  0
  8 16  1  6  0  0  0
  9 11  1  0  0  0  0
 17 16  1  6  0  0  0
 17 18  1  0  0  0  0
 17 24  1  0  0  0  0
 18 19  1  0  0  0  0
 18 25  1  6  0  0  0
 19 20  1  0  0  0  0
 19 26  1  1  0  0  0
 20 21  1  0  0  0  0
 20 23  1  6  0  0  0
 21 22  1  1  0  0  0
 21 24  1  0  0  0  0
 22 27  1  0  0  0  0
 28 12  1  1  0  0  0
 28 29  1  0  0  0  0
 28 33  1  0  0  0  0
 29 30  1  0  0  0  0
 29 36  1  1  0  0  0
 30 31  1  0  0  0  0
 30 37  1  6  0  0  0
 31 32  1  0  0  0  0
 31 34  1  6  0  0  0
 32 33  1  0  0  0  0
 33 35  1  1  0  0  0
M  END
>  <CHROM.1>
-88.13188670,-71.76440788,-174.50112822,-113.88452671,177.74549620,133.04522981
20.43297997,-0.63201005,50.10402506,-1.88985557,-0.51377917,0.71466620

>  <Name>
2oe8_lig

>  <RI>
0

>  <Rbt.Current_Directory>
/home/itssahil/PROJECTS/Mol_Feturizer/New_Systems/rnas/2oe8

>  <Rbt.Executable>
rbdock ($Id: //depot/dev/client3/rdock/2013.1/src/exe/rbdock.cxx#4 $)

>  <Rbt.Library>
libRbt.so (2013.1, Build901 2013/11/27)

>  <Rbt.Parameter_File>
/export/apps/rDock/src/rDock_2013.1_src/data/scripts/dock_solv.prm

>  <Rbt.Receptor>
prm/pocket_docking_7.prm

>  <SCORE>
-16.8295

>  <SCORE.INTER>
-18.045

>  <SCORE.INTER.CONST>
1

>  <SCORE.INTER.POLAR>
-1.99626

>  <SCORE.INTER.ROT>
6

>  <SCORE.INTER.SOLV>
18.6702

>  <SCORE.INTER.VDW>
-19.1992

>  <SCORE.INTER.norm>
-0.487702

>  <SCORE.INTRA>
1.21541

>  <SCORE.INTRA.DIHEDRAL>
0.56664

>  <SCORE.INTRA.DIHEDRAL.0>
16.4056

>  <SCORE.INTRA.POLAR>
0

>  <SCORE.INTRA.POLAR.0>
0

>  <SCORE.INTRA.REPUL>
0

>  <SCORE.INTRA.REPUL.0>
0

>  <SCORE.INTRA.SOLV>
0.41215

>  <SCORE.INTRA.SOLV.lig_0>
-90.9627

>  <SCORE.INTRA.VDW>
0.726019

>  <SCORE.INTRA.VDW.0>
-3.28744

>  <SCORE.INTRA.norm>
0.032849

>  <SCORE.RESTR>
0

>  <SCORE.RESTR.CAVITY>
0

>  <SCORE.RESTR.norm>
0

>  <SCORE.SYSTEM>
0

>  <SCORE.SYSTEM.CONST>
0

>  <SCORE.SYSTEM.DIHEDRAL>
0

>  <SCORE.SYSTEM.SOLV>
0

>  <SCORE.SYSTEM.norm>
0

>  <SCORE.heavy>
37

>  <SCORE.norm>
-0.454853

>  <RMSD>
9.778

$$$$
2oe8_lig
 OpenBabel11021811463D
libRbt.so/2013.1/901 2013/11/27
 37 40  0  0  0  0  0  0  0  0999 V2000
   19.8265   -4.8066   49.2369 C   0  0  1  0  0  0  0  0  0  0  0  0
   18.7128   -4.5494   50.3219 C   0  0  1  0  0  0  0  0  0  0  0  0
   18.8168   -3.0946   50.8254 C   0  0  0  0  0  0  0  0  0  0  0  0
   20.2466   -2.9482   51.4338 C   0  0  1  0  0  0  0  0  0  0  0  0
   21.3986   -3.2293   50.3385 C   0  0  1  0  0  0  0  0  0  0  0  0
   22.8282   -3.1040   50.9422 C   0  0  1  0  0  0  0  0  0  0  0  0
   22.9619   -1.6431   51.5379 C   0  0  1  0  0  0  0  0  0  0  0  0
   21.7963   -1.4038   52.5597 C   0  0  2  0  0  0  0  0  0  0  0  0
   25.5737   -1.4372   51.3565 C   0  0  0  0  0  0  0  0  0  0  0  0
   17.3519   -4.7859   49.7437 N   0  0  0  0  0  0  0  0  0  0  0  0
   24.3225   -1.4376   52.1981 N   0  0  0  0  0  0  0  0  0  0  0  0
   19.6625   -3.9534   48.0971 O   0  0  0  0  0  0  0  0  0  0  0  0
   21.1942   -4.5764   49.7881 O   0  0  0  0  0  0  0  0  0  0  0  0
   20.4433   -1.6030   51.9617 O   0  0  0  0  0  0  0  0  0  0  0  0
   22.9510   -4.1143   51.9447 O   0  0  0  0  0  0  0  0  0  0  0  0
   21.8745   -0.1092   53.0338 O   0  0  0  0  0  0  0  0  0  0  0  0
   20.7677    0.2567   53.8752 C   0  0  2  0  0  0  0  0  0  0  0  0
   20.8175    1.7692   54.2002 C   0  0  1  0  0  0  0  0  0  0  0  0
   22.0559    2.1333   55.0753 C   0  0  2  0  0  0  0  0  0  0  0  0
   22.0104    1.3131   56.3984 C   0  0  1  0  0  0  0  0  0  0  0  0
   22.0429   -0.2189   55.9923 C   0  0  1  0  0  0  0  0  0  0  0  0
   21.9862   -1.1346   57.2118 C   0  0  0  0  0  0  0  0  0  0  0  0
   23.1933    1.6597   57.2369 N   0  0  0  0  0  0  0  0  0  0  0  0
   20.8376   -0.5188   55.1410 O   0  0  0  0  0  0  0  0  0  0  0  0
   20.8178    2.4757   52.9449 O   0  0  0  0  0  0  0  0  0  0  0  0
   22.0041    3.5138   55.3682 O   0  0  0  0  0  0  0  0  0  0  0  0
   20.8085   -0.8818   57.9316 O   0  0  0  0  0  0  0  0  0  0  0  0
   18.7062   -4.4243   47.1701 C   0  0  1  0  0  0  0  0  0  0  0  0
   18.0224   -3.1866   46.5051 C   0  0  1  0  0  0  0  0  0  0  0  0
   16.9431   -3.6912   45.5033 C   0  0  2  0  0  0  0  0  0  0  0  0
   17.5845   -4.5976   44.4076 C   0  0  1  0  0  0  0  0  0  0  0  0
   18.2867   -5.8436   45.0702 C   0  0  0  0  0  0  0  0  0  0  0  0
   19.3889   -5.3257   46.0847 C   0  0  2  0  0  0  0  0  0  0  0  0
   16.5325   -5.0714   43.4661 N   0  0  0  0  0  0  0  0  0  0  0  0
   20.0456   -6.5014   46.6991 N   0  0  0  0  0  0  0  0  0  0  0  0
   17.3893   -2.3672   47.5056 O   0  0  0  0  0  0  0  0  0  0  0  0
   16.3444   -2.5507   44.9103 O   0  0  0  0  0  0  0  0  0  0  0  0
  1  2  1  0  0  0  0
  1 12  1  6  0  0  0
  1 13  1  0  0  0  0
  2  3  1  0  0  0  0
  2 10  1  6  0  0  0
  4  3  1  6  0  0  0
  4  5  1  0  0  0  0
  4 14  1  0  0  0  0
  5  6  1  0  0  0  0
  5 13  1  1  0  0  0
  6  7  1  0  0  0  0
  6 15  1  1  0  0  0
  7  8  1  0  0  0  0
  7 11  1  1  0  0  0
  8 14  1  0  0  0  0
  8 16  1  6  0  0  0
  9 11  1  0  0  0  0
 17 16  1  6  0  0  0
 17 18  1  0  0  0  0
 17 24  1  0  0  0  0
 18 19  1  0  0  0  0
 18 25  1  6  0  0  0
 19 20  1  0  0  0  0
 19 26  1  1  0  0  0
 20 21  1  0  0  0  0
 20 23  1  1  0  0  0
 21 22  1  1  0  0  0
 21 24  1  0  0  0  0
 22 27  1  0  0  0  0
 28 12  1  1  0  0  0
 28 29  1  0  0  0  0
 28 33  1  0  0  0  0
 29 30  1  0  0  0  0
 29 36  1  1  0  0  0
 30 31  1  0  0  0  0
 30 37  1  6  0  0  0
 31 32  1  0  0  0  0
 31 34  1  6  0  0  0
 32 33  1  0  0  0  0
 33 35  1  1  0  0  0
M  END
>  <CHROM.1>
-81.87458596,66.65888998,173.95978799,-171.90813361,59.22375472,147.62038774
20.45774131,-2.12429963,50.96024893,-2.01936588,-0.61034231,0.79263524

>  <Name>
2oe8_lig

>  <RI>
0

>  <Rbt.Current_Directory>
/home/itssahil/PROJECTS/Mol_Feturizer/New_Systems/rnas/2oe8

>  <Rbt.Executable>
rbdock ($Id: //depot/dev/client3/rdock/2013.1/src/exe/rbdock.cxx#4 $)

>  <Rbt.Library>
libRbt.so (2013.1, Build901 2013/11/27)

>  <Rbt.Parameter_File>
/export/apps/rDock/src/rDock_2013.1_src/data/scripts/dock_solv.prm

>  <Rbt.Receptor>
prm/pocket_docking_7.prm

>  <SCORE>
-16.5238

>  <SCORE.INTER>
-12.7739

>  <SCORE.INTER.CONST>
1

>  <SCORE.INTER.POLAR>
-1.72873

>  <SCORE.INTER.ROT>
6

>  <SCORE.INTER.SOLV>
12.494

>  <SCORE.INTER.VDW>
-14.5182

>  <SCORE.INTER.norm>
-0.345241

>  <SCORE.INTRA>
-3.74985

>  <SCORE.INTRA.DIHEDRAL>
-9.65942

>  <SCORE.INTRA.DIHEDRAL.0>
16.4056

>  <SCORE.INTRA.POLAR>
0

>  <SCORE.INTRA.POLAR.0>
0

>  <SCORE.INTRA.REPUL>
0

>  <SCORE.INTRA.REPUL.0>
0

>  <SCORE.INTRA.SOLV>
0.387341

>  <SCORE.INTRA.SOLV.lig_0>
-90.9627

>  <SCORE.INTRA.VDW>
0.886186

>  <SCORE.INTRA.VDW.0>
-3.28744

>  <SCORE.INTRA.norm>
-0.101347

>  <SCORE.RESTR>
0

>  <SCORE.RESTR.CAVITY>
0

>  <SCORE.RESTR.norm>
0

>  <SCORE.SYSTEM>
0

>  <SCORE.SYSTEM.CONST>
0

>  <SCORE.SYSTEM.DIHEDRAL>
0

>  <SCORE.SYSTEM.SOLV>
0

>  <SCORE.SYSTEM.norm>
0

>  <SCORE.heavy>
37

>  <SCORE.norm>
-0.446588

>  <RMSD>
9.782

$$$$
2oe8_lig
 OpenBabel11021811463D
libRbt.so/2013.1/901 2013/11/27
 37 40  0  0  0  0  0  0  0  0999 V2000
   21.1213   -4.9944   48.6433 C   0  0  1  0  0  0  0  0  0  0  0  0
   20.9532   -5.8058   49.9838 C   0  0  1  0  0  0  0  0  0  0  0  0
   20.1695   -4.9522   51.0025 C   0  0  0  0  0  0  0  0  0  0  0  0
   21.0143   -3.6587   51.2242 C   0  0  1  0  0  0  0  0  0  0  0  0
   21.2127   -2.8271   49.8549 C   0  0  1  0  0  0  0  0  0  0  0  0
   22.0707   -1.5449   50.0637 C   0  0  1  0  0  0  0  0  0  0  0  0
   21.3414   -0.6627   51.1576 C   0  0  1  0  0  0  0  0  0  0  0  0
   21.1317   -1.5278   52.4489 C   0  0  2  0  0  0  0  0  0  0  0  0
   22.5023    1.5513   50.3532 C   0  0  0  0  0  0  0  0  0  0  0  0
   20.2216   -7.0880   49.7331 N   0  0  0  0  0  0  0  0  0  0  0  0
   22.1361    0.6030   51.4670 N   0  0  0  0  0  0  0  0  0  0  0  0
   19.8545   -4.6858   48.0485 O   0  0  0  0  0  0  0  0  0  0  0  0
   21.8476   -3.7096   48.8661 O   0  0  0  0  0  0  0  0  0  0  0  0
   20.3663   -2.7837   52.1946 O   0  0  0  0  0  0  0  0  0  0  0  0
   23.3678   -1.9712   50.4839 O   0  0  0  0  0  0  0  0  0  0  0  0
   20.4405   -0.7803   53.3820 O   0  0  0  0  0  0  0  0  0  0  0  0
   21.2604    0.1910   54.0537 C   0  0  2  0  0  0  0  0  0  0  0  0
   22.1209   -0.4940   55.1426 C   0  0  1  0  0  0  0  0  0  0  0  0
   21.2444   -1.0687   56.2974 C   0  0  2  0  0  0  0  0  0  0  0  0
   20.4116    0.0832   56.9338 C   0  0  1  0  0  0  0  0  0  0  0  0
   19.4996    0.6823   55.7838 C   0  0  1  0  0  0  0  0  0  0  0  0
   18.6393    1.8403   56.2816 C   0  0  0  0  0  0  0  0  0  0  0  0
   19.5729   -0.4637   58.0383 N   0  0  0  0  0  0  0  0  0  0  0  0
   20.3879    1.2123   54.6895 O   0  0  0  0  0  0  0  0  0  0  0  0
   22.8955   -1.5196   54.4921 O   0  0  0  0  0  0  0  0  0  0  0  0
   22.1008   -1.6309   57.2694 O   0  0  0  0  0  0  0  0  0  0  0  0
   17.5007    1.3330   56.9260 O   0  0  0  0  0  0  0  0  0  0  0  0
   19.0347   -5.8178   47.8428 C   0  0  1  0  0  0  0  0  0  0  0  0
   17.5678   -5.3239   47.6286 C   0  0  1  0  0  0  0  0  0  0  0  0
   16.6476   -6.5638   47.4319 C   0  0  2  0  0  0  0  0  0  0  0  0
   17.1097   -7.4079   46.2040 C   0  0  1  0  0  0  0  0  0  0  0  0
   18.5931   -7.9014   46.4063 C   0  0  0  0  0  0  0  0  0  0  0  0
   19.5275   -6.6358   46.5999 C   0  0  2  0  0  0  0  0  0  0  0  0
   16.2183   -8.5896   46.0404 N   0  0  0  0  0  0  0  0  0  0  0  0
   20.9182   -7.1078   46.7852 N   0  0  0  0  0  0  0  0  0  0  0  0
   17.1173   -4.5810   48.7768 O   0  0  0  0  0  0  0  0  0  0  0  0
   15.3266   -6.0881   47.2331 O   0  0  0  0  0  0  0  0  0  0  0  0
  1  2  1  0  0  0  0
  1 12  1  1  0  0  0
  1 13  1  0  0  0  0
  2  3  1  0  0  0  0
  2 10  1  6  0  0  0
  4  3  1  6  0  0  0
  4  5  1  0  0  0  0
  4 14  1  0  0  0  0
  5  6  1  0  0  0  0
  5 13  1  6  0  0  0
  6  7  1  0  0  0  0
  6 15  1  1  0  0  0
  7  8  1  0  0  0  0
  7 11  1  1  0  0  0
  8 14  1  0  0  0  0
  8 16  1  1  0  0  0
  9 11  1  0  0  0  0
 17 16  1  1  0  0  0
 17 18  1  0  0  0  0
 17 24  1  0  0  0  0
 18 19  1  0  0  0  0
 18 25  1  6  0  0  0
 19 20  1  0  0  0  0
 19 26  1  1  0  0  0
 20 21  1  0  0  0  0
 20 23  1  1  0  0  0
 21 22  1  1  0  0  0
 21 24  1  0  0  0  0
 22 27  1  0  0  0  0
 28 12  1  6  0  0  0
 28 29  1  0  0  0  0
 28 33  1  0  0  0  0
 29 30  1  0  0  0  0
 29 36  1  1  0  0  0
 30 31  1  0  0  0  0
 30 37  1  6  0  0  0
 31 32  1  0  0  0  0
 31 34  1  1  0  0  0
 32 33  1  0  0  0  0
 33 35  1  1  0  0  0
M  END
>  <CHROM.1>
-54.13427218,55.96864489,-77.17895916,-77.94965296,-81.60617476,162.42805696
20.09526060,-2.94877986,51.27545007,-1.79542242,0.34736176,0.96028330

>  <Name>
2oe8_lig

>  <RI>
0

>  <Rbt.Current_Directory>
/home/itssahil/PROJECTS/Mol_Feturizer/New_Systems/rnas/2oe8

>  <Rbt.Executable>
rbdock ($Id: //depot/dev/client3/rdock/2013.1/src/exe/rbdock.cxx#4 $)

>  <Rbt.Library>
libRbt.so (2013.1, Build901 2013/11/27)

>  <Rbt.Parameter_File>
/export/apps/rDock/src/rDock_2013.1_src/data/scripts/dock_solv.prm

>  <Rbt.Receptor>
prm/pocket_docking_5.prm

>  <SCORE>
-16.0142

>  <SCORE.INTER>
-16.8873

>  <SCORE.INTER.CONST>
1

>  <SCORE.INTER.POLAR>
-1.95959

>  <SCORE.INTER.ROT>
6

>  <SCORE.INTER.SOLV>
14.8412

>  <SCORE.INTER.VDW>
-17.2733

>  <SCORE.INTER.norm>
-0.456414

>  <SCORE.INTRA>
0.873173

>  <SCORE.INTRA.DIHEDRAL>
-10.3918

>  <SCORE.INTRA.DIHEDRAL.0>
16.4056

>  <SCORE.INTRA.POLAR>
0

>  <SCORE.INTRA.POLAR.0>
0

>  <SCORE.INTRA.REPUL>
0

>  <SCORE.INTRA.REPUL.0>
0

>  <SCORE.INTRA.SOLV>
4.74664

>  <SCORE.INTRA.SOLV.lig_0>
-90.9627

>  <SCORE.INTRA.VDW>
3.69574

>  <SCORE.INTRA.VDW.0>
-3.28744

>  <SCORE.INTRA.norm>
0.0235993

>  <SCORE.RESTR>
0

>  <SCORE.RESTR.CAVITY>
0

>  <SCORE.RESTR.norm>
0

>  <SCORE.SYSTEM>
0

>  <SCORE.SYSTEM.CONST>
0

>  <SCORE.SYSTEM.DIHEDRAL>
0

>  <SCORE.SYSTEM.SOLV>
0

>  <SCORE.SYSTEM.norm>
0

>  <SCORE.heavy>
37

>  <SCORE.norm>
-0.432815

>  <RMSD>
9.795

$$$$
2oe8_lig
 OpenBabel11021811463D
libRbt.so/2013.1/901 2013/11/27
 37 40  0  0  0  0  0  0  0  0999 V2000
   20.0360   -5.5191   49.7136 C   0  0  1  0  0  0  0  0  0  0  0  0
   18.7164   -5.4977   50.5748 C   0  0  1  0  0  0  0  0  0  0  0  0
   18.3300   -4.0356   50.8806 C   0  0  0  0  0  0  0  0  0  0  0  0
   19.5316   -3.4258   51.6681 C   0  0  1  0  0  0  0  0  0  0  0  0
   20.8959   -3.4598   50.8057 C   0  0  1  0  0  0  0  0  0  0  0  0
   22.1039   -2.8706   51.5914 C   0  0  1  0  0  0  0  0  0  0  0  0
   21.7272   -1.3856   51.9911 C   0  0  1  0  0  0  0  0  0  0  0  0
   20.3748   -1.4021   52.7852 C   0  0  2  0  0  0  0  0  0  0  0  0
   23.0715   -1.1671   54.2364 C   0  0  0  0  0  0  0  0  0  0  0  0
   17.5987   -6.1705   49.8398 N   0  0  0  0  0  0  0  0  0  0  0  0
   22.8381   -0.7349   52.8108 N   0  0  0  0  0  0  0  0  0  0  0  0
   19.8574   -4.8582   48.4545 O   0  0  0  0  0  0  0  0  0  0  0  0
   21.1668   -4.8528   50.4241 O   0  0  0  0  0  0  0  0  0  0  0  0
   19.2581   -2.0389   52.0268 O   0  0  0  0  0  0  0  0  0  0  0  0
   22.3110   -3.7057   52.7319 O   0  0  0  0  0  0  0  0  0  0  0  0
   20.0126   -0.1027   53.0808 O   0  0  0  0  0  0  0  0  0  0  0  0
   18.9175   -0.0139   54.0081 C   0  0  2  0  0  0  0  0  0  0  0  0
   18.5521    1.4677   54.2667 C   0  0  1  0  0  0  0  0  0  0  0  0
   19.6968    2.2265   55.0055 C   0  0  2  0  0  0  0  0  0  0  0  0
   19.9962    1.5156   56.3584 C   0  0  1  0  0  0  0  0  0  0  0  0
   20.4395    0.0335   56.0121 C   0  0  1  0  0  0  0  0  0  0  0  0
   20.7477   -0.7787   57.2668 C   0  0  0  0  0  0  0  0  0  0  0  0
   21.0902    2.2393   57.0668 N   0  0  0  0  0  0  0  0  0  0  0  0
   19.3095   -0.6528   55.2912 O   0  0  0  0  0  0  0  0  0  0  0  0
   18.2479    2.0615   52.9900 O   0  0  0  0  0  0  0  0  0  0  0  0
   19.2701    3.5508   55.2471 O   0  0  0  0  0  0  0  0  0  0  0  0
   19.6408   -0.7451   58.1287 O   0  0  0  0  0  0  0  0  0  0  0  0
   18.9266   -5.4980   47.6060 C   0  0  1  0  0  0  0  0  0  0  0  0
   17.8841   -4.4329   47.1363 C   0  0  1  0  0  0  0  0  0  0  0  0
   16.8331   -5.1315   46.2251 C   0  0  2  0  0  0  0  0  0  0  0  0
   17.5205   -5.7857   44.9869 C   0  0  1  0  0  0  0  0  0  0  0  0
   18.5823   -6.8541   45.4514 C   0  0  0  0  0  0  0  0  0  0  0  0
   19.6539   -6.1376   46.3737 C   0  0  2  0  0  0  0  0  0  0  0  0
   16.4964   -6.4512   44.1349 N   0  0  0  0  0  0  0  0  0  0  0  0
   20.6487   -7.1466   46.8021 N   0  0  0  0  0  0  0  0  0  0  0  0
   17.2128   -3.8553   48.2716 O   0  0  0  0  0  0  0  0  0  0  0  0
   15.9053   -4.1434   45.8082 O   0  0  0  0  0  0  0  0  0  0  0  0
  1  2  1  0  0  0  0
  1 12  1  6  0  0  0
  1 13  1  0  0  0  0
  2  3  1  0  0  0  0
  2 10  1  6  0  0  0
  4  3  1  6  0  0  0
  4  5  1  0  0  0  0
  4 14  1  0  0  0  0
  5  6  1  0  0  0  0
  5 13  1  1  0  0  0
  6  7  1  0  0  0  0
  6 15  1  1  0  0  0
  7  8  1  0  0  0  0
  7 11  1  1  0  0  0
  8 14  1  0  0  0  0
  8 16  1  6  0  0  0
  9 11  1  0  0  0  0
 17 16  1  6  0  0  0
 17 18  1  0  0  0  0
 17 24  1  0  0  0  0
 18 19  1  0  0  0  0
 18 25  1  6  0  0  0
 19 20  1  0  0  0  0
 19 26  1  1  0  0  0
 20 21  1  0  0  0  0
 20 23  1  6  0  0  0
 21 22  1  1  0  0  0
 21 24  1  0  0  0  0
 22 27  1  0  0  0  0
 28 12  1  1  0  0  0
 28 29  1  0  0  0  0
 28 33  1  0  0  0  0
 29 30  1  0  0  0  0
 29 36  1  1  0  0  0
 30 31  1  0  0  0  0
 30 37  1  6  0  0  0
 31 32  1  0  0  0  0
 31 34  1  6  0  0  0
 32 33  1  0  0  0  0
 33 35  1  1  0  0  0
M  END
>  <CHROM.1>
-64.57374841,-72.16353929,-169.56870370,-178.85329278,54.97487157,128.05784147
19.54841150,-2.54827748,51.34488021,-1.79602447,-0.61267105,0.80658397

>  <Name>
2oe8_lig

>  <RI>
0

>  <Rbt.Current_Directory>
/home/itssahil/PROJECTS/Mol_Feturizer/New_Systems/rnas/2oe8

>  <Rbt.Executable>
rbdock ($Id: //depot/dev/client3/rdock/2013.1/src/exe/rbdock.cxx#4 $)

>  <Rbt.Library>
libRbt.so (2013.1, Build901 2013/11/27)

>  <Rbt.Parameter_File>
/export/apps/rDock/src/rDock_2013.1_src/data/scripts/dock_solv.prm

>  <Rbt.Receptor>
prm/pocket_docking_3.prm

>  <SCORE>
-17.9849

>  <SCORE.INTER>
-16.667

>  <SCORE.INTER.CONST>
1

>  <SCORE.INTER.POLAR>
-1.85796

>  <SCORE.INTER.ROT>
6

>  <SCORE.INTER.SOLV>
11.7571

>  <SCORE.INTER.VDW>
-16.4372

>  <SCORE.INTER.norm>
-0.45046

>  <SCORE.INTRA>
-1.73217

>  <SCORE.INTRA.DIHEDRAL>
-8.62067

>  <SCORE.INTRA.DIHEDRAL.0>
16.4056

>  <SCORE.INTRA.POLAR>
0

>  <SCORE.INTRA.POLAR.0>
0

>  <SCORE.INTRA.REPUL>
0

>  <SCORE.INTRA.REPUL.0>
0

>  <SCORE.INTRA.SOLV>
1.67638

>  <SCORE.INTRA.SOLV.lig_0>
-90.9627

>  <SCORE.INTRA.VDW>
1.73998

>  <SCORE.INTRA.VDW.0>
-3.28744

>  <SCORE.INTRA.norm>
-0.0468154

>  <SCORE.RESTR>
0.414266

>  <SCORE.RESTR.CAVITY>
0.414266

>  <SCORE.RESTR.norm>
0.0111964

>  <SCORE.SYSTEM>
0

>  <SCORE.SYSTEM.CONST>
0

>  <SCORE.SYSTEM.DIHEDRAL>
0

>  <SCORE.SYSTEM.SOLV>
0

>  <SCORE.SYSTEM.norm>
0

>  <SCORE.heavy>
37

>  <SCORE.norm>
-0.486079

>  <RMSD>
9.797

$$$$
2oe8_lig
 OpenBabel11021811463D
libRbt.so/2013.1/901 2013/11/27
 37 40  0  0  0  0  0  0  0  0999 V2000
   22.4569   -4.2140   49.2384 C   0  0  1  0  0  0  0  0  0  0  0  0
   23.8481   -4.2040   49.9787 C   0  0  1  0  0  0  0  0  0  0  0  0
   23.6267   -3.9143   51.4779 C   0  0  0  0  0  0  0  0  0  0  0  0
   22.9347   -2.5173   51.5513 C   0  0  1  0  0  0  0  0  0  0  0  0
   21.5171   -2.5064   50.7792 C   0  0  1  0  0  0  0  0  0  0  0  0
   20.8289   -1.1108   50.8313 C   0  0  1  0  0  0  0  0  0  0  0  0
   20.6417   -0.7344   52.3578 C   0  0  1  0  0  0  0  0  0  0  0  0
   22.0364   -0.8039   53.0717 C   0  0  2  0  0  0  0  0  0  0  0  0
   18.5739    0.8669   52.1191 C   0  0  0  0  0  0  0  0  0  0  0  0
   24.5381   -5.5232   49.8175 N   0  0  0  0  0  0  0  0  0  0  0  0
   20.0128    0.6475   52.5134 N   0  0  0  0  0  0  0  0  0  0  0  0
   21.5955   -5.2420   49.7436 O   0  0  0  0  0  0  0  0  0  0  0  0
   21.7472   -2.9092   49.3848 O   0  0  0  0  0  0  0  0  0  0  0  0
   22.6967   -2.1358   52.9387 O   0  0  0  0  0  0  0  0  0  0  0  0
   21.6841   -0.1948   50.1454 O   0  0  0  0  0  0  0  0  0  0  0  0
   21.8659   -0.5368   54.4158 O   0  0  0  0  0  0  0  0  0  0  0  0
   23.1039   -0.3286   55.1164 C   0  0  2  0  0  0  0  0  0  0  0  0
   22.8498   -0.2402   56.6406 C   0  0  1  0  0  0  0  0  0  0  0  0
   22.0192    1.0249   57.0172 C   0  0  2  0  0  0  0  0  0  0  0  0
   22.7748    2.2988   56.5360 C   0  0  1  0  0  0  0  0  0  0  0  0
   22.9276    2.1774   54.9628 C   0  0  1  0  0  0  0  0  0  0  0  0
   23.6731    3.3686   54.3675 C   0  0  0  0  0  0  0  0  0  0  0  0
   21.9828    3.5097   56.8951 N   0  0  0  0  0  0  0  0  0  0  0  0
   23.7239    0.9385   54.6489 O   0  0  0  0  0  0  0  0  0  0  0  0
   22.1872   -1.4571   57.0342 O   0  0  0  0  0  0  0  0  0  0  0  0
   21.8722    1.0597   58.4213 O   0  0  0  0  0  0  0  0  0  0  0  0
   24.9775    3.4086   54.8833 O   0  0  0  0  0  0  0  0  0  0  0  0
   20.3203   -5.2616   49.1361 C   0  0  1  0  0  0  0  0  0  0  0  0
   20.4416   -6.0180   47.7742 C   0  0  1  0  0  0  0  0  0  0  0  0
   19.0490   -6.0196   47.0786 C   0  0  2  0  0  0  0  0  0  0  0  0
   17.9804   -6.7127   47.9792 C   0  0  1  0  0  0  0  0  0  0  0  0
   17.8590   -5.9628   49.3604 C   0  0  0  0  0  0  0  0  0  0  0  0
   19.2773   -5.9689   50.0680 C   0  0  2  0  0  0  0  0  0  0  0  0
   16.6577   -6.6966   47.2952 N   0  0  0  0  0  0  0  0  0  0  0  0
   19.1535   -5.2665   51.3652 N   0  0  0  0  0  0  0  0  0  0  0  0
   21.3940   -5.3589   46.9189 O   0  0  0  0  0  0  0  0  0  0  0  0
   19.1855   -6.7166   45.8513 O   0  0  0  0  0  0  0  0  0  0  0  0
  1  2  1  0  0  0  0
  1 12  1  1  0  0  0
  1 13  1  0  0  0  0
  2  3  1  0  0  0  0
  2 10  1  1  0  0  0
  4  3  1  1  0  0  0
  4  5  1  0  0  0  0
  4 14  1  0  0  0  0
  5  6  1  0  0  0  0
  5 13  1  6  0  0  0
  6  7  1  0  0  0  0
  6 15  1  1  0  0  0
  7  8  1  0  0  0  0
  7 11  1  6  0  0  0
  8 14  1  0  0  0  0
  8 16  1  1  0  0  0
  9 11  1  0  0  0  0
 17 16  1  6  0  0  0
 17 18  1  0  0  0  0
 17 24  1  0  0  0  0
 18 19  1  0  0  0  0
 18 25  1  6  0  0  0
 19 20  1  0  0  0  0
 19 26  1  1  0  0  0
 20 21  1  0  0  0  0
 20 23  1  6  0  0  0
 21 22  1  1  0  0  0
 21 24  1  0  0  0  0
 22 27  1  0  0  0  0
 28 12  1  1  0  0  0
 28 29  1  0  0  0  0
 28 33  1  0  0  0  0
 29 30  1  0  0  0  0
 29 36  1  6  0  0  0
 30 31  1  0  0  0  0
 30 37  1  6  0  0  0
 31 32  1  0  0  0  0
 31 34  1  6  0  0  0
 32 33  1  0  0  0  0
 33 35  1  1  0  0  0
M  END
>  <CHROM.1>
178.16376840,69.34140874,-169.03186435,-171.81317832,62.62727434,81.31302774
21.47998767,-2.11042510,51.90213814,-1.83961587,0.06431908,0.82383745

>  <Name>
2oe8_lig

>  <RI>
0

>  <Rbt.Current_Directory>
/home/itssahil/PROJECTS/Mol_Feturizer/New_Systems/rnas/2oe8

>  <Rbt.Executable>
rbdock ($Id: //depot/dev/client3/rdock/2013.1/src/exe/rbdock.cxx#4 $)

>  <Rbt.Library>
libRbt.so (2013.1, Build901 2013/11/27)

>  <Rbt.Parameter_File>
/export/apps/rDock/src/rDock_2013.1_src/data/scripts/dock_solv.prm

>  <Rbt.Receptor>
prm/pocket_docking_7.prm

>  <SCORE>
-16.7473

>  <SCORE.INTER>
-9.91381

>  <SCORE.INTER.CONST>
1

>  <SCORE.INTER.POLAR>
0

>  <SCORE.INTER.ROT>
6

>  <SCORE.INTER.SOLV>
10.2754

>  <SCORE.INTER.VDW>
-17.6343

>  <SCORE.INTER.norm>
-0.267941

>  <SCORE.INTRA>
-6.83351

>  <SCORE.INTRA.DIHEDRAL>
-13.3077

>  <SCORE.INTRA.DIHEDRAL.0>
16.4056

>  <SCORE.INTRA.POLAR>
0

>  <SCORE.INTRA.POLAR.0>
0

>  <SCORE.INTRA.REPUL>
0

>  <SCORE.INTRA.REPUL.0>
0

>  <SCORE.INTRA.SOLV>
-2.08964

>  <SCORE.INTRA.SOLV.lig_0>
-90.9627

>  <SCORE.INTRA.VDW>
0.865179

>  <SCORE.INTRA.VDW.0>
-3.28744

>  <SCORE.INTRA.norm>
-0.18469

>  <SCORE.RESTR>
0

>  <SCORE.RESTR.CAVITY>
0

>  <SCORE.RESTR.norm>
0

>  <SCORE.SYSTEM>
0

>  <SCORE.SYSTEM.CONST>
0

>  <SCORE.SYSTEM.DIHEDRAL>
0

>  <SCORE.SYSTEM.SOLV>
0

>  <SCORE.SYSTEM.norm>
0

>  <SCORE.heavy>
37

>  <SCORE.norm>
-0.45263

>  <RMSD>
9.798

$$$$
2oe8_lig
 OpenBabel11021811463D
libRbt.so/2013.1/901 2013/11/27
 37 40  0  0  0  0  0  0  0  0999 V2000
   19.2938   -2.2296   48.9541 C   0  0  1  0  0  0  0  0  0  0  0  0
   20.7053   -2.8685   49.2419 C   0  0  1  0  0  0  0  0  0  0  0  0
   20.8839   -3.0478   50.7640 C   0  0  0  0  0  0  0  0  0  0  0  0
   20.7699   -1.6203   51.3844 C   0  0  1  0  0  0  0  0  0  0  0  0
   19.3359   -0.9443   51.0800 C   0  0  1  0  0  0  0  0  0  0  0  0
   19.2210    0.4880   51.6793 C   0  0  1  0  0  0  0  0  0  0  0  0
   19.4671    0.3675   53.2387 C   0  0  1  0  0  0  0  0  0  0  0  0
   20.8484   -0.3348   53.4810 C   0  0  2  0  0  0  0  0  0  0  0  0
   18.2224    2.6301   53.7164 C   0  0  0  0  0  0  0  0  0  0  0  0
   20.8294   -4.1962   48.5607 N   0  0  0  0  0  0  0  0  0  0  0  0
   19.4205    1.7359   53.9132 N   0  0  0  0  0  0  0  0  0  0  0  0
   18.2280   -3.0740   49.4069 O   0  0  0  0  0  0  0  0  0  0  0  0
   19.1438   -0.9041   49.6236 O   0  0  0  0  0  0  0  0  0  0  0  0
   20.9458   -1.6750   52.8312 O   0  0  0  0  0  0  0  0  0  0  0  0
   20.2074    1.2943   51.0330 O   0  0  0  0  0  0  0  0  0  0  0  0
   21.0367   -0.4970   54.8395 O   0  0  0  0  0  0  0  0  0  0  0  0
   22.4221   -0.5371   55.2213 C   0  0  2  0  0  0  0  0  0  0  0  0
   22.5532   -0.5672   56.7633 C   0  0  1  0  0  0  0  0  0  0  0  0
   22.0506    0.7582   57.4135 C   0  0  2  0  0  0  0  0  0  0  0  0
   22.8665    1.9545   56.8404 C   0  0  1  0  0  0  0  0  0  0  0  0
   22.6215    1.9713   55.2742 C   0  0  1  0  0  0  0  0  0  0  0  0
   23.3873    3.0990   54.5881 C   0  0  0  0  0  0  0  0  0  0  0  0
   22.3880    3.2229   57.4607 N   0  0  0  0  0  0  0  0  0  0  0  0
   23.1102    0.6702   54.6947 O   0  0  0  0  0  0  0  0  0  0  0  0
   21.8148   -1.7117   57.2322 O   0  0  0  0  0  0  0  0  0  0  0  0
   22.2473    0.6723   58.8093 O   0  0  0  0  0  0  0  0  0  0  0  0
   24.7663    2.8776   54.7243 O   0  0  0  0  0  0  0  0  0  0  0  0
   17.9628   -4.1622   48.5460 C   0  0  1  0  0  0  0  0  0  0  0  0
   17.2053   -5.2568   49.3643 C   0  0  1  0  0  0  0  0  0  0  0  0
   16.9344   -6.4761   48.4354 C   0  0  2  0  0  0  0  0  0  0  0  0
   16.0837   -6.0522   47.1984 C   0  0  1  0  0  0  0  0  0  0  0  0
   16.8353   -4.9396   46.3725 C   0  0  0  0  0  0  0  0  0  0  0  0
   17.1036   -3.6978   47.3202 C   0  0  2  0  0  0  0  0  0  0  0  0
   15.8430   -7.2331   46.3236 N   0  0  0  0  0  0  0  0  0  0  0  0
   17.8058   -2.6569   46.5361 N   0  0  0  0  0  0  0  0  0  0  0  0
   18.0028   -5.6861   50.4837 O   0  0  0  0  0  0  0  0  0  0  0  0
   16.2415   -7.4494   49.1992 O   0  0  0  0  0  0  0  0  0  0  0  0
  1  2  1  0  0  0  0
  1 12  1  1  0  0  0
  1 13  1  0  0  0  0
  2  3  1  0  0  0  0
  2 10  1  6  0  0  0
  4  3  1  1  0  0  0
  4  5  1  0  0  0  0
  4 14  1  0  0  0  0
  5  6  1  0  0  0  0
  5 13  1  6  0  0  0
  6  7  1  0  0  0  0
  6 15  1  6  0  0  0
  7  8  1  0  0  0  0
  7 11  1  6  0  0  0
  8 14  1  0  0  0  0
  8 16  1  1  0  0  0
  9 11  1  0  0  0  0
 17 16  1  1  0  0  0
 17 18  1  0  0  0  0
 17 24  1  0  0  0  0
 18 19  1  0  0  0  0
 18 25  1  1  0  0  0
 19 20  1  0  0  0  0
 19 26  1  1  0  0  0
 20 21  1  0  0  0  0
 20 23  1  1  0  0  0
 21 22  1  6  0  0  0
 21 24  1  0  0  0  0
 22 27  1  0  0  0  0
 28 12  1  1  0  0  0
 28 29  1  0  0  0  0
 28 33  1  0  0  0  0
 29 30  1  0  0  0  0
 29 36  1  1  0  0  0
 30 31  1  0  0  0  0
 30 37  1  1  0  0  0
 31 32  1  0  0  0  0
 31 34  1  6  0  0  0
 32 33  1  0  0  0  0
 33 35  1  6  0  0  0
M  END
>  <CHROM.1>
-77.71973535,53.76578370,-152.96958794,173.93929937,64.66454338,159.20489288
19.99129149,-1.49645376,52.01061835,3.11228449,1.12047151,2.49417121

>  <Name>
2oe8_lig

>  <RI>
0

>  <Rbt.Current_Directory>
/home/itssahil/PROJECTS/Mol_Feturizer/New_Systems/rnas/2oe8

>  <Rbt.Executable>
rbdock ($Id: //depot/dev/client3/rdock/2013.1/src/exe/rbdock.cxx#4 $)

>  <Rbt.Library>
libRbt.so (2013.1, Build901 2013/11/27)

>  <Rbt.Parameter_File>
/export/apps/rDock/src/rDock_2013.1_src/data/scripts/dock_solv.prm

>  <Rbt.Receptor>
prm/pocket_docking_6.prm

>  <SCORE>
-25.9264

>  <SCORE.INTER>
-22.6817

>  <SCORE.INTER.CONST>
1

>  <SCORE.INTER.POLAR>
-1.98879

>  <SCORE.INTER.ROT>
6

>  <SCORE.INTER.SOLV>
14.4503

>  <SCORE.INTER.VDW>
-20.9086

>  <SCORE.INTER.norm>
-0.613018

>  <SCORE.INTRA>
-3.24472

>  <SCORE.INTRA.DIHEDRAL>
-9.67392

>  <SCORE.INTRA.DIHEDRAL.0>
16.4056

>  <SCORE.INTRA.POLAR>
0

>  <SCORE.INTRA.POLAR.0>
0

>  <SCORE.INTRA.REPUL>
0

>  <SCORE.INTRA.REPUL.0>
0

>  <SCORE.INTRA.SOLV>
1.6847

>  <SCORE.INTRA.SOLV.lig_0>
-90.9627

>  <SCORE.INTRA.VDW>
0.749893

>  <SCORE.INTRA.VDW.0>
-3.28744

>  <SCORE.INTRA.norm>
-0.0876951

>  <SCORE.RESTR>
0

>  <SCORE.RESTR.CAVITY>
0

>  <SCORE.RESTR.norm>
0

>  <SCORE.SYSTEM>
0

>  <SCORE.SYSTEM.CONST>
0

>  <SCORE.SYSTEM.DIHEDRAL>
0

>  <SCORE.SYSTEM.SOLV>
0

>  <SCORE.SYSTEM.norm>
0

>  <SCORE.heavy>
37

>  <SCORE.norm>
-0.700713

>  <RMSD>
9.799

$$$$
2oe8_lig
 OpenBabel11021811463D
libRbt.so/2013.1/901 2013/11/27
 37 40  0  0  0  0  0  0  0  0999 V2000
   19.2362   -2.1856   49.1106 C   0  0  1  0  0  0  0  0  0  0  0  0
   20.6949   -2.7048   49.4039 C   0  0  1  0  0  0  0  0  0  0  0  0
   20.8736   -2.8937   50.9247 C   0  0  0  0  0  0  0  0  0  0  0  0
   20.6304   -1.4919   51.5665 C   0  0  1  0  0  0  0  0  0  0  0  0
   19.1463   -0.9374   51.2570 C   0  0  1  0  0  0  0  0  0  0  0  0
   18.9020    0.4694   51.8778 C   0  0  1  0  0  0  0  0  0  0  0  0
   19.1425    0.3443   53.4377 C   0  0  1  0  0  0  0  0  0  0  0  0
   20.5770   -0.2400   53.6841 C   0  0  2  0  0  0  0  0  0  0  0  0
   18.6237    1.7417   55.5999 C   0  0  0  0  0  0  0  0  0  0  0  0
   20.9402   -4.0052   48.7030 N   0  0  0  0  0  0  0  0  0  0  0  0
   18.9710    1.6920   54.1334 N   0  0  0  0  0  0  0  0  0  0  0  0
   18.2432   -3.1264   49.5381 O   0  0  0  0  0  0  0  0  0  0  0  0
   18.9655   -0.8895   49.7995 O   0  0  0  0  0  0  0  0  0  0  0  0
   20.7964   -1.5556   53.0141 O   0  0  0  0  0  0  0  0  0  0  0  0
   19.8211    1.3686   51.2554 O   0  0  0  0  0  0  0  0  0  0  0  0
   20.7654   -0.4082   55.0418 O   0  0  0  0  0  0  0  0  0  0  0  0
   22.1419   -0.6096   55.4048 C   0  0  2  0  0  0  0  0  0  0  0  0
   22.2787   -0.7358   56.9414 C   0  0  1  0  0  0  0  0  0  0  0  0
   21.9184    0.5970   57.6666 C   0  0  2  0  0  0  0  0  0  0  0  0
   22.8488    1.7331   57.1481 C   0  0  1  0  0  0  0  0  0  0  0  0
   22.5971    1.8590   55.5880 C   0  0  1  0  0  0  0  0  0  0  0  0
   23.4699    2.9381   54.9536 C   0  0  0  0  0  0  0  0  0  0  0  0
   22.5064    3.0084   57.8402 N   0  0  0  0  0  0  0  0  0  0  0  0
   22.9466    0.5480   54.9348 O   0  0  0  0  0  0  0  0  0  0  0  0
   21.4301   -1.8227   57.3577 O   0  0  0  0  0  0  0  0  0  0  0  0
   22.1139    0.4164   59.0535 O   0  0  0  0  0  0  0  0  0  0  0  0
   23.1889    3.0194   53.5812 O   0  0  0  0  0  0  0  0  0  0  0  0
   18.0126   -4.1669   48.6108 C   0  0  1  0  0  0  0  0  0  0  0  0
   17.2554   -5.3175   49.3487 C   0  0  1  0  0  0  0  0  0  0  0  0
   17.0224   -6.4849   48.3459 C   0  0  2  0  0  0  0  0  0  0  0  0
   16.1908   -6.0027   47.1173 C   0  0  1  0  0  0  0  0  0  0  0  0
   16.9420   -4.8339   46.3727 C   0  0  0  0  0  0  0  0  0  0  0  0
   17.1716   -3.6449   47.3954 C   0  0  2  0  0  0  0  0  0  0  0  0
   15.9863   -7.1345   46.1713 N   0  0  0  0  0  0  0  0  0  0  0  0
   17.8737   -2.5508   46.6875 N   0  0  0  0  0  0  0  0  0  0  0  0
   18.0362   -5.7991   50.4584 O   0  0  0  0  0  0  0  0  0  0  0  0
   16.3290   -7.5103   49.0378 O   0  0  0  0  0  0  0  0  0  0  0  0
  1  2  1  0  0  0  0
  1 12  1  1  0  0  0
  1 13  1  0  0  0  0
  2  3  1  0  0  0  0
  2 10  1  6  0  0  0
  4  3  1  6  0  0  0
  4  5  1  0  0  0  0
  4 14  1  0  0  0  0
  5  6  1  0  0  0  0
  5 13  1  6  0  0  0
  6  7  1  0  0  0  0
  6 15  1  6  0  0  0
  7  8  1  0  0  0  0
  7 11  1  1  0  0  0
  8 14  1  0  0  0  0
  8 16  1  1  0  0  0
  9 11  1  0  0  0  0
 17 16  1  1  0  0  0
 17 18  1  0  0  0  0
 17 24  1  0  0  0  0
 18 19  1  0  0  0  0
 18 25  1  1  0  0  0
 19 20  1  0  0  0  0
 19 26  1  1  0  0  0
 20 21  1  0  0  0  0
 20 23  1  1  0  0  0
 21 22  1  6  0  0  0
 21 24  1  0  0  0  0
 22 27  1  0  0  0  0
 28 12  1  1  0  0  0
 28 29  1  0  0  0  0
 28 33  1  0  0  0  0
 29 30  1  0  0  0  0
 29 36  1  1  0  0  0
 30 31  1  0  0  0  0
 30 37  1  1  0  0  0
 31 32  1  0  0  0  0
 31 34  1  6  0  0  0
 32 33  1  0  0  0  0
 33 35  1  6  0  0  0
M  END
>  <CHROM.1>
-82.05970708,156.32498487,-165.00776407,177.85286442,-179.02409769,163.59535034
19.87086646,-1.53178000,52.16569884,-2.95654450,1.14709485,2.28879661

>  <Name>
2oe8_lig

>  <RI>
0

>  <Rbt.Current_Directory>
/home/itssahil/PROJECTS/Mol_Feturizer/New_Systems/rnas/2oe8

>  <Rbt.Executable>
rbdock ($Id: //depot/dev/client3/rdock/2013.1/src/exe/rbdock.cxx#4 $)

>  <Rbt.Library>
libRbt.so (2013.1, Build901 2013/11/27)

>  <Rbt.Parameter_File>
/export/apps/rDock/src/rDock_2013.1_src/data/scripts/dock_solv.prm

>  <Rbt.Receptor>
prm/pocket_docking_6.prm

>  <SCORE>
-27.3352

>  <SCORE.INTER>
-22.09

>  <SCORE.INTER.CONST>
1

>  <SCORE.INTER.POLAR>
-1.86267

>  <SCORE.INTER.ROT>
6

>  <SCORE.INTER.SOLV>
15.7933

>  <SCORE.INTER.VDW>
-21.3822

>  <SCORE.INTER.norm>
-0.597027

>  <SCORE.INTRA>
-5.24518

>  <SCORE.INTRA.DIHEDRAL>
-11.4841

>  <SCORE.INTRA.DIHEDRAL.0>
16.4056

>  <SCORE.INTRA.POLAR>
0

>  <SCORE.INTRA.POLAR.0>
0

>  <SCORE.INTRA.REPUL>
0

>  <SCORE.INTRA.REPUL.0>
0

>  <SCORE.INTRA.SOLV>
0.487532

>  <SCORE.INTRA.SOLV.lig_0>
-90.9627

>  <SCORE.INTRA.VDW>
0.253111

>  <SCORE.INTRA.VDW.0>
-3.28744

>  <SCORE.INTRA.norm>
-0.141762

>  <SCORE.RESTR>
0

>  <SCORE.RESTR.CAVITY>
0

>  <SCORE.RESTR.norm>
0

>  <SCORE.SYSTEM>
0

>  <SCORE.SYSTEM.CONST>
0

>  <SCORE.SYSTEM.DIHEDRAL>
0

>  <SCORE.SYSTEM.SOLV>
0

>  <SCORE.SYSTEM.norm>
0

>  <SCORE.heavy>
37

>  <SCORE.norm>
-0.738788

>  <RMSD>
9.801

$$$$
2oe8_lig
 OpenBabel11021811463D
libRbt.so/2013.1/901 2013/11/27
 37 40  0  0  0  0  0  0  0  0999 V2000
   21.3744   -4.5561   47.7185 C   0  0  1  0  0  0  0  0  0  0  0  0
   22.3309   -5.1530   48.8196 C   0  0  1  0  0  0  0  0  0  0  0  0
   21.7513   -4.8513   50.2174 C   0  0  0  0  0  0  0  0  0  0  0  0
   21.6641   -3.2967   50.3236 C   0  0  1  0  0  0  0  0  0  0  0  0
   20.7034   -2.6686   49.1883 C   0  0  1  0  0  0  0  0  0  0  0  0
   20.6260   -1.1161   49.2754 C   0  0  1  0  0  0  0  0  0  0  0  0
   20.0999   -0.7509   50.7234 C   0  0  1  0  0  0  0  0  0  0  0  0
   21.0379   -1.4205   51.7872 C   0  0  2  0  0  0  0  0  0  0  0  0
   21.2522    1.6079   50.6545 C   0  0  0  0  0  0  0  0  0  0  0  0
   22.4754   -6.6329   48.6433 N   0  0  0  0  0  0  0  0  0  0  0  0
   20.0339    0.7608   50.9227 N   0  0  0  0  0  0  0  0  0  0  0  0
   20.0709   -5.1494   47.7713 O   0  0  0  0  0  0  0  0  0  0  0  0
   21.2124   -3.0804   47.8727 O   0  0  0  0  0  0  0  0  0  0  0  0
   21.1424   -2.9007   51.6268 O   0  0  0  0  0  0  0  0  0  0  0  0
   21.9416   -0.6155   49.0316 O   0  0  0  0  0  0  0  0  0  0  0  0
   20.5451   -1.1550   53.0497 O   0  0  0  0  0  0  0  0  0  0  0  0
   21.2352   -0.0846   53.7166 C   0  0  2  0  0  0  0  0  0  0  0  0
   21.3180   -0.3642   55.2367 C   0  0  1  0  0  0  0  0  0  0  0  0
   19.9102   -0.3426   55.9073 C   0  0  2  0  0  0  0  0  0  0  0  0
   19.2452    1.0444   55.6640 C   0  0  1  0  0  0  0  0  0  0  0  0
   19.1203    1.2266   54.0941 C   0  0  1  0  0  0  0  0  0  0  0  0
   18.4925    2.5670   53.7226 C   0  0  0  0  0  0  0  0  0  0  0  0
   17.8991    1.0677   56.3044 N   0  0  0  0  0  0  0  0  0  0  0  0
   20.4998    1.1871   53.4919 O   0  0  0  0  0  0  0  0  0  0  0  0
   21.9744   -1.6357   55.4018 O   0  0  0  0  0  0  0  0  0  0  0  0
   20.0738   -0.5561   57.2937 O   0  0  0  0  0  0  0  0  0  0  0  0
   18.4487    2.6912   52.3255 O   0  0  0  0  0  0  0  0  0  0  0  0
   19.1466   -4.5661   46.8761 C   0  0  1  0  0  0  0  0  0  0  0  0
   19.4181   -5.1453   45.4504 C   0  0  1  0  0  0  0  0  0  0  0  0
   18.4265   -4.4870   44.4473 C   0  0  2  0  0  0  0  0  0  0  0  0
   16.9494   -4.7675   44.8634 C   0  0  1  0  0  0  0  0  0  0  0  0
   16.6692   -4.1964   46.3056 C   0  0  0  0  0  0  0  0  0  0  0  0
   17.6766   -4.8737   47.3247 C   0  0  2  0  0  0  0  0  0  0  0  0
   16.0214   -4.1237   43.8927 N   0  0  0  0  0  0  0  0  0  0  0  0
   17.4042   -4.3349   48.6763 N   0  0  0  0  0  0  0  0  0  0  0  0
   20.7667   -4.8521   45.0398 O   0  0  0  0  0  0  0  0  0  0  0  0
   18.6893   -5.0341   43.1657 O   0  0  0  0  0  0  0  0  0  0  0  0
  1  2  1  0  0  0  0
  1 12  1  1  0  0  0
  1 13  1  0  0  0  0
  2  3  1  0  0  0  0
  2 10  1  6  0  0  0
  4  3  1  1  0  0  0
  4  5  1  0  0  0  0
  4 14  1  0  0  0  0
  5  6  1  0  0  0  0
  5 13  1  6  0  0  0
  6  7  1  0  0  0  0
  6 15  1  1  0  0  0
  7  8  1  0  0  0  0
  7 11  1  1  0  0  0
  8 14  1  0  0  0  0
  8 16  1  1  0  0  0
  9 11  1  0  0  0  0
 17 16  1  6  0  0  0
 17 18  1  0  0  0  0
 17 24  1  0  0  0  0
 18 19  1  0  0  0  0
 18 25  1  6  0  0  0
 19 20  1  0  0  0  0
 19 26  1  1  0  0  0
 20 21  1  0  0  0  0
 20 23  1  1  0  0  0
 21 22  1  1  0  0  0
 21 24  1  0  0  0  0
 22 27  1  0  0  0  0
 28 12  1  1  0  0  0
 28 29  1  0  0  0  0
 28 33  1  0  0  0  0
 29 30  1  0  0  0  0
 29 36  1  6  0  0  0
 30 31  1  0  0  0  0
 30 37  1  6  0  0  0
 31 32  1  0  0  0  0
 31 34  1  6  0  0  0
 32 33  1  0  0  0  0
 33 35  1  1  0  0  0
M  END
>  <CHROM.1>
174.99894912,-53.37552677,-100.30173641,-145.13781863,178.03788988,79.20508851
19.95934143,-2.15088662,50.20401186,-1.69525735,-0.69572272,0.95094989

>  <Name>
2oe8_lig

>  <RI>
0

>  <Rbt.Current_Directory>
/home/itssahil/PROJECTS/Mol_Feturizer/New_Systems/rnas/2oe8

>  <Rbt.Executable>
rbdock ($Id: //depot/dev/client3/rdock/2013.1/src/exe/rbdock.cxx#4 $)

>  <Rbt.Library>
libRbt.so (2013.1, Build901 2013/11/27)

>  <Rbt.Parameter_File>
/export/apps/rDock/src/rDock_2013.1_src/data/scripts/dock_solv.prm

>  <Rbt.Receptor>
prm/pocket_docking_4.prm

>  <SCORE>
-16.3974

>  <SCORE.INTER>
-15.5814

>  <SCORE.INTER.CONST>
1

>  <SCORE.INTER.POLAR>
-1.84816

>  <SCORE.INTER.ROT>
6

>  <SCORE.INTER.SOLV>
14.713

>  <SCORE.INTER.VDW>
-16.7314

>  <SCORE.INTER.norm>
-0.421119

>  <SCORE.INTRA>
-0.823327

>  <SCORE.INTRA.DIHEDRAL>
-4.59204

>  <SCORE.INTRA.DIHEDRAL.0>
16.4056

>  <SCORE.INTRA.POLAR>
0

>  <SCORE.INTRA.POLAR.0>
0

>  <SCORE.INTRA.REPUL>
0

>  <SCORE.INTRA.REPUL.0>
0

>  <SCORE.INTRA.SOLV>
-0.434147

>  <SCORE.INTRA.SOLV.lig_0>
-90.9627

>  <SCORE.INTRA.VDW>
1.68977

>  <SCORE.INTRA.VDW.0>
-3.28744

>  <SCORE.INTRA.norm>
-0.0222521

>  <SCORE.RESTR>
0.00726752

>  <SCORE.RESTR.CAVITY>
0.00726752

>  <SCORE.RESTR.norm>
0.000196419

>  <SCORE.SYSTEM>
0

>  <SCORE.SYSTEM.CONST>
0

>  <SCORE.SYSTEM.DIHEDRAL>
0

>  <SCORE.SYSTEM.SOLV>
0

>  <SCORE.SYSTEM.norm>
0

>  <SCORE.heavy>
37

>  <SCORE.norm>
-0.443174

>  <RMSD>
9.804

$$$$
2oe8_lig
 OpenBabel11021811463D
libRbt.so/2013.1/901 2013/11/27
 37 40  0  0  0  0  0  0  0  0999 V2000
   20.9235   -2.9514   49.4160 C   0  0  1  0  0  0  0  0  0  0  0  0
   21.6931   -3.4491   50.6979 C   0  0  1  0  0  0  0  0  0  0  0  0
   20.8957   -3.0531   51.9581 C   0  0  0  0  0  0  0  0  0  0  0  0
   20.7868   -1.4965   51.9301 C   0  0  1  0  0  0  0  0  0  0  0  0
   20.0185   -0.9703   50.6115 C   0  0  1  0  0  0  0  0  0  0  0  0
   19.9225    0.5830   50.5664 C   0  0  1  0  0  0  0  0  0  0  0  0
   19.1695    1.0469   51.8797 C   0  0  1  0  0  0  0  0  0  0  0  0
   19.9271    0.4737   53.1276 C   0  0  2  0  0  0  0  0  0  0  0  0
   18.3979    3.2221   53.1327 C   0  0  0  0  0  0  0  0  0  0  0  0
   21.8694   -4.9356   50.6603 N   0  0  0  0  0  0  0  0  0  0  0  0
   19.0668    2.5681   51.9501 N   0  0  0  0  0  0  0  0  0  0  0  0
   19.6305   -3.5596   49.3049 O   0  0  0  0  0  0  0  0  0  0  0  0
   20.7334   -1.4710   49.4293 O   0  0  0  0  0  0  0  0  0  0  0  0
   20.0615   -1.0126   53.0992 O   0  0  0  0  0  0  0  0  0  0  0  0
   21.2583    1.0848   50.4984 O   0  0  0  0  0  0  0  0  0  0  0  0
   19.2373    0.8248   54.2712 O   0  0  0  0  0  0  0  0  0  0  0  0
   19.9668    0.5573   55.4808 C   0  0  2  0  0  0  0  0  0  0  0  0
   19.2956    1.2682   56.6807 C   0  0  1  0  0  0  0  0  0  0  0  0
   19.3826    2.8204   56.5572 C   0  0  2  0  0  0  0  0  0  0  0  0
   20.8776    3.2464   56.4637 C   0  0  1  0  0  0  0  0  0  0  0  0
   21.4761    2.5478   55.1726 C   0  0  1  0  0  0  0  0  0  0  0  0
   22.9534    2.8770   54.9777 C   0  0  0  0  0  0  0  0  0  0  0  0
   20.9634    4.7301   56.3458 N   0  0  0  0  0  0  0  0  0  0  0  0
   21.3592    1.0551   55.3330 O   0  0  0  0  0  0  0  0  0  0  0  0
   17.9321    0.8077   56.7415 O   0  0  0  0  0  0  0  0  0  0  0  0
   18.7950    3.3924   57.7069 O   0  0  0  0  0  0  0  0  0  0  0  0
   23.4195    2.2583   53.8076 O   0  0  0  0  0  0  0  0  0  0  0  0
   19.3358   -4.0305   48.0060 C   0  0  1  0  0  0  0  0  0  0  0  0
   19.2319   -2.7966   47.0530 C   0  0  1  0  0  0  0  0  0  0  0  0
   18.8761   -3.2990   45.6233 C   0  0  2  0  0  0  0  0  0  0  0  0
   19.9617   -4.2881   45.0972 C   0  0  1  0  0  0  0  0  0  0  0  0
   20.0815   -5.5313   46.0589 C   0  0  0  0  0  0  0  0  0  0  0  0
   20.4500   -5.0159   47.5118 C   0  0  2  0  0  0  0  0  0  0  0  0
   19.5963   -4.7581   43.7322 N   0  0  0  0  0  0  0  0  0  0  0  0
   20.5643   -6.1893   48.4070 N   0  0  0  0  0  0  0  0  0  0  0  0
   18.2011   -1.8995   47.5066 O   0  0  0  0  0  0  0  0  0  0  0  0
   18.7949   -2.1625   44.7791 O   0  0  0  0  0  0  0  0  0  0  0  0
  1  2  1  0  0  0  0
  1 12  1  1  0  0  0
  1 13  1  0  0  0  0
  2  3  1  0  0  0  0
  2 10  1  6  0  0  0
  4  3  1  6  0  0  0
  4  5  1  0  0  0  0
  4 14  1  0  0  0  0
  5  6  1  0  0  0  0
  5 13  1  6  0  0  0
  6  7  1  0  0  0  0
  6 15  1  1  0  0  0
  7  8  1  0  0  0  0
  7 11  1  1  0  0  0
  8 14  1  0  0  0  0
  8 16  1  1  0  0  0
  9 11  1  0  0  0  0
 17 16  1  6  0  0  0
 17 18  1  0  0  0  0
 17 24  1  0  0  0  0
 18 19  1  0  0  0  0
 18 25  1  6  0  0  0
 19 20  1  0  0  0  0
 19 26  1  1  0  0  0
 20 21  1  0  0  0  0
 20 23  1  6  0  0  0
 21 22  1  1  0  0  0
 21 24  1  0  0  0  0
 22 27  1  0  0  0  0
 28 12  1  1  0  0  0
 28 29  1  0  0  0  0
 28 33  1  0  0  0  0
 29 30  1  0  0  0  0
 29 36  1  1  0  0  0
 30 31  1  0  0  0  0
 30 37  1  6  0  0  0
 31 32  1  0  0  0  0
 31 34  1  6  0  0  0
 32 33  1  0  0  0  0
 33 35  1  1  0  0  0
M  END
>  <CHROM.1>
-134.47308655,-179.27513815,-169.50775974,166.67892914,-178.66973951,-66.09869558
20.12875421,-0.70140616,51.42789080,-1.65567234,-1.13702802,0.86692054

>  <Name>
2oe8_lig

>  <RI>
0

>  <Rbt.Current_Directory>
/home/itssahil/PROJECTS/Mol_Feturizer/New_Systems/rnas/2oe8

>  <Rbt.Executable>
rbdock ($Id: //depot/dev/client3/rdock/2013.1/src/exe/rbdock.cxx#4 $)

>  <Rbt.Library>
libRbt.so (2013.1, Build901 2013/11/27)

>  <Rbt.Parameter_File>
/export/apps/rDock/src/rDock_2013.1_src/data/scripts/dock_solv.prm

>  <Rbt.Receptor>
prm/pocket_docking_4.prm

>  <SCORE>
-15.643

>  <SCORE.INTER>
-13.9373

>  <SCORE.INTER.CONST>
1

>  <SCORE.INTER.POLAR>
-1.7931

>  <SCORE.INTER.ROT>
6

>  <SCORE.INTER.SOLV>
12.1065

>  <SCORE.INTER.VDW>
-14.95

>  <SCORE.INTER.norm>
-0.376682

>  <SCORE.INTRA>
-1.70577

>  <SCORE.INTRA.DIHEDRAL>
-8.61437

>  <SCORE.INTRA.DIHEDRAL.0>
16.4056

>  <SCORE.INTRA.POLAR>
0

>  <SCORE.INTRA.POLAR.0>
0

>  <SCORE.INTRA.REPUL>
0.0106017

>  <SCORE.INTRA.REPUL.0>
0

>  <SCORE.INTRA.SOLV>
0.990687

>  <SCORE.INTRA.SOLV.lig_0>
-90.9627

>  <SCORE.INTRA.VDW>
2.05306

>  <SCORE.INTRA.VDW.0>
-3.28744

>  <SCORE.INTRA.norm>
-0.0461019

>  <SCORE.RESTR>
0

>  <SCORE.RESTR.CAVITY>
0

>  <SCORE.RESTR.norm>
0

>  <SCORE.SYSTEM>
0

>  <SCORE.SYSTEM.CONST>
0

>  <SCORE.SYSTEM.DIHEDRAL>
0

>  <SCORE.SYSTEM.SOLV>
0

>  <SCORE.SYSTEM.norm>
0

>  <SCORE.heavy>
37

>  <SCORE.norm>
-0.422784

>  <RMSD>
9.807

$$$$
2oe8_lig
 OpenBabel11021811463D
libRbt.so/2013.1/901 2013/11/27
 37 40  0  0  0  0  0  0  0  0999 V2000
   20.1100   -5.9264   49.9965 C   0  0  1  0  0  0  0  0  0  0  0  0
   18.7273   -5.7713   50.7363 C   0  0  1  0  0  0  0  0  0  0  0  0
   18.3770   -4.2734   50.8552 C   0  0  0  0  0  0  0  0  0  0  0  0
   19.5349   -3.6216   51.6738 C   0  0  1  0  0  0  0  0  0  0  0  0
   20.9618   -3.7907   50.9378 C   0  0  1  0  0  0  0  0  0  0  0  0
   22.1254   -3.1597   51.7574 C   0  0  1  0  0  0  0  0  0  0  0  0
   21.7781   -1.6293   51.9676 C   0  0  1  0  0  0  0  0  0  0  0  0
   20.3666   -1.5181   52.6422 C   0  0  2  0  0  0  0  0  0  0  0  0
   22.9268   -1.1939   54.2887 C   0  0  0  0  0  0  0  0  0  0  0  0
   17.6461   -6.4829   49.9833 N   0  0  0  0  0  0  0  0  0  0  0  0
   22.8447   -0.9304   52.8063 N   0  0  0  0  0  0  0  0  0  0  0  0
   20.0605   -5.3983   48.6651 O   0  0  0  0  0  0  0  0  0  0  0  0
   21.2060   -5.2244   50.7270 O   0  0  0  0  0  0  0  0  0  0  0  0
   19.2897   -2.1963   51.8624 O   0  0  0  0  0  0  0  0  0  0  0  0
   22.2059   -3.8745   52.9916 O   0  0  0  0  0  0  0  0  0  0  0  0
   20.0346   -0.1837   52.7698 O   0  0  0  0  0  0  0  0  0  0  0  0
   18.7002    0.0265   53.2617 C   0  0  2  0  0  0  0  0  0  0  0  0
   18.0977    1.3127   52.6466 C   0  0  1  0  0  0  0  0  0  0  0  0
   18.8510    2.5916   53.1251 C   0  0  2  0  0  0  0  0  0  0  0  0
   18.7898    2.6741   54.6790 C   0  0  1  0  0  0  0  0  0  0  0  0
   19.4933    1.3680   55.2380 C   0  0  1  0  0  0  0  0  0  0  0  0
   19.4834    1.3220   56.7634 C   0  0  0  0  0  0  0  0  0  0  0  0
   19.5091    3.8962   55.1390 N   0  0  0  0  0  0  0  0  0  0  0  0
   18.7396    0.1629   54.7410 O   0  0  0  0  0  0  0  0  0  0  0  0
   18.1443    1.1635   51.2147 O   0  0  0  0  0  0  0  0  0  0  0  0
   18.2150    3.7200   52.5624 O   0  0  0  0  0  0  0  0  0  0  0  0
   18.2583    0.8013   57.2072 O   0  0  0  0  0  0  0  0  0  0  0  0
   19.3138   -6.1939   47.7677 C   0  0  1  0  0  0  0  0  0  0  0  0
   18.9024   -5.3015   46.5527 C   0  0  1  0  0  0  0  0  0  0  0  0
   18.0515   -6.1579   45.5701 C   0  0  2  0  0  0  0  0  0  0  0  0
   18.8591   -7.3961   45.0719 C   0  0  1  0  0  0  0  0  0  0  0  0
   19.2882   -8.2968   46.2923 C   0  0  0  0  0  0  0  0  0  0  0  0
   20.1594   -7.4229   47.2870 C   0  0  2  0  0  0  0  0  0  0  0  0
   18.0228   -8.2012   44.1390 N   0  0  0  0  0  0  0  0  0  0  0  0
   20.5611   -8.2769   48.4274 N   0  0  0  0  0  0  0  0  0  0  0  0
   18.1185   -4.1793   46.9989 O   0  0  0  0  0  0  0  0  0  0  0  0
   17.6982   -5.3278   44.4760 O   0  0  0  0  0  0  0  0  0  0  0  0
  1  2  1  0  0  0  0
  1 12  1  6  0  0  0
  1 13  1  0  0  0  0
  2  3  1  0  0  0  0
  2 10  1  6  0  0  0
  4  3  1  6  0  0  0
  4  5  1  0  0  0  0
  4 14  1  0  0  0  0
  5  6  1  0  0  0  0
  5 13  1  1  0  0  0
  6  7  1  0  0  0  0
  6 15  1  1  0  0  0
  7  8  1  0  0  0  0
  7 11  1  1  0  0  0
  8 14  1  0  0  0  0
  8 16  1  6  0  0  0
  9 11  1  0  0  0  0
 17 16  1  6  0  0  0
 17 18  1  0  0  0  0
 17 24  1  0  0  0  0
 18 19  1  0  0  0  0
 18 25  1  6  0  0  0
 19 20  1  0  0  0  0
 19 26  1  6  0  0  0
 20 21  1  0  0  0  0
 20 23  1  1  0  0  0
 21 22  1  1  0  0  0
 21 24  1  0  0  0  0
 22 27  1  0  0  0  0
 28 12  1  1  0  0  0
 28 29  1  0  0  0  0
 28 33  1  0  0  0  0
 29 30  1  0  0  0  0
 29 36  1  1  0  0  0
 30 31  1  0  0  0  0
 30 37  1  6  0  0  0
 31 32  1  0  0  0  0
 31 34  1  6  0  0  0
 32 33  1  0  0  0  0
 33 35  1  1  0  0  0
M  END
>  <CHROM.1>
-72.34219582,-73.40838148,174.38509785,-147.02399895,83.77222518,159.79979361
19.54669826,-2.73464991,50.94529856,-1.62577165,-0.83783724,0.71542805

>  <Name>
2oe8_lig

>  <RI>
0

>  <Rbt.Current_Directory>
/home/itssahil/PROJECTS/Mol_Feturizer/New_Systems/rnas/2oe8

>  <Rbt.Executable>
rbdock ($Id: //depot/dev/client3/rdock/2013.1/src/exe/rbdock.cxx#4 $)

>  <Rbt.Library>
libRbt.so (2013.1, Build901 2013/11/27)

>  <Rbt.Parameter_File>
/export/apps/rDock/src/rDock_2013.1_src/data/scripts/dock_solv.prm

>  <Rbt.Receptor>
prm/pocket_docking_4.prm

>  <SCORE>
-19.301

>  <SCORE.INTER>
-18.2489

>  <SCORE.INTER.CONST>
1

>  <SCORE.INTER.POLAR>
-1.29221

>  <SCORE.INTER.ROT>
6

>  <SCORE.INTER.SOLV>
13.858

>  <SCORE.INTER.VDW>
-20.0779

>  <SCORE.INTER.norm>
-0.493214

>  <SCORE.INTRA>
-1.05214

>  <SCORE.INTRA.DIHEDRAL>
-7.53802

>  <SCORE.INTRA.DIHEDRAL.0>
16.4056

>  <SCORE.INTRA.POLAR>
0

>  <SCORE.INTRA.POLAR.0>
0

>  <SCORE.INTRA.REPUL>
0

>  <SCORE.INTRA.REPUL.0>
0

>  <SCORE.INTRA.SOLV>
1.42661

>  <SCORE.INTRA.SOLV.lig_0>
-90.9627

>  <SCORE.INTRA.VDW>
2.00356

>  <SCORE.INTRA.VDW.0>
-3.28744

>  <SCORE.INTRA.norm>
-0.0284362

>  <SCORE.RESTR>
0

>  <SCORE.RESTR.CAVITY>
0

>  <SCORE.RESTR.norm>
0

>  <SCORE.SYSTEM>
0

>  <SCORE.SYSTEM.CONST>
0

>  <SCORE.SYSTEM.DIHEDRAL>
0

>  <SCORE.SYSTEM.SOLV>
0

>  <SCORE.SYSTEM.norm>
0

>  <SCORE.heavy>
37

>  <SCORE.norm>
-0.52165

>  <RMSD>
9.807

$$$$
2oe8_lig
 OpenBabel11021811463D
libRbt.so/2013.1/901 2013/11/27
 37 40  0  0  0  0  0  0  0  0999 V2000
   22.0382   -3.4003   50.9689 C   0  0  1  0  0  0  0  0  0  0  0  0
   22.9984   -3.1378   52.1906 C   0  0  1  0  0  0  0  0  0  0  0  0
   22.1575   -2.7758   53.4325 C   0  0  0  0  0  0  0  0  0  0  0  0
   21.3568   -1.4908   53.0536 C   0  0  1  0  0  0  0  0  0  0  0  0
   20.3834   -1.7387   51.7898 C   0  0  1  0  0  0  0  0  0  0  0  0
   19.5951   -0.4560   51.3933 C   0  0  1  0  0  0  0  0  0  0  0  0
   18.7651   -0.0016   52.6627 C   0  0  1  0  0  0  0  0  0  0  0  0
   19.7475    0.1811   53.8717 C   0  0  2  0  0  0  0  0  0  0  0  0
   18.7009    2.6127   52.4226 C   0  0  0  0  0  0  0  0  0  0  0  0
   23.8251   -4.3526   52.4791 N   0  0  0  0  0  0  0  0  0  0  0  0
   17.9899    1.2835   52.3854 N   0  0  0  0  0  0  0  0  0  0  0  0
   21.1557   -4.5022   51.2162 O   0  0  0  0  0  0  0  0  0  0  0  0
   21.2012   -2.2036   50.6608 O   0  0  0  0  0  0  0  0  0  0  0  0
   20.5369   -1.0486   54.1758 O   0  0  0  0  0  0  0  0  0  0  0  0
   20.5570    0.5214   50.9929 O   0  0  0  0  0  0  0  0  0  0  0  0
   19.0182    0.5170   54.9952 O   0  0  0  0  0  0  0  0  0  0  0  0
   19.7309    1.3768   55.9005 C   0  0  2  0  0  0  0  0  0  0  0  0
   20.2793    0.5609   57.0960 C   0  0  1  0  0  0  0  0  0  0  0  0
   19.1310   -0.0067   57.9856 C   0  0  2  0  0  0  0  0  0  0  0  0
   18.2564    1.1702   58.5101 C   0  0  1  0  0  0  0  0  0  0  0  0
   17.6658    1.9085   57.2376 C   0  0  1  0  0  0  0  0  0  0  0  0
   16.7957    3.1019   57.6218 C   0  0  0  0  0  0  0  0  0  0  0  0
   17.1579    0.6301   59.3611 N   0  0  0  0  0  0  0  0  0  0  0  0
   18.8091    2.4271   56.4061 O   0  0  0  0  0  0  0  0  0  0  0  0
   21.1089   -0.4847   56.5545 O   0  0  0  0  0  0  0  0  0  0  0  0
   19.7097   -0.6932   59.0756 O   0  0  0  0  0  0  0  0  0  0  0  0
   15.6275    2.6450   58.2509 O   0  0  0  0  0  0  0  0  0  0  0  0
   20.2219   -4.7235   50.1794 C   0  0  1  0  0  0  0  0  0  0  0  0
   20.6666   -5.9950   49.3873 C   0  0  1  0  0  0  0  0  0  0  0  0
   19.6631   -6.2326   48.2213 C   0  0  2  0  0  0  0  0  0  0  0  0
   18.2145   -6.4251   48.7672 C   0  0  1  0  0  0  0  0  0  0  0  0
   17.7613   -5.1513   49.5776 C   0  0  0  0  0  0  0  0  0  0  0  0
   18.7819   -4.9165   50.7674 C   0  0  2  0  0  0  0  0  0  0  0  0
   17.2738   -6.6450   47.6339 N   0  0  0  0  0  0  0  0  0  0  0  0
   18.3470   -3.7215   51.5250 N   0  0  0  0  0  0  0  0  0  0  0  0
   21.9861   -5.8086   48.8419 O   0  0  0  0  0  0  0  0  0  0  0  0
   20.0850   -7.3935   47.5247 O   0  0  0  0  0  0  0  0  0  0  0  0
  1  2  1  0  0  0  0
  1 12  1  1  0  0  0
  1 13  1  0  0  0  0
  2  3  1  0  0  0  0
  2 10  1  1  0  0  0
  4  3  1  1  0  0  0
  4  5  1  0  0  0  0
  4 14  1  0  0  0  0
  5  6  1  0  0  0  0
  5 13  1  6  0  0  0
  6  7  1  0  0  0  0
  6 15  1  1  0  0  0
  7  8  1  0  0  0  0
  7 11  1  6  0  0  0
  8 14  1  0  0  0  0
  8 16  1  1  0  0  0
  9 11  1  0  0  0  0
 17 16  1  6  0  0  0
 17 18  1  0  0  0  0
 17 24  1  0  0  0  0
 18 19  1  0  0  0  0
 18 25  1  6  0  0  0
 19 20  1  0  0  0  0
 19 26  1  1  0  0  0
 20 21  1  0  0  0  0
 20 23  1  1  0  0  0
 21 22  1  1  0  0  0
 21 24  1  0  0  0  0
 22 27  1  0  0  0  0
 28 12  1  1  0  0  0
 28 29  1  0  0  0  0
 28 33  1  0  0  0  0
 29 30  1  0  0  0  0
 29 36  1  6  0  0  0
 30 31  1  0  0  0  0
 30 37  1  1  0  0  0
 31 32  1  0  0  0  0
 31 34  1  6  0  0  0
 32 33  1  0  0  0  0
 33 35  1  6  0  0  0
M  END
>  <CHROM.1>
176.42292828,-78.94926394,-148.05720293,-101.77568220,-68.10719387,105.86889006
19.66209284,-1.71226269,53.13242266,-1.38922959,-0.38433656,0.92406323

>  <Name>
2oe8_lig

>  <RI>
0

>  <Rbt.Current_Directory>
/home/itssahil/PROJECTS/Mol_Feturizer/New_Systems/rnas/2oe8

>  <Rbt.Executable>
rbdock ($Id: //depot/dev/client3/rdock/2013.1/src/exe/rbdock.cxx#4 $)

>  <Rbt.Library>
libRbt.so (2013.1, Build901 2013/11/27)

>  <Rbt.Parameter_File>
/export/apps/rDock/src/rDock_2013.1_src/data/scripts/dock_solv.prm

>  <Rbt.Receptor>
prm/pocket_docking_6.prm

>  <SCORE>
-19.8613

>  <SCORE.INTER>
-21.5871

>  <SCORE.INTER.CONST>
1

>  <SCORE.INTER.POLAR>
-1.94155

>  <SCORE.INTER.ROT>
6

>  <SCORE.INTER.SOLV>
22.8875

>  <SCORE.INTER.VDW>
-23.1487

>  <SCORE.INTER.norm>
-0.583436

>  <SCORE.INTRA>
1.72586

>  <SCORE.INTRA.DIHEDRAL>
0.0938994

>  <SCORE.INTRA.DIHEDRAL.0>
16.4056

>  <SCORE.INTRA.POLAR>
0

>  <SCORE.INTRA.POLAR.0>
0

>  <SCORE.INTRA.REPUL>
0

>  <SCORE.INTRA.REPUL.0>
0

>  <SCORE.INTRA.SOLV>
1.31075

>  <SCORE.INTRA.SOLV.lig_0>
-90.9627

>  <SCORE.INTRA.VDW>
1.02354

>  <SCORE.INTRA.VDW.0>
-3.28744

>  <SCORE.INTRA.norm>
0.0466449

>  <SCORE.RESTR>
0

>  <SCORE.RESTR.CAVITY>
0

>  <SCORE.RESTR.norm>
0

>  <SCORE.SYSTEM>
0

>  <SCORE.SYSTEM.CONST>
0

>  <SCORE.SYSTEM.DIHEDRAL>
0

>  <SCORE.SYSTEM.SOLV>
0

>  <SCORE.SYSTEM.norm>
0

>  <SCORE.heavy>
37

>  <SCORE.norm>
-0.536791

>  <RMSD>
9.809

$$$$
2oe8_lig
 OpenBabel11021811463D
libRbt.so/2013.1/901 2013/11/27
 37 40  0  0  0  0  0  0  0  0999 V2000
   20.7721   -4.4759   49.2876 C   0  0  1  0  0  0  0  0  0  0  0  0
   19.8827   -4.9677   50.4920 C   0  0  1  0  0  0  0  0  0  0  0  0
   19.6355   -3.7904   51.4582 C   0  0  0  0  0  0  0  0  0  0  0  0
   21.0441   -3.3269   51.9450 C   0  0  1  0  0  0  0  0  0  0  0  0
   21.9744   -2.8394   50.7191 C   0  0  1  0  0  0  0  0  0  0  0  0
   23.3883   -2.3932   51.1942 C   0  0  1  0  0  0  0  0  0  0  0  0
   23.1859   -1.2270   52.2458 C   0  0  1  0  0  0  0  0  0  0  0  0
   22.2407   -1.7347   53.3898 C   0  0  2  0  0  0  0  0  0  0  0  0
   24.6937    0.6884   53.2227 C   0  0  0  0  0  0  0  0  0  0  0  0
   18.5721   -5.4952   49.9957 N   0  0  0  0  0  0  0  0  0  0  0  0
   24.5227   -0.7512   52.8080 N   0  0  0  0  0  0  0  0  0  0  0  0
   20.1219   -3.4432   48.5361 O   0  0  0  0  0  0  0  0  0  0  0  0
   22.0855   -3.9436   49.7558 O   0  0  0  0  0  0  0  0  0  0  0  0
   20.9219   -2.2205   52.8874 O   0  0  0  0  0  0  0  0  0  0  0  0
   24.0203   -3.5393   51.7667 O   0  0  0  0  0  0  0  0  0  0  0  0
   22.0128   -0.6999   54.2754 O   0  0  0  0  0  0  0  0  0  0  0  0
   21.1720   -1.0713   55.3809 C   0  0  2  0  0  0  0  0  0  0  0  0
   19.8498   -0.2677   55.3432 C   0  0  1  0  0  0  0  0  0  0  0  0
   20.0897    1.2543   55.5839 C   0  0  2  0  0  0  0  0  0  0  0  0
   20.7865    1.4541   56.9622 C   0  0  1  0  0  0  0  0  0  0  0  0
   22.1648    0.6732   56.8993 C   0  0  1  0  0  0  0  0  0  0  0  0
   22.9421    0.7798   58.2082 C   0  0  0  0  0  0  0  0  0  0  0  0
   21.0168    2.9085   57.1947 N   0  0  0  0  0  0  0  0  0  0  0  0
   21.8829   -0.7855   56.6542 O   0  0  0  0  0  0  0  0  0  0  0  0
   19.2324   -0.5211   54.0667 O   0  0  0  0  0  0  0  0  0  0  0  0
   18.8379    1.9082   55.5834 O   0  0  0  0  0  0  0  0  0  0  0  0
   22.1573    0.2819   59.2595 O   0  0  0  0  0  0  0  0  0  0  0  0
   19.5660   -3.8937   47.3179 C   0  0  1  0  0  0  0  0  0  0  0  0
   18.3481   -2.9784   46.9708 C   0  0  1  0  0  0  0  0  0  0  0  0
   17.7061   -3.4834   45.6458 C   0  0  2  0  0  0  0  0  0  0  0  0
   18.7432   -3.4540   44.4808 C   0  0  1  0  0  0  0  0  0  0  0  0
   19.9812   -4.3662   44.8271 C   0  0  0  0  0  0  0  0  0  0  0  0
   20.6356   -3.8449   46.1733 C   0  0  2  0  0  0  0  0  0  0  0  0
   18.1074   -3.9461   43.2273 N   0  0  0  0  0  0  0  0  0  0  0  0
   21.7989   -4.7042   46.4888 N   0  0  0  0  0  0  0  0  0  0  0  0
   17.3649   -3.0342   48.0212 O   0  0  0  0  0  0  0  0  0  0  0  0
   16.6102   -2.6331   45.3509 O   0  0  0  0  0  0  0  0  0  0  0  0
  1  2  1  0  0  0  0
  1 12  1  1  0  0  0
  1 13  1  0  0  0  0
  2  3  1  0  0  0  0
  2 10  1  6  0  0  0
  4  3  1  6  0  0  0
  4  5  1  0  0  0  0
  4 14  1  0  0  0  0
  5  6  1  0  0  0  0
  5 13  1  6  0  0  0
  6  7  1  0  0  0  0
  6 15  1  1  0  0  0
  7  8  1  0  0  0  0
  7 11  1  1  0  0  0
  8 14  1  0  0  0  0
  8 16  1  1  0  0  0
  9 11  1  0  0  0  0
 17 16  1  6  0  0  0
 17 18  1  0  0  0  0
 17 24  1  0  0  0  0
 18 19  1  0  0  0  0
 18 25  1  6  0  0  0
 19 20  1  0  0  0  0
 19 26  1  1  0  0  0
 20 21  1  0  0  0  0
 20 23  1  6  0  0  0
 21 22  1  1  0  0  0
 21 24  1  0  0  0  0
 22 27  1  0  0  0  0
 28 12  1  1  0  0  0
 28 29  1  0  0  0  0
 28 33  1  0  0  0  0
 29 30  1  0  0  0  0
 29 36  1  1  0  0  0
 30 31  1  0  0  0  0
 30 37  1  6  0  0  0
 31 32  1  0  0  0  0
 31 34  1  6  0  0  0
 32 33  1  0  0  0  0
 33 35  1  1  0  0  0
M  END
>  <CHROM.1>
-102.84617261,148.75106858,-178.94127692,-115.97116981,57.80236677,151.81614866
20.75708824,-1.97401743,51.50016436,-1.81550436,-0.30256991,1.08881401

>  <Name>
2oe8_lig

>  <RI>
0

>  <Rbt.Current_Directory>
/home/itssahil/PROJECTS/Mol_Feturizer/New_Systems/rnas/2oe8

>  <Rbt.Executable>
rbdock ($Id: //depot/dev/client3/rdock/2013.1/src/exe/rbdock.cxx#4 $)

>  <Rbt.Library>
libRbt.so (2013.1, Build901 2013/11/27)

>  <Rbt.Parameter_File>
/export/apps/rDock/src/rDock_2013.1_src/data/scripts/dock_solv.prm

>  <Rbt.Receptor>
prm/pocket_docking_6.prm

>  <SCORE>
-14.2165

>  <SCORE.INTER>
-14.5625

>  <SCORE.INTER.CONST>
1

>  <SCORE.INTER.POLAR>
-0.910307

>  <SCORE.INTER.ROT>
6

>  <SCORE.INTER.SOLV>
11.4741

>  <SCORE.INTER.VDW>
-18.0987

>  <SCORE.INTER.norm>
-0.39358

>  <SCORE.INTRA>
0.345974

>  <SCORE.INTRA.DIHEDRAL>
0.498956

>  <SCORE.INTRA.DIHEDRAL.0>
16.4056

>  <SCORE.INTRA.POLAR>
0

>  <SCORE.INTRA.POLAR.0>
0

>  <SCORE.INTRA.REPUL>
0

>  <SCORE.INTRA.REPUL.0>
0

>  <SCORE.INTRA.SOLV>
0.157396

>  <SCORE.INTRA.SOLV.lig_0>
-90.9627

>  <SCORE.INTRA.VDW>
0.017798

>  <SCORE.INTRA.VDW.0>
-3.28744

>  <SCORE.INTRA.norm>
0.00935064

>  <SCORE.RESTR>
0

>  <SCORE.RESTR.CAVITY>
0

>  <SCORE.RESTR.norm>
0

>  <SCORE.SYSTEM>
0

>  <SCORE.SYSTEM.CONST>
0

>  <SCORE.SYSTEM.DIHEDRAL>
0

>  <SCORE.SYSTEM.SOLV>
0

>  <SCORE.SYSTEM.norm>
0

>  <SCORE.heavy>
37

>  <SCORE.norm>
-0.38423

>  <RMSD>
9.824

$$$$
2oe8_lig
 OpenBabel11021811463D
libRbt.so/2013.1/901 2013/11/27
 37 40  0  0  0  0  0  0  0  0999 V2000
   19.7195   -5.1890   49.1867 C   0  0  1  0  0  0  0  0  0  0  0  0
   18.5168   -5.3018   50.1987 C   0  0  1  0  0  0  0  0  0  0  0  0
   18.2199   -3.9105   50.7960 C   0  0  0  0  0  0  0  0  0  0  0  0
   19.5287   -3.4610   51.5177 C   0  0  1  0  0  0  0  0  0  0  0  0
   20.7752   -3.3609   50.4968 C   0  0  1  0  0  0  0  0  0  0  0  0
   22.0895   -2.9315   51.2124 C   0  0  1  0  0  0  0  0  0  0  0  0
   21.8145   -1.5340   51.9041 C   0  0  1  0  0  0  0  0  0  0  0  0
   20.5698   -1.6720   52.8483 C   0  0  2  0  0  0  0  0  0  0  0  0
   24.1253   -0.2875   51.9592 C   0  0  0  0  0  0  0  0  0  0  0  0
   17.2955   -5.8235   49.5069 N   0  0  0  0  0  0  0  0  0  0  0  0
   23.0386   -1.0486   52.6758 N   0  0  0  0  0  0  0  0  0  0  0  0
   19.4104   -4.3175   48.0917 O   0  0  0  0  0  0  0  0  0  0  0  0
   20.9505   -4.6696   49.8518 O   0  0  0  0  0  0  0  0  0  0  0  0
   19.3479   -2.1542   52.1396 O   0  0  0  0  0  0  0  0  0  0  0  0
   22.4065   -3.9542   52.1581 O   0  0  0  0  0  0  0  0  0  0  0  0
   20.2903   -0.4394   53.4047 O   0  0  0  0  0  0  0  0  0  0  0  0
   19.5514   -0.5246   54.6350 C   0  0  2  0  0  0  0  0  0  0  0  0
   19.1594    0.8904   55.1248 C   0  0  1  0  0  0  0  0  0  0  0  0
   20.4097    1.7315   55.5265 C   0  0  2  0  0  0  0  0  0  0  0  0
   21.1931    0.9862   56.6473 C   0  0  1  0  0  0  0  0  0  0  0  0
   21.6300   -0.4158   56.0501 C   0  0  1  0  0  0  0  0  0  0  0  0
   22.3989   -1.2553   57.0664 C   0  0  0  0  0  0  0  0  0  0  0  0
   22.3888    1.7886   57.0333 N   0  0  0  0  0  0  0  0  0  0  0  0
   20.3931   -1.1843   55.6669 O   0  0  0  0  0  0  0  0  0  0  0  0
   18.4066    1.5148   54.0673 O   0  0  0  0  0  0  0  0  0  0  0  0
   19.9685    2.9845   56.0058 O   0  0  0  0  0  0  0  0  0  0  0  0
   21.5647   -1.5499   58.1556 O   0  0  0  0  0  0  0  0  0  0  0  0
   18.3338   -4.7682   47.2957 C   0  0  1  0  0  0  0  0  0  0  0  0
   17.7381   -3.5367   46.5405 C   0  0  1  0  0  0  0  0  0  0  0  0
   16.5298   -4.0139   45.6831 C   0  0  2  0  0  0  0  0  0  0  0  0
   16.9732   -5.1033   44.6583 C   0  0  1  0  0  0  0  0  0  0  0  0
   17.5860   -6.3455   45.4108 C   0  0  0  0  0  0  0  0  0  0  0  0
   18.8196   -5.8564   46.2777 C   0  0  2  0  0  0  0  0  0  0  0  0
   15.8004   -5.5469   43.8550 N   0  0  0  0  0  0  0  0  0  0  0  0
   19.3910   -7.0289   46.9775 N   0  0  0  0  0  0  0  0  0  0  0  0
   17.2853   -2.5444   47.4805 O   0  0  0  0  0  0  0  0  0  0  0  0
   16.0136   -2.8808   45.0045 O   0  0  0  0  0  0  0  0  0  0  0  0
  1  2  1  0  0  0  0
  1 12  1  6  0  0  0
  1 13  1  0  0  0  0
  2  3  1  0  0  0  0
  2 10  1  6  0  0  0
  4  3  1  6  0  0  0
  4  5  1  0  0  0  0
  4 14  1  0  0  0  0
  5  6  1  0  0  0  0
  5 13  1  1  0  0  0
  6  7  1  0  0  0  0
  6 15  1  1  0  0  0
  7  8  1  0  0  0  0
  7 11  1  1  0  0  0
  8 14  1  0  0  0  0
  8 16  1  6  0  0  0
  9 11  1  0  0  0  0
 17 16  1  6  0  0  0
 17 18  1  0  0  0  0
 17 24  1  0  0  0  0
 18 19  1  0  0  0  0
 18 25  1  6  0  0  0
 19 20  1  0  0  0  0
 19 26  1  1  0  0  0
 20 21  1  0  0  0  0
 20 23  1  6  0  0  0
 21 22  1  1  0  0  0
 21 24  1  0  0  0  0
 22 27  1  0  0  0  0
 28 12  1  6  0  0  0
 28 29  1  0  0  0  0
 28 33  1  0  0  0  0
 29 30  1  0  0  0  0
 29 36  1  1  0  0  0
 30 31  1  0  0  0  0
 30 37  1  6  0  0  0
 31 32  1  0  0  0  0
 31 34  1  1  0  0  0
 32 33  1  0  0  0  0
 33 35  1  1  0  0  0
M  END
>  <CHROM.1>
-62.67973786,85.19208140,-157.04068378,-174.56955459,63.12667681,157.76839321
19.72864410,-2.46703822,51.20926039,-1.97625646,-0.65733616,0.80411251

>  <Name>
2oe8_lig

>  <RI>
0

>  <Rbt.Current_Directory>
/home/itssahil/PROJECTS/Mol_Feturizer/New_Systems/rnas/2oe8

>  <Rbt.Executable>
rbdock ($Id: //depot/dev/client3/rdock/2013.1/src/exe/rbdock.cxx#4 $)

>  <Rbt.Library>
libRbt.so (2013.1, Build901 2013/11/27)

>  <Rbt.Parameter_File>
/export/apps/rDock/src/rDock_2013.1_src/data/scripts/dock_solv.prm

>  <Rbt.Receptor>
prm/pocket_docking_5.prm

>  <SCORE>
-17.7105

>  <SCORE.INTER>
-14.3598

>  <SCORE.INTER.CONST>
1

>  <SCORE.INTER.POLAR>
-1.80074

>  <SCORE.INTER.ROT>
6

>  <SCORE.INTER.SOLV>
11.7498

>  <SCORE.INTER.VDW>
-15.0873

>  <SCORE.INTER.norm>
-0.388103

>  <SCORE.INTRA>
-3.35065

>  <SCORE.INTRA.DIHEDRAL>
-11.2164

>  <SCORE.INTRA.DIHEDRAL.0>
16.4056

>  <SCORE.INTRA.POLAR>
0

>  <SCORE.INTRA.POLAR.0>
0

>  <SCORE.INTRA.REPUL>
0

>  <SCORE.INTRA.REPUL.0>
0

>  <SCORE.INTRA.SOLV>
2.61146

>  <SCORE.INTRA.SOLV.lig_0>
-90.9627

>  <SCORE.INTRA.VDW>
0.951798

>  <SCORE.INTRA.VDW.0>
-3.28744

>  <SCORE.INTRA.norm>
-0.0905581

>  <SCORE.RESTR>
0

>  <SCORE.RESTR.CAVITY>
0

>  <SCORE.RESTR.norm>
0

>  <SCORE.SYSTEM>
0

>  <SCORE.SYSTEM.CONST>
0

>  <SCORE.SYSTEM.DIHEDRAL>
0

>  <SCORE.SYSTEM.SOLV>
0

>  <SCORE.SYSTEM.norm>
0

>  <SCORE.heavy>
37

>  <SCORE.norm>
-0.478662

>  <RMSD>
9.828

$$$$
2oe8_lig
 OpenBabel11021811463D
libRbt.so/2013.1/901 2013/11/27
 37 40  0  0  0  0  0  0  0  0999 V2000
   19.4339   -2.3642   49.2362 C   0  0  1  0  0  0  0  0  0  0  0  0
   20.6689   -2.9752   50.0009 C   0  0  1  0  0  0  0  0  0  0  0  0
   20.4097   -2.9138   51.5207 C   0  0  0  0  0  0  0  0  0  0  0  0
   20.2182   -1.4040   51.8666 C   0  0  1  0  0  0  0  0  0  0  0  0
   18.9685   -0.7587   51.0743 C   0  0  1  0  0  0  0  0  0  0  0  0
   18.7822    0.7525   51.3992 C   0  0  1  0  0  0  0  0  0  0  0  0
   18.5811    0.8766   52.9648 C   0  0  1  0  0  0  0  0  0  0  0  0
   19.7957    0.1964   53.6872 C   0  0  2  0  0  0  0  0  0  0  0  0
   19.5767    3.2976   53.1753 C   0  0  0  0  0  0  0  0  0  0  0  0
   20.8931   -4.3963   49.5856 N   0  0  0  0  0  0  0  0  0  0  0  0
   18.4357    2.3353   53.3896 N   0  0  0  0  0  0  0  0  0  0  0  0
   18.2342   -3.1063   49.4894 O   0  0  0  0  0  0  0  0  0  0  0  0
   19.1879   -0.9467   49.6334 O   0  0  0  0  0  0  0  0  0  0  0  0
   19.9849   -1.2315   53.2959 O   0  0  0  0  0  0  0  0  0  0  0  0
   19.9566    1.4277   50.9457 O   0  0  0  0  0  0  0  0  0  0  0  0
   19.5919    0.2485   55.0521 O   0  0  0  0  0  0  0  0  0  0  0  0
   20.7028   -0.2552   55.8131 C   0  0  2  0  0  0  0  0  0  0  0  0
   20.4417   -0.0743   57.3279 C   0  0  1  0  0  0  0  0  0  0  0  0
   20.3962    1.4312   57.7324 C   0  0  2  0  0  0  0  0  0  0  0  0
   21.7445    2.1087   57.3473 C   0  0  1  0  0  0  0  0  0  0  0  0
   21.9057    1.9553   55.7777 C   0  0  1  0  0  0  0  0  0  0  0  0
   23.2083    2.5707   55.2742 C   0  0  0  0  0  0  0  0  0  0  0  0
   21.7035    3.5481   57.7332 N   0  0  0  0  0  0  0  0  0  0  0  0
   21.9324    0.4891   55.4358 O   0  0  0  0  0  0  0  0  0  0  0  0
   19.2075   -0.7519   57.6323 O   0  0  0  0  0  0  0  0  0  0  0  0
   20.2040    1.5117   59.1291 O   0  0  0  0  0  0  0  0  0  0  0  0
   23.2889    2.4193   53.8815 O   0  0  0  0  0  0  0  0  0  0  0  0
   18.0277   -4.1740   48.5877 C   0  0  1  0  0  0  0  0  0  0  0  0
   17.2344   -5.2946   49.3338 C   0  0  1  0  0  0  0  0  0  0  0  0
   17.0271   -6.4916   48.3605 C   0  0  2  0  0  0  0  0  0  0  0  0
   16.2444   -6.0423   47.0881 C   0  0  1  0  0  0  0  0  0  0  0  0
   17.0320   -4.9036   46.3346 C   0  0  0  0  0  0  0  0  0  0  0  0
   17.2355   -3.6845   47.3269 C   0  0  2  0  0  0  0  0  0  0  0  0
   16.0639   -7.2021   46.1716 N   0  0  0  0  0  0  0  0  0  0  0  0
   17.9721   -2.6189   46.6106 N   0  0  0  0  0  0  0  0  0  0  0  0
   17.9708   -5.7467   50.4855 O   0  0  0  0  0  0  0  0  0  0  0  0
   16.3004   -7.4890   49.0590 O   0  0  0  0  0  0  0  0  0  0  0  0
  1  2  1  0  0  0  0
  1 12  1  1  0  0  0
  1 13  1  0  0  0  0
  2  3  1  0  0  0  0
  2 10  1  6  0  0  0
  4  3  1  1  0  0  0
  4  5  1  0  0  0  0
  4 14  1  0  0  0  0
  5  6  1  0  0  0  0
  5 13  1  6  0  0  0
  6  7  1  0  0  0  0
  6 15  1  1  0  0  0
  7  8  1  0  0  0  0
  7 11  1  6  0  0  0
  8 14  1  0  0  0  0
  8 16  1  1  0  0  0
  9 11  1  0  0  0  0
 17 16  1  6  0  0  0
 17 18  1  0  0  0  0
 17 24  1  0  0  0  0
 18 19  1  0  0  0  0
 18 25  1  6  0  0  0
 19 20  1  0  0  0  0
 19 26  1  1  0  0  0
 20 21  1  0  0  0  0
 20 23  1  6  0  0  0
 21 22  1  1  0  0  0
 21 24  1  0  0  0  0
 22 27  1  0  0  0  0
 28 12  1  1  0  0  0
 28 29  1  0  0  0  0
 28 33  1  0  0  0  0
 29 30  1  0  0  0  0
 29 36  1  1  0  0  0
 30 31  1  0  0  0  0
 30 37  1  1  0  0  0
 31 32  1  0  0  0  0
 31 34  1  6  0  0  0
 32 33  1  0  0  0  0
 33 35  1  6  0  0  0
M  END
>  <CHROM.1>
-88.86472314,-62.98116872,-175.30499563,176.09530097,-179.32458701,150.24445368
19.43465978,-1.32062402,52.17331729,-2.53591405,1.17532745,1.80620370

>  <Name>
2oe8_lig

>  <RI>
0

>  <Rbt.Current_Directory>
/home/itssahil/PROJECTS/Mol_Feturizer/New_Systems/rnas/2oe8

>  <Rbt.Executable>
rbdock ($Id: //depot/dev/client3/rdock/2013.1/src/exe/rbdock.cxx#4 $)

>  <Rbt.Library>
libRbt.so (2013.1, Build901 2013/11/27)

>  <Rbt.Parameter_File>
/export/apps/rDock/src/rDock_2013.1_src/data/scripts/dock_solv.prm

>  <Rbt.Receptor>
prm/pocket_docking_6.prm

>  <SCORE>
-26.1756

>  <SCORE.INTER>
-22.3943

>  <SCORE.INTER.CONST>
1

>  <SCORE.INTER.POLAR>
-1.99581

>  <SCORE.INTER.ROT>
6

>  <SCORE.INTER.SOLV>
15.207

>  <SCORE.INTER.VDW>
-20.9458

>  <SCORE.INTER.norm>
-0.605252

>  <SCORE.INTRA>
-3.78125

>  <SCORE.INTRA.DIHEDRAL>
-9.23312

>  <SCORE.INTRA.DIHEDRAL.0>
16.4056

>  <SCORE.INTRA.POLAR>
0

>  <SCORE.INTRA.POLAR.0>
0

>  <SCORE.INTRA.REPUL>
0

>  <SCORE.INTRA.REPUL.0>
0

>  <SCORE.INTRA.SOLV>
-0.0535658

>  <SCORE.INTRA.SOLV.lig_0>
-90.9627

>  <SCORE.INTRA.VDW>
0.862098

>  <SCORE.INTRA.VDW.0>
-3.28744

>  <SCORE.INTRA.norm>
-0.102196

>  <SCORE.RESTR>
0

>  <SCORE.RESTR.CAVITY>
0

>  <SCORE.RESTR.norm>
0

>  <SCORE.SYSTEM>
0

>  <SCORE.SYSTEM.CONST>
0

>  <SCORE.SYSTEM.DIHEDRAL>
0

>  <SCORE.SYSTEM.SOLV>
0

>  <SCORE.SYSTEM.norm>
0

>  <SCORE.heavy>
37

>  <SCORE.norm>
-0.707447

>  <RMSD>
9.832

$$$$
2oe8_lig
 OpenBabel11021811463D
libRbt.so/2013.1/901 2013/11/27
 37 40  0  0  0  0  0  0  0  0999 V2000
   19.4260   -2.3373   49.2074 C   0  0  1  0  0  0  0  0  0  0  0  0
   20.6475   -2.9658   49.9796 C   0  0  1  0  0  0  0  0  0  0  0  0
   20.3700   -2.9211   51.4968 C   0  0  0  0  0  0  0  0  0  0  0  0
   20.1842   -1.4143   51.8587 C   0  0  1  0  0  0  0  0  0  0  0  0
   18.9486   -0.7511   51.0591 C   0  0  1  0  0  0  0  0  0  0  0  0
   18.7683    0.7573   51.4002 C   0  0  1  0  0  0  0  0  0  0  0  0
   18.5488    0.8637   52.9646 C   0  0  1  0  0  0  0  0  0  0  0  0
   19.7499    0.1666   53.6935 C   0  0  2  0  0  0  0  0  0  0  0  0
   19.5049    3.3059   53.0987 C   0  0  0  0  0  0  0  0  0  0  0  0
   20.8675   -4.3832   49.5497 N   0  0  0  0  0  0  0  0  0  0  0  0
   18.4077    2.3181   53.4054 N   0  0  0  0  0  0  0  0  0  0  0  0
   18.2184   -3.0743   49.4368 O   0  0  0  0  0  0  0  0  0  0  0  0
   19.1845   -0.9231   49.6189 O   0  0  0  0  0  0  0  0  0  0  0  0
   19.9345   -1.2576   53.2871 O   0  0  0  0  0  0  0  0  0  0  0  0
   19.9526    1.4300   50.9693 O   0  0  0  0  0  0  0  0  0  0  0  0
   19.5297    0.2035   55.0563 O   0  0  0  0  0  0  0  0  0  0  0  0
   20.6670   -0.2177   55.8282 C   0  0  2  0  0  0  0  0  0  0  0  0
   20.4105    0.0209   57.3359 C   0  0  1  0  0  0  0  0  0  0  0  0
   20.3042    1.5399   57.6723 C   0  0  2  0  0  0  0  0  0  0  0  0
   21.6194    2.2554   57.2437 C   0  0  1  0  0  0  0  0  0  0  0  0
   21.7745    2.0377   55.6811 C   0  0  1  0  0  0  0  0  0  0  0  0
   23.0456    2.6838   55.1375 C   0  0  0  0  0  0  0  0  0  0  0  0
   21.5203    3.7079   57.5646 N   0  0  0  0  0  0  0  0  0  0  0  0
   21.8609    0.5598   55.4055 O   0  0  0  0  0  0  0  0  0  0  0  0
   19.2088   -0.6936   57.6827 O   0  0  0  0  0  0  0  0  0  0  0  0
   20.1199    1.6758   59.0658 O   0  0  0  0  0  0  0  0  0  0  0  0
   23.1128    2.4875   53.7497 O   0  0  0  0  0  0  0  0  0  0  0  0
   18.0347   -4.1528   48.5431 C   0  0  1  0  0  0  0  0  0  0  0  0
   17.2417   -5.2735   49.2893 C   0  0  1  0  0  0  0  0  0  0  0  0
   17.0594   -6.4820   48.3253 C   0  0  2  0  0  0  0  0  0  0  0  0
   16.2902   -6.0528   47.0377 C   0  0  1  0  0  0  0  0  0  0  0  0
   17.0775   -4.9141   46.2839 C   0  0  0  0  0  0  0  0  0  0  0  0
   17.2555   -3.6834   47.2666 C   0  0  2  0  0  0  0  0  0  0  0  0
   16.1335   -7.2233   46.1304 N   0  0  0  0  0  0  0  0  0  0  0  0
   17.9920   -2.6179   46.5500 N   0  0  0  0  0  0  0  0  0  0  0  0
   17.9662   -5.7071   50.4556 O   0  0  0  0  0  0  0  0  0  0  0  0
   16.3325   -7.4794   49.0235 O   0  0  0  0  0  0  0  0  0  0  0  0
  1  2  1  0  0  0  0
  1 12  1  1  0  0  0
  1 13  1  0  0  0  0
  2  3  1  0  0  0  0
  2 10  1  6  0  0  0
  4  3  1  1  0  0  0
  4  5  1  0  0  0  0
  4 14  1  0  0  0  0
  5  6  1  0  0  0  0
  5 13  1  6  0  0  0
  6  7  1  0  0  0  0
  6 15  1  1  0  0  0
  7  8  1  0  0  0  0
  7 11  1  1  0  0  0
  8 14  1  0  0  0  0
  8 16  1  1  0  0  0
  9 11  1  0  0  0  0
 17 16  1  6  0  0  0
 17 18  1  0  0  0  0
 17 24  1  0  0  0  0
 18 19  1  0  0  0  0
 18 25  1  6  0  0  0
 19 20  1  0  0  0  0
 19 26  1  1  0  0  0
 20 21  1  0  0  0  0
 20 23  1  6  0  0  0
 21 22  1  1  0  0  0
 21 24  1  0  0  0  0
 22 27  1  0  0  0  0
 28 12  1  1  0  0  0
 28 29  1  0  0  0  0
 28 33  1  0  0  0  0
 29 30  1  0  0  0  0
 29 36  1  1  0  0  0
 30 31  1  0  0  0  0
 30 37  1  1  0  0  0
 31 32  1  0  0  0  0
 31 34  1  6  0  0  0
 32 33  1  0  0  0  0
 33 35  1  6  0  0  0
M  END
>  <CHROM.1>
-87.18984912,-57.15590522,-170.67619522,172.78863961,-178.56869025,149.23137475
19.39922270,-1.28946405,52.13555073,-2.51058375,1.18360744,1.77588371

>  <Name>
2oe8_lig

>  <RI>
0

>  <Rbt.Current_Directory>
/home/itssahil/PROJECTS/Mol_Feturizer/New_Systems/rnas/2oe8

>  <Rbt.Executable>
rbdock ($Id: //depot/dev/client3/rdock/2013.1/src/exe/rbdock.cxx#4 $)

>  <Rbt.Library>
libRbt.so (2013.1, Build901 2013/11/27)

>  <Rbt.Parameter_File>
/export/apps/rDock/src/rDock_2013.1_src/data/scripts/dock_solv.prm

>  <Rbt.Receptor>
prm/pocket_docking_4.prm

>  <SCORE>
-25.5827

>  <SCORE.INTER>
-22.1142

>  <SCORE.INTER.CONST>
1

>  <SCORE.INTER.POLAR>
-1.9994

>  <SCORE.INTER.ROT>
6

>  <SCORE.INTER.SOLV>
15.001

>  <SCORE.INTER.VDW>
-20.6785

>  <SCORE.INTER.norm>
-0.597682

>  <SCORE.INTRA>
-3.46842

>  <SCORE.INTRA.DIHEDRAL>
-8.8612

>  <SCORE.INTRA.DIHEDRAL.0>
16.4056

>  <SCORE.INTRA.POLAR>
0

>  <SCORE.INTRA.POLAR.0>
0

>  <SCORE.INTRA.REPUL>
0.00122042

>  <SCORE.INTRA.REPUL.0>
0

>  <SCORE.INTRA.SOLV>
0.11998

>  <SCORE.INTRA.SOLV.lig_0>
-90.9627

>  <SCORE.INTRA.VDW>
0.896092

>  <SCORE.INTRA.VDW.0>
-3.28744

>  <SCORE.INTRA.norm>
-0.093741

>  <SCORE.RESTR>
0

>  <SCORE.RESTR.CAVITY>
0

>  <SCORE.RESTR.norm>
0

>  <SCORE.SYSTEM>
0

>  <SCORE.SYSTEM.CONST>
0

>  <SCORE.SYSTEM.DIHEDRAL>
0

>  <SCORE.SYSTEM.SOLV>
0

>  <SCORE.SYSTEM.norm>
0

>  <SCORE.heavy>
37

>  <SCORE.norm>
-0.691423

>  <RMSD>
9.834

$$$$
2oe8_lig
 OpenBabel11021811463D
libRbt.so/2013.1/901 2013/11/27
 37 40  0  0  0  0  0  0  0  0999 V2000
   21.8940   -3.7073   49.9978 C   0  0  1  0  0  0  0  0  0  0  0  0
   23.2976   -3.7314   50.7139 C   0  0  1  0  0  0  0  0  0  0  0  0
   23.0960   -3.5932   52.2374 C   0  0  0  0  0  0  0  0  0  0  0  0
   22.3708   -2.2286   52.4560 C   0  0  1  0  0  0  0  0  0  0  0  0
   20.9396   -2.1813   51.7106 C   0  0  1  0  0  0  0  0  0  0  0  0
   20.2178   -0.8160   51.9079 C   0  0  1  0  0  0  0  0  0  0  0  0
   20.0486   -0.5933   53.4663 C   0  0  1  0  0  0  0  0  0  0  0  0
   21.4574   -0.6938   54.1485 C   0  0  2  0  0  0  0  0  0  0  0  0
   18.8940    1.0518   55.1566 C   0  0  0  0  0  0  0  0  0  0  0  0
   24.0174   -5.0101   50.4154 N   0  0  0  0  0  0  0  0  0  0  0  0
   19.3883    0.7501   53.7644 N   0  0  0  0  0  0  0  0  0  0  0  0
   21.0679   -4.8017   50.4147 O   0  0  0  0  0  0  0  0  0  0  0  0
   21.1547   -2.4419   50.2804 O   0  0  0  0  0  0  0  0  0  0  0  0
   22.1482   -1.9888   53.8773 O   0  0  0  0  0  0  0  0  0  0  0  0
   21.0373    0.1842   51.3005 O   0  0  0  0  0  0  0  0  0  0  0  0
   21.3044   -0.5618   55.5146 O   0  0  0  0  0  0  0  0  0  0  0  0
   22.5527   -0.4506   56.2191 C   0  0  2  0  0  0  0  0  0  0  0  0
   22.3022   -0.3595   57.7437 C   0  0  1  0  0  0  0  0  0  0  0  0
   21.5643    0.9584   58.1320 C   0  0  2  0  0  0  0  0  0  0  0  0
   22.4109    2.1792   57.6650 C   0  0  1  0  0  0  0  0  0  0  0  0
   22.5581    2.0630   56.0908 C   0  0  1  0  0  0  0  0  0  0  0  0
   23.3889    3.2032   55.5089 C   0  0  0  0  0  0  0  0  0  0  0  0
   21.7076    3.4405   58.0353 N   0  0  0  0  0  0  0  0  0  0  0  0
   23.2635    0.7731   55.7655 O   0  0  0  0  0  0  0  0  0  0  0  0
   21.5526   -1.5293   58.1239 O   0  0  0  0  0  0  0  0  0  0  0  0
   21.4171    0.9895   59.5362 O   0  0  0  0  0  0  0  0  0  0  0  0
   23.4619    3.0636   54.1145 O   0  0  0  0  0  0  0  0  0  0  0  0
   19.8811   -4.9349   49.6600 C   0  0  1  0  0  0  0  0  0  0  0  0
   20.0529   -6.1506   48.6934 C   0  0  1  0  0  0  0  0  0  0  0  0
   18.7634   -6.2897   47.8327 C   0  0  2  0  0  0  0  0  0  0  0  0
   17.5121   -6.5032   48.7394 C   0  0  1  0  0  0  0  0  0  0  0  0
   17.3371   -5.2864   49.7260 C   0  0  0  0  0  0  0  0  0  0  0  0
   18.6494   -5.1521   50.6047 C   0  0  2  0  0  0  0  0  0  0  0  0
   16.2924   -6.6278   47.8940 N   0  0  0  0  0  0  0  0  0  0  0  0
   18.4752   -4.0102   51.5304 N   0  0  0  0  0  0  0  0  0  0  0  0
   21.1800   -5.9416   47.8221 O   0  0  0  0  0  0  0  0  0  0  0  0
   18.9428   -7.4018   46.9714 O   0  0  0  0  0  0  0  0  0  0  0  0
  1  2  1  0  0  0  0
  1 12  1  1  0  0  0
  1 13  1  0  0  0  0
  2  3  1  0  0  0  0
  2 10  1  1  0  0  0
  4  3  1  1  0  0  0
  4  5  1  0  0  0  0
  4 14  1  0  0  0  0
  5  6  1  0  0  0  0
  5 13  1  6  0  0  0
  6  7  1  0  0  0  0
  6 15  1  1  0  0  0
  7  8  1  0  0  0  0
  7 11  1  6  0  0  0
  8 14  1  0  0  0  0
  8 16  1  1  0  0  0
  9 11  1  0  0  0  0
 17 16  1  6  0  0  0
 17 18  1  0  0  0  0
 17 24  1  0  0  0  0
 18 19  1  0  0  0  0
 18 25  1  6  0  0  0
 19 20  1  0  0  0  0
 19 26  1  1  0  0  0
 20 21  1  0  0  0  0
 20 23  1  6  0  0  0
 21 22  1  1  0  0  0
 21 24  1  0  0  0  0
 22 27  1  0  0  0  0
 28 12  1  1  0  0  0
 28 29  1  0  0  0  0
 28 33  1  0  0  0  0
 29 30  1  0  0  0  0
 29 36  1  6  0  0  0
 30 31  1  0  0  0  0
 30 37  1  6  0  0  0
 31 32  1  0  0  0  0
 31 34  1  6  0  0  0
 32 33  1  0  0  0  0
 33 35  1  1  0  0  0
M  END
>  <CHROM.1>
-171.25576940,168.34247162,-171.72506772,-177.89543700,-178.80210747,105.04316353
20.98052416,-1.98527398,52.82369071,-1.81979474,0.21546477,0.89860281

>  <Name>
2oe8_lig

>  <RI>
0

>  <Rbt.Current_Directory>
/home/itssahil/PROJECTS/Mol_Feturizer/New_Systems/rnas/2oe8

>  <Rbt.Executable>
rbdock ($Id: //depot/dev/client3/rdock/2013.1/src/exe/rbdock.cxx#4 $)

>  <Rbt.Library>
libRbt.so (2013.1, Build901 2013/11/27)

>  <Rbt.Parameter_File>
/export/apps/rDock/src/rDock_2013.1_src/data/scripts/dock_solv.prm

>  <Rbt.Receptor>
prm/pocket_docking_6.prm

>  <SCORE>
-19.6542

>  <SCORE.INTER>
-14.6177

>  <SCORE.INTER.CONST>
1

>  <SCORE.INTER.POLAR>
-1.03923

>  <SCORE.INTER.ROT>
6

>  <SCORE.INTER.SOLV>
13.558

>  <SCORE.INTER.VDW>
-18.4004

>  <SCORE.INTER.norm>
-0.395074

>  <SCORE.INTRA>
-5.03642

>  <SCORE.INTRA.DIHEDRAL>
-9.35666

>  <SCORE.INTRA.DIHEDRAL.0>
16.4056

>  <SCORE.INTRA.POLAR>
0

>  <SCORE.INTRA.POLAR.0>
0

>  <SCORE.INTRA.REPUL>
0

>  <SCORE.INTRA.REPUL.0>
0

>  <SCORE.INTRA.SOLV>
-0.6329

>  <SCORE.INTRA.SOLV.lig_0>
-90.9627

>  <SCORE.INTRA.VDW>
-0.0416403

>  <SCORE.INTRA.VDW.0>
-3.28744

>  <SCORE.INTRA.norm>
-0.13612

>  <SCORE.RESTR>
0

>  <SCORE.RESTR.CAVITY>
0

>  <SCORE.RESTR.norm>
0

>  <SCORE.SYSTEM>
0

>  <SCORE.SYSTEM.CONST>
0

>  <SCORE.SYSTEM.DIHEDRAL>
0

>  <SCORE.SYSTEM.SOLV>
0

>  <SCORE.SYSTEM.norm>
0

>  <SCORE.heavy>
37

>  <SCORE.norm>
-0.531194

>  <RMSD>
9.835

$$$$
2oe8_lig
 OpenBabel11021811463D
libRbt.so/2013.1/901 2013/11/27
 37 40  0  0  0  0  0  0  0  0999 V2000
   21.9934   -3.5194   50.2093 C   0  0  1  0  0  0  0  0  0  0  0  0
   23.2612   -3.5052   51.1452 C   0  0  1  0  0  0  0  0  0  0  0  0
   22.8085   -3.4014   52.6166 C   0  0  0  0  0  0  0  0  0  0  0  0
   22.0050   -2.0682   52.7293 C   0  0  1  0  0  0  0  0  0  0  0  0
   20.7139   -2.0597   51.7602 C   0  0  1  0  0  0  0  0  0  0  0  0
   19.9173   -0.7252   51.8524 C   0  0  1  0  0  0  0  0  0  0  0  0
   19.4876   -0.5363   53.3645 C   0  0  1  0  0  0  0  0  0  0  0  0
   20.7690   -0.5977   54.2669 C   0  0  2  0  0  0  0  0  0  0  0  0
   18.1663    1.5064   52.3756 C   0  0  0  0  0  0  0  0  0  0  0  0
   24.0690   -4.7515   50.9539 N   0  0  0  0  0  0  0  0  0  0  0  0
   18.7359    0.7767   53.5659 N   0  0  0  0  0  0  0  0  0  0  0  0
   21.1533   -4.6503   50.4727 O   0  0  0  0  0  0  0  0  0  0  0  0
   21.1693   -2.2870   50.3816 O   0  0  0  0  0  0  0  0  0  0  0  0
   21.5444   -1.8617   54.0976 O   0  0  0  0  0  0  0  0  0  0  0  0
   20.7855    0.3147   51.3989 O   0  0  0  0  0  0  0  0  0  0  0  0
   20.3902   -0.4955   55.5910 O   0  0  0  0  0  0  0  0  0  0  0  0
   20.9072    0.6774   56.2421 C   0  0  2  0  0  0  0  0  0  0  0  0
   20.8341    0.5140   57.7795 C   0  0  1  0  0  0  0  0  0  0  0  0
   19.3605    0.4548   58.2865 C   0  0  2  0  0  0  0  0  0  0  0  0
   18.6169    1.7551   57.8608 C   0  0  1  0  0  0  0  0  0  0  0  0
   18.6621    1.8145   56.2772 C   0  0  1  0  0  0  0  0  0  0  0  0
   17.9741    3.0629   55.7323 C   0  0  0  0  0  0  0  0  0  0  0  0
   17.2078    1.7011   58.3446 N   0  0  0  0  0  0  0  0  0  0  0  0
   20.1012    1.8581   55.8362 O   0  0  0  0  0  0  0  0  0  0  0  0
   21.5689   -0.6779   58.1175 O   0  0  0  0  0  0  0  0  0  0  0  0
   19.3777    0.3549   59.6951 O   0  0  0  0  0  0  0  0  0  0  0  0
   18.6132    4.2061   56.2361 O   0  0  0  0  0  0  0  0  0  0  0  0
   20.0443   -4.7468   49.6028 C   0  0  1  0  0  0  0  0  0  0  0  0
   20.2796   -5.9605   48.6472 C   0  0  1  0  0  0  0  0  0  0  0  0
   19.0789   -6.0596   47.6616 C   0  0  2  0  0  0  0  0  0  0  0  0
   17.7385   -6.2451   48.4377 C   0  0  1  0  0  0  0  0  0  0  0  0
   17.4981   -5.0303   49.4129 C   0  0  0  0  0  0  0  0  0  0  0  0
   18.7196   -4.9368   50.4186 C   0  0  2  0  0  0  0  0  0  0  0  0
   16.6061   -6.3315   47.4744 N   0  0  0  0  0  0  0  0  0  0  0  0
   18.4840   -3.7965   51.3327 N   0  0  0  0  0  0  0  0  0  0  0  0
   21.4928   -5.7765   47.8939 O   0  0  0  0  0  0  0  0  0  0  0  0
   19.3140   -7.1707   46.8124 O   0  0  0  0  0  0  0  0  0  0  0  0
  1  2  1  0  0  0  0
  1 12  1  1  0  0  0
  1 13  1  0  0  0  0
  2  3  1  0  0  0  0
  2 10  1  1  0  0  0
  4  3  1  1  0  0  0
  4  5  1  0  0  0  0
  4 14  1  0  0  0  0
  5  6  1  0  0  0  0
  5 13  1  6  0  0  0
  6  7  1  0  0  0  0
  6 15  1  1  0  0  0
  7  8  1  0  0  0  0
  7 11  1  6  0  0  0
  8 14  1  0  0  0  0
  8 16  1  1  0  0  0
  9 11  1  0  0  0  0
 17 16  1  6  0  0  0
 17 18  1  0  0  0  0
 17 24  1  0  0  0  0
 18 19  1  0  0  0  0
 18 25  1  6  0  0  0
 19 20  1  0  0  0  0
 19 26  1  1  0  0  0
 20 21  1  0  0  0  0
 20 23  1  6  0  0  0
 21 22  1  1  0  0  0
 21 24  1  0  0  0  0
 22 27  1  0  0  0  0
 28 12  1  1  0  0  0
 28 29  1  0  0  0  0
 28 33  1  0  0  0  0
 29 30  1  0  0  0  0
 29 36  1  6  0  0  0
 30 31  1  0  0  0  0
 30 37  1  6  0  0  0
 31 32  1  0  0  0  0
 31 34  1  6  0  0  0
 32 33  1  0  0  0  0
 33 35  1  1  0  0  0
M  END
>  <CHROM.1>
-176.47280836,16.68308120,-116.96998970,-162.22801738,59.79782927,109.27970759
19.99807686,-1.81267697,52.85720175,-1.52349586,-0.33791882,0.88972764

>  <Name>
2oe8_lig

>  <RI>
0

>  <Rbt.Current_Directory>
/home/itssahil/PROJECTS/Mol_Feturizer/New_Systems/rnas/2oe8

>  <Rbt.Executable>
rbdock ($Id: //depot/dev/client3/rdock/2013.1/src/exe/rbdock.cxx#4 $)

>  <Rbt.Library>
libRbt.so (2013.1, Build901 2013/11/27)

>  <Rbt.Parameter_File>
/export/apps/rDock/src/rDock_2013.1_src/data/scripts/dock_solv.prm

>  <Rbt.Receptor>
prm/pocket_docking_3.prm

>  <SCORE>
-11.6775

>  <SCORE.INTER>
-13.9203

>  <SCORE.INTER.CONST>
1

>  <SCORE.INTER.POLAR>
-1.02086

>  <SCORE.INTER.ROT>
6

>  <SCORE.INTER.SOLV>
14.5454

>  <SCORE.INTER.VDW>
-18.3258

>  <SCORE.INTER.norm>
-0.376224

>  <SCORE.INTRA>
2.10993

>  <SCORE.INTRA.DIHEDRAL>
-0.119479

>  <SCORE.INTRA.DIHEDRAL.0>
16.4056

>  <SCORE.INTRA.POLAR>
0

>  <SCORE.INTRA.POLAR.0>
0

>  <SCORE.INTRA.REPUL>
0

>  <SCORE.INTRA.REPUL.0>
0

>  <SCORE.INTRA.SOLV>
2.05778

>  <SCORE.INTRA.SOLV.lig_0>
-90.9627

>  <SCORE.INTRA.VDW>
1.14078

>  <SCORE.INTRA.VDW.0>
-3.28744

>  <SCORE.INTRA.norm>
0.0570252

>  <SCORE.RESTR>
0.132866

>  <SCORE.RESTR.CAVITY>
0.132866

>  <SCORE.RESTR.norm>
0.00359098

>  <SCORE.SYSTEM>
0

>  <SCORE.SYSTEM.CONST>
0

>  <SCORE.SYSTEM.DIHEDRAL>
0

>  <SCORE.SYSTEM.SOLV>
0

>  <SCORE.SYSTEM.norm>
0

>  <SCORE.heavy>
37

>  <SCORE.norm>
-0.315608

>  <RMSD>
9.836

$$$$
2oe8_lig
 OpenBabel11021811463D
libRbt.so/2013.1/901 2013/11/27
 37 40  0  0  0  0  0  0  0  0999 V2000
   19.2086   -2.2349   49.0971 C   0  0  1  0  0  0  0  0  0  0  0  0
   20.6772   -2.7259   49.3897 C   0  0  1  0  0  0  0  0  0  0  0  0
   20.8616   -2.9070   50.9108 C   0  0  0  0  0  0  0  0  0  0  0  0
   20.5931   -1.5083   51.5490 C   0  0  1  0  0  0  0  0  0  0  0  0
   19.0983   -0.9826   51.2401 C   0  0  1  0  0  0  0  0  0  0  0  0
   18.8286    0.4211   51.8573 C   0  0  1  0  0  0  0  0  0  0  0  0
   19.0736    0.3050   53.4172 C   0  0  1  0  0  0  0  0  0  0  0  0
   20.5191   -0.2516   53.6631 C   0  0  2  0  0  0  0  0  0  0  0  0
   19.7303    2.8304   53.7135 C   0  0  0  0  0  0  0  0  0  0  0  0
   20.9458   -4.0234   48.6921 N   0  0  0  0  0  0  0  0  0  0  0  0
   18.8779    1.6512   54.1093 N   0  0  0  0  0  0  0  0  0  0  0  0
   18.2340   -3.1930   49.5287 O   0  0  0  0  0  0  0  0  0  0  0  0
   18.9146   -0.9422   49.7827 O   0  0  0  0  0  0  0  0  0  0  0  0
   20.7623   -1.5647   52.9965 O   0  0  0  0  0  0  0  0  0  0  0  0
   19.7297    1.3357   51.2310 O   0  0  0  0  0  0  0  0  0  0  0  0
   20.7127   -0.4123   55.0210 O   0  0  0  0  0  0  0  0  0  0  0  0
   22.0920   -0.5984   55.3813 C   0  0  2  0  0  0  0  0  0  0  0  0
   22.2496   -0.5953   56.9210 C   0  0  1  0  0  0  0  0  0  0  0  0
   21.9139    0.7984   57.5351 C   0  0  2  0  0  0  0  0  0  0  0  0
   22.8488    1.8753   56.9093 C   0  0  1  0  0  0  0  0  0  0  0  0
   22.5760    1.8712   55.3476 C   0  0  1  0  0  0  0  0  0  0  0  0
   23.4512    2.8821   54.6121 C   0  0  0  0  0  0  0  0  0  0  0  0
   22.5300    3.2087   57.4949 N   0  0  0  0  0  0  0  0  0  0  0  0
   22.9021    0.5054   54.8038 O   0  0  0  0  0  0  0  0  0  0  0  0
   21.3955   -1.6328   57.4397 O   0  0  0  0  0  0  0  0  0  0  0  0
   22.1274    0.7340   58.9296 O   0  0  0  0  0  0  0  0  0  0  0  0
   23.0250    4.1825   54.9229 O   0  0  0  0  0  0  0  0  0  0  0  0
   17.9964   -4.2215   48.5897 C   0  0  1  0  0  0  0  0  0  0  0  0
   17.2454   -5.3818   49.3185 C   0  0  1  0  0  0  0  0  0  0  0  0
   17.0049   -6.5362   48.3023 C   0  0  2  0  0  0  0  0  0  0  0  0
   16.1635   -6.0382   47.0867 C   0  0  1  0  0  0  0  0  0  0  0  0
   16.9085   -4.8595   46.3516 C   0  0  0  0  0  0  0  0  0  0  0  0
   17.1458   -3.6840   47.3879 C   0  0  2  0  0  0  0  0  0  0  0  0
   15.9520   -7.1577   46.1276 N   0  0  0  0  0  0  0  0  0  0  0  0
   17.8420   -2.5804   46.6889 N   0  0  0  0  0  0  0  0  0  0  0  0
   18.0351   -5.8777   50.4156 O   0  0  0  0  0  0  0  0  0  0  0  0
   16.3173   -7.5708   48.9862 O   0  0  0  0  0  0  0  0  0  0  0  0
  1  2  1  0  0  0  0
  1 12  1  1  0  0  0
  1 13  1  0  0  0  0
  2  3  1  0  0  0  0
  2 10  1  6  0  0  0
  4  3  1  1  0  0  0
  4  5  1  0  0  0  0
  4 14  1  0  0  0  0
  5  6  1  0  0  0  0
  5 13  1  6  0  0  0
  6  7  1  0  0  0  0
  6 15  1  6  0  0  0
  7  8  1  0  0  0  0
  7 11  1  1  0  0  0
  8 14  1  0  0  0  0
  8 16  1  1  0  0  0
  9 11  1  0  0  0  0
 17 16  1  1  0  0  0
 17 18  1  0  0  0  0
 17 24  1  0  0  0  0
 18 19  1  0  0  0  0
 18 25  1  1  0  0  0
 19 20  1  0  0  0  0
 19 26  1  1  0  0  0
 20 21  1  0  0  0  0
 20 23  1  1  0  0  0
 21 22  1  6  0  0  0
 21 24  1  0  0  0  0
 22 27  1  0  0  0  0
 28 12  1  1  0  0  0
 28 29  1  0  0  0  0
 28 33  1  0  0  0  0
 29 30  1  0  0  0  0
 29 36  1  1  0  0  0
 30 31  1  0  0  0  0
 30 37  1  1  0  0  0
 31 32  1  0  0  0  0
 31 34  1  6  0  0  0
 32 33  1  0  0  0  0
 33 35  1  6  0  0  0
M  END
>  <CHROM.1>
-83.60371072,-59.60219696,-165.51786938,173.00697225,-70.42359751,164.49237867
19.86952121,-1.45959665,52.09768718,3.07034745,1.15144875,2.53541027

>  <Name>
2oe8_lig

>  <RI>
0

>  <Rbt.Current_Directory>
/home/itssahil/PROJECTS/Mol_Feturizer/New_Systems/rnas/2oe8

>  <Rbt.Executable>
rbdock ($Id: //depot/dev/client3/rdock/2013.1/src/exe/rbdock.cxx#4 $)

>  <Rbt.Library>
libRbt.so (2013.1, Build901 2013/11/27)

>  <Rbt.Parameter_File>
/export/apps/rDock/src/rDock_2013.1_src/data/scripts/dock_solv.prm

>  <Rbt.Receptor>
prm/pocket_docking_5.prm

>  <SCORE>
-25.5916

>  <SCORE.INTER>
-22.3938

>  <SCORE.INTER.CONST>
1

>  <SCORE.INTER.POLAR>
-1.82401

>  <SCORE.INTER.ROT>
6

>  <SCORE.INTER.SOLV>
14.8512

>  <SCORE.INTER.VDW>
-21.3996

>  <SCORE.INTER.norm>
-0.605237

>  <SCORE.INTRA>
-3.19894

>  <SCORE.INTRA.DIHEDRAL>
-11.2132

>  <SCORE.INTRA.DIHEDRAL.0>
16.4056

>  <SCORE.INTRA.POLAR>
0

>  <SCORE.INTRA.POLAR.0>
0

>  <SCORE.INTRA.REPUL>
0

>  <SCORE.INTRA.REPUL.0>
0

>  <SCORE.INTRA.SOLV>
1.71954

>  <SCORE.INTRA.SOLV.lig_0>
-90.9627

>  <SCORE.INTRA.VDW>
1.54791

>  <SCORE.INTRA.VDW.0>
-3.28744

>  <SCORE.INTRA.norm>
-0.0864578

>  <SCORE.RESTR>
0.00112351

>  <SCORE.RESTR.CAVITY>
0.00112351

>  <SCORE.RESTR.norm>
3.03652e-05

>  <SCORE.SYSTEM>
0

>  <SCORE.SYSTEM.CONST>
0

>  <SCORE.SYSTEM.DIHEDRAL>
0

>  <SCORE.SYSTEM.SOLV>
0

>  <SCORE.SYSTEM.norm>
0

>  <SCORE.heavy>
37

>  <SCORE.norm>
-0.691665

>  <RMSD>
9.839

$$$$
2oe8_lig
 OpenBabel11021811463D
libRbt.so/2013.1/901 2013/11/27
 37 40  0  0  0  0  0  0  0  0999 V2000
   21.4813   -5.1750   47.7601 C   0  0  1  0  0  0  0  0  0  0  0  0
   22.7364   -5.5973   48.6143 C   0  0  1  0  0  0  0  0  0  0  0  0
   22.6596   -4.9254   50.0012 C   0  0  0  0  0  0  0  0  0  0  0  0
   22.6445   -3.3873   49.7369 C   0  0  1  0  0  0  0  0  0  0  0  0
   21.3747   -2.9423   48.8449 C   0  0  1  0  0  0  0  0  0  0  0  0
   21.3624   -1.4116   48.5604 C   0  0  1  0  0  0  0  0  0  0  0  0
   21.3540   -0.6722   49.9604 C   0  0  1  0  0  0  0  0  0  0  0  0
   22.5779   -1.1715   50.8047 C   0  0  2  0  0  0  0  0  0  0  0  0
   20.9393    1.7405   50.9111 C   0  0  0  0  0  0  0  0  0  0  0  0
   22.7839   -7.0850   48.7777 N   0  0  0  0  0  0  0  0  0  0  0  0
   21.3889    0.8436   49.7854 N   0  0  0  0  0  0  0  0  0  0  0  0
   20.2572   -5.6044   48.3692 O   0  0  0  0  0  0  0  0  0  0  0  0
   21.4099   -3.6947   47.5831 O   0  0  0  0  0  0  0  0  0  0  0  0
   22.5929   -2.6518   50.9952 O   0  0  0  0  0  0  0  0  0  0  0  0
   22.5326   -1.1169   47.7958 O   0  0  0  0  0  0  0  0  0  0  0  0
   22.5374   -0.5746   52.0493 O   0  0  0  0  0  0  0  0  0  0  0  0
   23.7422   -0.7636   52.8107 C   0  0  2  0  0  0  0  0  0  0  0  0
   23.4808   -0.4764   54.3090 C   0  0  1  0  0  0  0  0  0  0  0  0
   23.1413    1.0248   54.5606 C   0  0  2  0  0  0  0  0  0  0  0  0
   24.3175    1.9106   54.0535 C   0  0  1  0  0  0  0  0  0  0  0  0
   24.4744    1.6246   52.5021 C   0  0  1  0  0  0  0  0  0  0  0  0
   25.6159    2.4281   51.8855 C   0  0  0  0  0  0  0  0  0  0  0  0
   23.9954    3.3464   54.2932 N   0  0  0  0  0  0  0  0  0  0  0  0
   24.7889    0.1647   52.3094 O   0  0  0  0  0  0  0  0  0  0  0  0
   22.4148   -1.3483   54.7312 O   0  0  0  0  0  0  0  0  0  0  0  0
   22.9653    1.2152   55.9488 O   0  0  0  0  0  0  0  0  0  0  0  0
   25.3094    3.7962   51.9445 O   0  0  0  0  0  0  0  0  0  0  0  0
   19.1210   -5.4165   47.5510 C   0  0  1  0  0  0  0  0  0  0  0  0
   19.0403   -6.6123   46.5483 C   0  0  1  0  0  0  0  0  0  0  0  0
   17.8096   -6.4018   45.6188 C   0  0  2  0  0  0  0  0  0  0  0  0
   16.4936   -6.3161   46.4522 C   0  0  1  0  0  0  0  0  0  0  0  0
   16.5704   -5.1190   47.4748 C   0  0  0  0  0  0  0  0  0  0  0  0
   17.8209   -5.3403   48.4232 C   0  0  2  0  0  0  0  0  0  0  0  0
   15.3331   -6.1094   45.5422 N   0  0  0  0  0  0  0  0  0  0  0  0
   17.8833   -4.2144   49.3821 N   0  0  0  0  0  0  0  0  0  0  0  0
   20.2329   -6.6720   45.7438 O   0  0  0  0  0  0  0  0  0  0  0  0
   17.7558   -7.5018   44.7256 O   0  0  0  0  0  0  0  0  0  0  0  0
  1  2  1  0  0  0  0
  1 12  1  1  0  0  0
  1 13  1  0  0  0  0
  2  3  1  0  0  0  0
  2 10  1  1  0  0  0
  4  3  1  1  0  0  0
  4  5  1  0  0  0  0
  4 14  1  0  0  0  0
  5  6  1  0  0  0  0
  5 13  1  6  0  0  0
  6  7  1  0  0  0  0
  6 15  1  1  0  0  0
  7  8  1  0  0  0  0
  7 11  1  6  0  0  0
  8 14  1  0  0  0  0
  8 16  1  1  0  0  0
  9 11  1  0  0  0  0
 17 16  1  6  0  0  0
 17 18  1  0  0  0  0
 17 24  1  0  0  0  0
 18 19  1  0  0  0  0
 18 25  1  6  0  0  0
 19 20  1  0  0  0  0
 19 26  1  1  0  0  0
 20 21  1  0  0  0  0
 20 23  1  6  0  0  0
 21 22  1  1  0  0  0
 21 24  1  0  0  0  0
 22 27  1  0  0  0  0
 28 12  1  1  0  0  0
 28 29  1  0  0  0  0
 28 33  1  0  0  0  0
 29 30  1  0  0  0  0
 29 36  1  6  0  0  0
 30 31  1  0  0  0  0
 30 37  1  6  0  0  0
 31 32  1  0  0  0  0
 31 34  1  6  0  0  0
 32 33  1  0  0  0  0
 33 35  1  1  0  0  0
M  END
>  <CHROM.1>
-171.54400916,159.91188098,-168.90053417,-162.25142154,-65.44387723,81.80163757
21.45922064,-2.40840847,49.94503472,-2.09551665,-0.34031862,0.52733144

>  <Name>
2oe8_lig

>  <RI>
0

>  <Rbt.Current_Directory>
/home/itssahil/PROJECTS/Mol_Feturizer/New_Systems/rnas/2oe8

>  <Rbt.Executable>
rbdock ($Id: //depot/dev/client3/rdock/2013.1/src/exe/rbdock.cxx#4 $)

>  <Rbt.Library>
libRbt.so (2013.1, Build901 2013/11/27)

>  <Rbt.Parameter_File>
/export/apps/rDock/src/rDock_2013.1_src/data/scripts/dock_solv.prm

>  <Rbt.Receptor>
prm/pocket_docking_7.prm

>  <SCORE>
-18.9299

>  <SCORE.INTER>
-12.9422

>  <SCORE.INTER.CONST>
1

>  <SCORE.INTER.POLAR>
-0.979796

>  <SCORE.INTER.ROT>
6

>  <SCORE.INTER.SOLV>
11.3141

>  <SCORE.INTER.VDW>
-16.7335

>  <SCORE.INTER.norm>
-0.349788

>  <SCORE.INTRA>
-5.98777

>  <SCORE.INTRA.DIHEDRAL>
-11.4486

>  <SCORE.INTRA.DIHEDRAL.0>
16.4056

>  <SCORE.INTRA.POLAR>
0

>  <SCORE.INTRA.POLAR.0>
0

>  <SCORE.INTRA.REPUL>
0

>  <SCORE.INTRA.REPUL.0>
0

>  <SCORE.INTRA.SOLV>
-1.35853

>  <SCORE.INTRA.SOLV.lig_0>
-90.9627

>  <SCORE.INTRA.VDW>
0.415815

>  <SCORE.INTRA.VDW.0>
-3.28744

>  <SCORE.INTRA.norm>
-0.161832

>  <SCORE.RESTR>
0

>  <SCORE.RESTR.CAVITY>
0

>  <SCORE.RESTR.norm>
0

>  <SCORE.SYSTEM>
0

>  <SCORE.SYSTEM.CONST>
0

>  <SCORE.SYSTEM.DIHEDRAL>
0

>  <SCORE.SYSTEM.SOLV>
0

>  <SCORE.SYSTEM.norm>
0

>  <SCORE.heavy>
37

>  <SCORE.norm>
-0.51162

>  <RMSD>
9.842

$$$$
2oe8_lig
 OpenBabel11021811463D
libRbt.so/2013.1/901 2013/11/27
 37 40  0  0  0  0  0  0  0  0999 V2000
   21.4013   -3.8903   49.3972 C   0  0  1  0  0  0  0  0  0  0  0  0
   22.8436   -3.9865   50.0249 C   0  0  1  0  0  0  0  0  0  0  0  0
   22.7408   -3.8733   51.5603 C   0  0  0  0  0  0  0  0  0  0  0  0
   22.0874   -2.4857   51.8493 C   0  0  1  0  0  0  0  0  0  0  0  0
   20.6169   -2.3646   51.1944 C   0  0  1  0  0  0  0  0  0  0  0  0
   19.9657   -0.9759   51.4619 C   0  0  1  0  0  0  0  0  0  0  0  0
   19.9009   -0.7803   53.0318 C   0  0  1  0  0  0  0  0  0  0  0  0
   21.3431   -0.9523   53.6238 C   0  0  2  0  0  0  0  0  0  0  0  0
   20.0650    1.8407   53.0374 C   0  0  0  0  0  0  0  0  0  0  0  0
   23.4902   -5.2864   49.6582 N   0  0  0  0  0  0  0  0  0  0  0  0
   19.3162    0.5817   53.3955 N   0  0  0  0  0  0  0  0  0  0  0  0
   20.5572   -4.9593   49.8431 O   0  0  0  0  0  0  0  0  0  0  0  0
   20.7336   -2.6027   49.7490 O   0  0  0  0  0  0  0  0  0  0  0  0
   21.9618   -2.2679   53.2859 O   0  0  0  0  0  0  0  0  0  0  0  0
   20.7876    0.0033   50.8245 O   0  0  0  0  0  0  0  0  0  0  0  0
   21.2790   -0.8438   54.9990 O   0  0  0  0  0  0  0  0  0  0  0  0
   22.5710   -0.8212   55.6291 C   0  0  2  0  0  0  0  0  0  0  0  0
   22.4202   -0.6144   57.1556 C   0  0  1  0  0  0  0  0  0  0  0  0
   21.8421    0.7936   57.4952 C   0  0  2  0  0  0  0  0  0  0  0  0
   22.7782    1.8902   56.9067 C   0  0  1  0  0  0  0  0  0  0  0  0
   22.8210    1.6663   55.3379 C   0  0  1  0  0  0  0  0  0  0  0  0
   23.7267    2.6776   54.6408 C   0  0  0  0  0  0  0  0  0  0  0  0
   22.2277    3.2373   57.2304 N   0  0  0  0  0  0  0  0  0  0  0  0
   23.3734    0.2931   55.0608 O   0  0  0  0  0  0  0  0  0  0  0  0
   21.5805   -1.6755   57.6492 O   0  0  0  0  0  0  0  0  0  0  0  0
   21.7808    0.9230   58.9002 O   0  0  0  0  0  0  0  0  0  0  0  0
   23.7358    2.4233   53.2608 O   0  0  0  0  0  0  0  0  0  0  0  0
   19.5247   -5.2823   48.9346 C   0  0  1  0  0  0  0  0  0  0  0  0
   19.9322   -6.5879   48.1789 C   0  0  1  0  0  0  0  0  0  0  0  0
   18.8168   -6.9382   47.1512 C   0  0  2  0  0  0  0  0  0  0  0  0
   17.4469   -7.1439   47.8685 C   0  0  1  0  0  0  0  0  0  0  0  0
   17.0328   -5.8350   48.6432 C   0  0  0  0  0  0  0  0  0  0  0  0
   18.1679   -5.4853   49.6927 C   0  0  2  0  0  0  0  0  0  0  0  0
   16.3967   -7.4721   46.8650 N   0  0  0  0  0  0  0  0  0  0  0  0
   17.7696   -4.2579   50.4179 N   0  0  0  0  0  0  0  0  0  0  0  0
   21.1742   -6.3929   47.4772 O   0  0  0  0  0  0  0  0  0  0  0  0
   19.2076   -8.1280   46.4858 O   0  0  0  0  0  0  0  0  0  0  0  0
  1  2  1  0  0  0  0
  1 12  1  1  0  0  0
  1 13  1  0  0  0  0
  2  3  1  0  0  0  0
  2 10  1  1  0  0  0
  4  3  1  1  0  0  0
  4  5  1  0  0  0  0
  4 14  1  0  0  0  0
  5  6  1  0  0  0  0
  5 13  1  6  0  0  0
  6  7  1  0  0  0  0
  6 15  1  6  0  0  0
  7  8  1  0  0  0  0
  7 11  1  6  0  0  0
  8 14  1  0  0  0  0
  8 16  1  1  0  0  0
  9 11  1  0  0  0  0
 17 16  1  6  0  0  0
 17 18  1  0  0  0  0
 17 24  1  0  0  0  0
 18 19  1  0  0  0  0
 18 25  1  6  0  0  0
 19 20  1  0  0  0  0
 19 26  1  1  0  0  0
 20 21  1  0  0  0  0
 20 23  1  6  0  0  0
 21 22  1  6  0  0  0
 21 24  1  0  0  0  0
 22 27  1  0  0  0  0
 28 12  1  1  0  0  0
 28 29  1  0  0  0  0
 28 33  1  0  0  0  0
 29 30  1  0  0  0  0
 29 36  1  6  0  0  0
 30 31  1  0  0  0  0
 30 37  1  1  0  0  0
 31 32  1  0  0  0  0
 31 34  1  6  0  0  0
 32 33  1  0  0  0  0
 33 35  1  6  0  0  0
M  END
>  <CHROM.1>
-153.67049972,-65.65333433,-172.72105570,176.66306325,179.42328117,102.89875530
20.92689057,-2.28749957,52.12590931,-1.86172498,0.22716880,0.89223937

>  <Name>
2oe8_lig

>  <RI>
0

>  <Rbt.Current_Directory>
/home/itssahil/PROJECTS/Mol_Feturizer/New_Systems/rnas/2oe8

>  <Rbt.Executable>
rbdock ($Id: //depot/dev/client3/rdock/2013.1/src/exe/rbdock.cxx#4 $)

>  <Rbt.Library>
libRbt.so (2013.1, Build901 2013/11/27)

>  <Rbt.Parameter_File>
/export/apps/rDock/src/rDock_2013.1_src/data/scripts/dock_solv.prm

>  <Rbt.Receptor>
prm/pocket_docking_5.prm

>  <SCORE>
-17.4452

>  <SCORE.INTER>
-13.9517

>  <SCORE.INTER.CONST>
1

>  <SCORE.INTER.POLAR>
-0.979796

>  <SCORE.INTER.ROT>
6

>  <SCORE.INTER.SOLV>
11.6656

>  <SCORE.INTER.VDW>
-17.5237

>  <SCORE.INTER.norm>
-0.377074

>  <SCORE.INTRA>
-3.49347

>  <SCORE.INTRA.DIHEDRAL>
-7.26234

>  <SCORE.INTRA.DIHEDRAL.0>
16.4056

>  <SCORE.INTRA.POLAR>
0

>  <SCORE.INTRA.POLAR.0>
0

>  <SCORE.INTRA.REPUL>
0

>  <SCORE.INTRA.REPUL.0>
0

>  <SCORE.INTRA.SOLV>
-0.497919

>  <SCORE.INTRA.SOLV.lig_0>
-90.9627

>  <SCORE.INTRA.VDW>
0.386654

>  <SCORE.INTRA.VDW.0>
-3.28744

>  <SCORE.INTRA.norm>
-0.0944182

>  <SCORE.RESTR>
0

>  <SCORE.RESTR.CAVITY>
0

>  <SCORE.RESTR.norm>
0

>  <SCORE.SYSTEM>
0

>  <SCORE.SYSTEM.CONST>
0

>  <SCORE.SYSTEM.DIHEDRAL>
0

>  <SCORE.SYSTEM.SOLV>
0

>  <SCORE.SYSTEM.norm>
0

>  <SCORE.heavy>
37

>  <SCORE.norm>
-0.471492

>  <RMSD>
9.846

$$$$
2oe8_lig
 OpenBabel11021811463D
libRbt.so/2013.1/901 2013/11/27
 37 40  0  0  0  0  0  0  0  0999 V2000
   20.7105   -3.2102   48.5046 C   0  0  1  0  0  0  0  0  0  0  0  0
   21.9980   -3.6507   49.2993 C   0  0  1  0  0  0  0  0  0  0  0  0
   21.7894   -3.3745   50.8029 C   0  0  0  0  0  0  0  0  0  0  0  0
   21.5414   -1.8389   50.9306 C   0  0  1  0  0  0  0  0  0  0  0  0
   20.2367   -1.3690   50.1043 C   0  0  1  0  0  0  0  0  0  0  0  0
   19.9931    0.1650   50.2108 C   0  0  1  0  0  0  0  0  0  0  0  0
   19.8413    0.5124   51.7481 C   0  0  1  0  0  0  0  0  0  0  0  0
   21.1101   -0.0037   52.5120 C   0  0  2  0  0  0  0  0  0  0  0  0
   18.6624    2.5014   52.9934 C   0  0  0  0  0  0  0  0  0  0  0  0
   22.2722   -5.1077   49.0886 N   0  0  0  0  0  0  0  0  0  0  0  0
   19.6443    2.0111   51.9594 N   0  0  0  0  0  0  0  0  0  0  0  0
   19.5555   -3.9536   48.9135 O   0  0  0  0  0  0  0  0  0  0  0  0
   20.4141   -1.7603   48.6989 O   0  0  0  0  0  0  0  0  0  0  0  0
   21.3505   -1.4652   52.3274 O   0  0  0  0  0  0  0  0  0  0  0  0
   21.1189    0.8116   49.6149 O   0  0  0  0  0  0  0  0  0  0  0  0
   20.9519    0.2426   53.8616 O   0  0  0  0  0  0  0  0  0  0  0  0
   22.1039    0.8528   54.4677 C   0  0  2  0  0  0  0  0  0  0  0  0
   23.1426   -0.2275   54.8544 C   0  0  1  0  0  0  0  0  0  0  0  0
   22.6111   -1.1651   55.9817 C   0  0  2  0  0  0  0  0  0  0  0  0
   22.2501   -0.3118   57.2334 C   0  0  1  0  0  0  0  0  0  0  0  0
   21.1286    0.7145   56.7838 C   0  0  1  0  0  0  0  0  0  0  0  0
   20.6973    1.6273   57.9282 C   0  0  0  0  0  0  0  0  0  0  0  0
   21.7420   -1.2059   58.3127 N   0  0  0  0  0  0  0  0  0  0  0  0
   21.6831    1.5873   55.6892 O   0  0  0  0  0  0  0  0  0  0  0  0
   23.4670   -0.9565   53.6552 O   0  0  0  0  0  0  0  0  0  0  0  0
   23.6287   -2.0873   56.3108 O   0  0  0  0  0  0  0  0  0  0  0  0
   19.6646    2.4701   57.4898 O   0  0  0  0  0  0  0  0  0  0  0  0
   18.7924   -4.4532   47.8346 C   0  0  1  0  0  0  0  0  0  0  0  0
   18.1176   -3.2420   47.1139 C   0  0  1  0  0  0  0  0  0  0  0  0
   17.2475   -3.7810   45.9411 C   0  0  2  0  0  0  0  0  0  0  0  0
   18.1197   -4.5849   44.9278 C   0  0  1  0  0  0  0  0  0  0  0  0
   18.8136   -5.8028   45.6488 C   0  0  0  0  0  0  0  0  0  0  0  0
   19.7033   -5.2493   46.8381 C   0  0  2  0  0  0  0  0  0  0  0  0
   17.2648   -5.0939   43.8198 N   0  0  0  0  0  0  0  0  0  0  0  0
   20.3539   -6.3985   47.5068 N   0  0  0  0  0  0  0  0  0  0  0  0
   17.2752   -2.5198   48.0315 O   0  0  0  0  0  0  0  0  0  0  0  0
   16.6536   -2.6635   45.3013 O   0  0  0  0  0  0  0  0  0  0  0  0
  1  2  1  0  0  0  0
  1 12  1  1  0  0  0
  1 13  1  0  0  0  0
  2  3  1  0  0  0  0
  2 10  1  1  0  0  0
  4  3  1  1  0  0  0
  4  5  1  0  0  0  0
  4 14  1  0  0  0  0
  5  6  1  0  0  0  0
  5 13  1  6  0  0  0
  6  7  1  0  0  0  0
  6 15  1  1  0  0  0
  7  8  1  0  0  0  0
  7 11  1  6  0  0  0
  8 14  1  0  0  0  0
  8 16  1  1  0  0  0
  9 11  1  0  0  0  0
 17 16  1  1  0  0  0
 17 18  1  0  0  0  0
 17 24  1  0  0  0  0
 18 19  1  0  0  0  0
 18 25  1  6  0  0  0
 19 20  1  0  0  0  0
 19 26  1  1  0  0  0
 20 21  1  0  0  0  0
 20 23  1  1  0  0  0
 21 22  1  1  0  0  0
 21 24  1  0  0  0  0
 22 27  1  0  0  0  0
 28 12  1  1  0  0  0
 28 29  1  0  0  0  0
 28 33  1  0  0  0  0
 29 30  1  0  0  0  0
 29 36  1  1  0  0  0
 30 31  1  0  0  0  0
 30 37  1  6  0  0  0
 31 32  1  0  0  0  0
 31 34  1  6  0  0  0
 32 33  1  0  0  0  0
 33 35  1  1  0  0  0
M  END
>  <CHROM.1>
-132.89565382,139.99915676,-132.37091681,-83.70362816,-177.35975603,-69.10479711
20.42101347,-1.63171140,51.20766028,-1.96516722,-0.81475385,0.81587872

>  <Name>
2oe8_lig

>  <RI>
0

>  <Rbt.Current_Directory>
/home/itssahil/PROJECTS/Mol_Feturizer/New_Systems/rnas/2oe8

>  <Rbt.Executable>
rbdock ($Id: //depot/dev/client3/rdock/2013.1/src/exe/rbdock.cxx#4 $)

>  <Rbt.Library>
libRbt.so (2013.1, Build901 2013/11/27)

>  <Rbt.Parameter_File>
/export/apps/rDock/src/rDock_2013.1_src/data/scripts/dock_solv.prm

>  <Rbt.Receptor>
prm/pocket_docking_5.prm

>  <SCORE>
-10.1695

>  <SCORE.INTER>
-12.0666

>  <SCORE.INTER.CONST>
1

>  <SCORE.INTER.POLAR>
-1.18683

>  <SCORE.INTER.ROT>
6

>  <SCORE.INTER.SOLV>
12.895

>  <SCORE.INTER.VDW>
-15.9867

>  <SCORE.INTER.norm>
-0.326125

>  <SCORE.INTRA>
1.89716

>  <SCORE.INTRA.DIHEDRAL>
0.187362

>  <SCORE.INTRA.DIHEDRAL.0>
16.4056

>  <SCORE.INTRA.POLAR>
0

>  <SCORE.INTRA.POLAR.0>
0

>  <SCORE.INTRA.REPUL>
0

>  <SCORE.INTRA.REPUL.0>
0

>  <SCORE.INTRA.SOLV>
1.13383

>  <SCORE.INTRA.SOLV.lig_0>
-90.9627

>  <SCORE.INTRA.VDW>
1.23657

>  <SCORE.INTRA.VDW.0>
-3.28744

>  <SCORE.INTRA.norm>
0.0512746

>  <SCORE.RESTR>
0

>  <SCORE.RESTR.CAVITY>
0

>  <SCORE.RESTR.norm>
0

>  <SCORE.SYSTEM>
0

>  <SCORE.SYSTEM.CONST>
0

>  <SCORE.SYSTEM.DIHEDRAL>
0

>  <SCORE.SYSTEM.SOLV>
0

>  <SCORE.SYSTEM.norm>
0

>  <SCORE.heavy>
37

>  <SCORE.norm>
-0.27485

>  <RMSD>
9.849

$$$$
2oe8_lig
 OpenBabel11021811463D
libRbt.so/2013.1/901 2013/11/27
 37 40  0  0  0  0  0  0  0  0999 V2000
   22.1247   -2.8274   48.2466 C   0  0  1  0  0  0  0  0  0  0  0  0
   23.1265   -3.3406   49.3496 C   0  0  1  0  0  0  0  0  0  0  0  0
   22.4684   -3.2076   50.7388 C   0  0  0  0  0  0  0  0  0  0  0  0
   22.1493   -1.6911   50.9233 C   0  0  1  0  0  0  0  0  0  0  0  0
   21.1397   -1.1458   49.7877 C   0  0  1  0  0  0  0  0  0  0  0  0
   20.8312    0.3712   49.9533 C   0  0  1  0  0  0  0  0  0  0  0  0
   20.2151    0.5719   51.3980 C   0  0  1  0  0  0  0  0  0  0  0  0
   21.2104   -0.0136   52.4593 C   0  0  2  0  0  0  0  0  0  0  0  0
   18.8116    2.4231   52.6227 C   0  0  0  0  0  0  0  0  0  0  0  0
   23.4932   -4.7710   49.1012 N   0  0  0  0  0  0  0  0  0  0  0  0
   19.9206    2.0438   51.6739 N   0  0  0  0  0  0  0  0  0  0  0  0
   20.9222   -3.6067   48.2196 O   0  0  0  0  0  0  0  0  0  0  0  0
   21.7420   -1.4025   48.4721 O   0  0  0  0  0  0  0  0  0  0  0  0
   21.5372   -1.4511   52.2252 O   0  0  0  0  0  0  0  0  0  0  0  0
   22.0649    1.0717   49.7853 O   0  0  0  0  0  0  0  0  0  0  0  0
   20.6474    0.1041   53.7148 O   0  0  0  0  0  0  0  0  0  0  0  0
   21.5533   -0.2338   54.7788 C   0  0  2  0  0  0  0  0  0  0  0  0
   20.8068   -0.2491   56.1346 C   0  0  1  0  0  0  0  0  0  0  0  0
   20.3096    1.1728   56.5384 C   0  0  2  0  0  0  0  0  0  0  0  0
   21.5274    2.1400   56.6203 C   0  0  1  0  0  0  0  0  0  0  0  0
   22.1921    2.1672   55.1814 C   0  0  1  0  0  0  0  0  0  0  0  0
   23.4175    3.0756   55.1350 C   0  0  0  0  0  0  0  0  0  0  0  0
   21.0546    3.5001   57.0065 N   0  0  0  0  0  0  0  0  0  0  0  0
   22.6441    0.7741   54.8316 O   0  0  0  0  0  0  0  0  0  0  0  0
   19.7196   -1.1861   56.0127 O   0  0  0  0  0  0  0  0  0  0  0  0
   19.6853    1.0842   57.8021 O   0  0  0  0  0  0  0  0  0  0  0  0
   23.0100    4.4150   55.2303 O   0  0  0  0  0  0  0  0  0  0  0  0
   19.9226   -3.0763   47.3738 C   0  0  1  0  0  0  0  0  0  0  0  0
   20.3084   -3.4088   45.8965 C   0  0  1  0  0  0  0  0  0  0  0  0
   19.2308   -2.8025   44.9509 C   0  0  2  0  0  0  0  0  0  0  0  0
   17.8192   -3.3816   45.2757 C   0  0  1  0  0  0  0  0  0  0  0  0
   17.4261   -3.0605   46.7681 C   0  0  0  0  0  0  0  0  0  0  0  0
   18.5222   -3.6849   47.7277 C   0  0  2  0  0  0  0  0  0  0  0  0
   16.8065   -2.7828   44.3627 N   0  0  0  0  0  0  0  0  0  0  0  0
   18.1435   -3.3822   49.1263 N   0  0  0  0  0  0  0  0  0  0  0  0
   21.5912   -2.8399   45.5742 O   0  0  0  0  0  0  0  0  0  0  0  0
   19.6006   -3.1241   43.6203 O   0  0  0  0  0  0  0  0  0  0  0  0
  1  2  1  0  0  0  0
  1 12  1  1  0  0  0
  1 13  1  0  0  0  0
  2  3  1  0  0  0  0
  2 10  1  6  0  0  0
  4  3  1  6  0  0  0
  4  5  1  0  0  0  0
  4 14  1  0  0  0  0
  5  6  1  0  0  0  0
  5 13  1  6  0  0  0
  6  7  1  0  0  0  0
  6 15  1  1  0  0  0
  7  8  1  0  0  0  0
  7 11  1  1  0  0  0
  8 14  1  0  0  0  0
  8 16  1  1  0  0  0
  9 11  1  0  0  0  0
 17 16  1  6  0  0  0
 17 18  1  0  0  0  0
 17 24  1  0  0  0  0
 18 19  1  0  0  0  0
 18 25  1  6  0  0  0
 19 20  1  0  0  0  0
 19 26  1  1  0  0  0
 20 21  1  0  0  0  0
 20 23  1  6  0  0  0
 21 22  1  1  0  0  0
 21 24  1  0  0  0  0
 22 27  1  0  0  0  0
 28 12  1  1  0  0  0
 28 29  1  0  0  0  0
 28 33  1  0  0  0  0
 29 30  1  0  0  0  0
 29 36  1  6  0  0  0
 30 31  1  0  0  0  0
 30 37  1  6  0  0  0
 31 32  1  0  0  0  0
 31 34  1  6  0  0  0
 32 33  1  0  0  0  0
 33 35  1  1  0  0  0
M  END
>  <CHROM.1>
171.96103400,151.71340431,-171.89961466,-172.98142721,-70.51052381,76.82269795
20.76301830,-0.83026010,50.96493463,-1.73176689,-0.34400147,1.03705290

>  <Name>
2oe8_lig

>  <RI>
0

>  <Rbt.Current_Directory>
/home/itssahil/PROJECTS/Mol_Feturizer/New_Systems/rnas/2oe8

>  <Rbt.Executable>
rbdock ($Id: //depot/dev/client3/rdock/2013.1/src/exe/rbdock.cxx#4 $)

>  <Rbt.Library>
libRbt.so (2013.1, Build901 2013/11/27)

>  <Rbt.Parameter_File>
/export/apps/rDock/src/rDock_2013.1_src/data/scripts/dock_solv.prm

>  <Rbt.Receptor>
prm/pocket_docking_7.prm

>  <SCORE>
-24.5644

>  <SCORE.INTER>
-17.9839

>  <SCORE.INTER.CONST>
1

>  <SCORE.INTER.POLAR>
-2.10572

>  <SCORE.INTER.ROT>
6

>  <SCORE.INTER.SOLV>
14.7739

>  <SCORE.INTER.VDW>
-17.4949

>  <SCORE.INTER.norm>
-0.486052

>  <SCORE.INTRA>
-6.58051

>  <SCORE.INTRA.DIHEDRAL>
-13.2205

>  <SCORE.INTRA.DIHEDRAL.0>
16.4056

>  <SCORE.INTRA.POLAR>
0

>  <SCORE.INTRA.POLAR.0>
0

>  <SCORE.INTRA.REPUL>
0

>  <SCORE.INTRA.REPUL.0>
0

>  <SCORE.INTRA.SOLV>
-1.9761

>  <SCORE.INTRA.SOLV.lig_0>
-90.9627

>  <SCORE.INTRA.VDW>
1.01781

>  <SCORE.INTRA.VDW.0>
-3.28744

>  <SCORE.INTRA.norm>
-0.177852

>  <SCORE.RESTR>
0

>  <SCORE.RESTR.CAVITY>
0

>  <SCORE.RESTR.norm>
0

>  <SCORE.SYSTEM>
0

>  <SCORE.SYSTEM.CONST>
0

>  <SCORE.SYSTEM.DIHEDRAL>
0

>  <SCORE.SYSTEM.SOLV>
0

>  <SCORE.SYSTEM.norm>
0

>  <SCORE.heavy>
37

>  <SCORE.norm>
-0.663903

>  <RMSD>
9.852

$$$$
2oe8_lig
 OpenBabel11021811463D
libRbt.so/2013.1/901 2013/11/27
 37 40  0  0  0  0  0  0  0  0999 V2000
   19.1998   -2.2248   49.0813 C   0  0  1  0  0  0  0  0  0  0  0  0
   20.6702   -2.7241   49.3500 C   0  0  1  0  0  0  0  0  0  0  0  0
   20.8765   -2.9112   50.8676 C   0  0  0  0  0  0  0  0  0  0  0  0
   20.6247   -1.5133   51.5144 C   0  0  1  0  0  0  0  0  0  0  0  0
   19.1281   -0.9792   51.2299 C   0  0  1  0  0  0  0  0  0  0  0  0
   18.8748    0.4237   51.8557 C   0  0  1  0  0  0  0  0  0  0  0  0
   19.1427    0.3012   53.4113 C   0  0  1  0  0  0  0  0  0  0  0  0
   20.5890   -0.2634   53.6335 C   0  0  2  0  0  0  0  0  0  0  0  0
   18.6599    1.6905   55.5870 C   0  0  0  0  0  0  0  0  0  0  0  0
   20.9217   -4.0205   48.6442 N   0  0  0  0  0  0  0  0  0  0  0  0
   18.9642    1.6460   54.1107 N   0  0  0  0  0  0  0  0  0  0  0  0
   18.2270   -3.1795   49.5243 O   0  0  0  0  0  0  0  0  0  0  0  0
   18.9227   -0.9329   49.7755 O   0  0  0  0  0  0  0  0  0  0  0  0
   20.8154   -1.5755   52.9590 O   0  0  0  0  0  0  0  0  0  0  0  0
   19.7709    1.3360   51.2188 O   0  0  0  0  0  0  0  0  0  0  0  0
   20.8022   -0.4297   54.9878 O   0  0  0  0  0  0  0  0  0  0  0  0
   22.1940   -0.5058   55.3398 C   0  0  2  0  0  0  0  0  0  0  0  0
   22.3555   -0.5764   56.8776 C   0  0  1  0  0  0  0  0  0  0  0  0
   21.8924    0.7420   57.5700 C   0  0  2  0  0  0  0  0  0  0  0  0
   22.7199    1.9361   57.0093 C   0  0  1  0  0  0  0  0  0  0  0  0
   22.4437    1.9963   55.4494 C   0  0  1  0  0  0  0  0  0  0  0  0
   23.2176    3.1256   54.7752 C   0  0  0  0  0  0  0  0  0  0  0  0
   22.2791    3.1978   57.6700 N   0  0  0  0  0  0  0  0  0  0  0  0
   22.8949    0.7007   54.8286 O   0  0  0  0  0  0  0  0  0  0  0  0
   21.6044   -1.7177   57.3338 O   0  0  0  0  0  0  0  0  0  0  0  0
   22.1155    0.6178   58.9590 O   0  0  0  0  0  0  0  0  0  0  0  0
   24.5944    2.8746   54.8776 O   0  0  0  0  0  0  0  0  0  0  0  0
   17.9917   -4.2197   48.5979 C   0  0  1  0  0  0  0  0  0  0  0  0
   17.2205   -5.3620   49.3343 C   0  0  1  0  0  0  0  0  0  0  0  0
   16.9820   -6.5293   48.3326 C   0  0  2  0  0  0  0  0  0  0  0  0
   16.1609   -6.0420   47.0990 C   0  0  1  0  0  0  0  0  0  0  0  0
   16.9262   -4.8815   46.3559 C   0  0  0  0  0  0  0  0  0  0  0  0
   17.1615   -3.6926   47.3774 C   0  0  2  0  0  0  0  0  0  0  0  0
   15.9509   -7.1739   46.1542 N   0  0  0  0  0  0  0  0  0  0  0  0
   17.8769   -2.6062   46.6708 N   0  0  0  0  0  0  0  0  0  0  0  0
   17.9915   -5.8484   50.4488 O   0  0  0  0  0  0  0  0  0  0  0  0
   16.2760   -7.5470   49.0230 O   0  0  0  0  0  0  0  0  0  0  0  0
  1  2  1  0  0  0  0
  1 12  1  1  0  0  0
  1 13  1  0  0  0  0
  2  3  1  0  0  0  0
  2 10  1  6  0  0  0
  4  3  1  1  0  0  0
  4  5  1  0  0  0  0
  4 14  1  0  0  0  0
  5  6  1  0  0  0  0
  5 13  1  6  0  0  0
  6  7  1  0  0  0  0
  6 15  1  6  0  0  0
  7  8  1  0  0  0  0
  7 11  1  1  0  0  0
  8 14  1  0  0  0  0
  8 16  1  1  0  0  0
  9 11  1  0  0  0  0
 17 16  1  1  0  0  0
 17 18  1  0  0  0  0
 17 24  1  0  0  0  0
 18 19  1  0  0  0  0
 18 25  1  1  0  0  0
 19 20  1  0  0  0  0
 19 26  1  1  0  0  0
 20 21  1  0  0  0  0
 20 23  1  1  0  0  0
 21 22  1  6  0  0  0
 21 24  1  0  0  0  0
 22 27  1  0  0  0  0
 28 12  1  1  0  0  0
 28 29  1  0  0  0  0
 28 33  1  0  0  0  0
 29 30  1  0  0  0  0
 29 36  1  1  0  0  0
 30 31  1  0  0  0  0
 30 37  1  1  0  0  0
 31 32  1  0  0  0  0
 31 34  1  6  0  0  0
 32 33  1  0  0  0  0
 33 35  1  6  0  0  0
M  END
>  <CHROM.1>
-82.29215513,157.19198645,-160.34403131,175.44152793,64.65889062,165.47593022
19.88895036,-1.52023485,52.15642520,-2.91320432,1.13499061,2.22721457

>  <Name>
2oe8_lig

>  <RI>
0

>  <Rbt.Current_Directory>
/home/itssahil/PROJECTS/Mol_Feturizer/New_Systems/rnas/2oe8

>  <Rbt.Executable>
rbdock ($Id: //depot/dev/client3/rdock/2013.1/src/exe/rbdock.cxx#4 $)

>  <Rbt.Library>
libRbt.so (2013.1, Build901 2013/11/27)

>  <Rbt.Parameter_File>
/export/apps/rDock/src/rDock_2013.1_src/data/scripts/dock_solv.prm

>  <Rbt.Receptor>
prm/pocket_docking_8.prm

>  <SCORE>
-26.2595

>  <SCORE.INTER>
-21.9321

>  <SCORE.INTER.CONST>
1

>  <SCORE.INTER.POLAR>
-1.83305

>  <SCORE.INTER.ROT>
6

>  <SCORE.INTER.SOLV>
15.0083

>  <SCORE.INTER.VDW>
-21.114

>  <SCORE.INTER.norm>
-0.592761

>  <SCORE.INTRA>
-4.32737

>  <SCORE.INTRA.DIHEDRAL>
-10.8892

>  <SCORE.INTRA.DIHEDRAL.0>
16.4056

>  <SCORE.INTRA.POLAR>
0

>  <SCORE.INTRA.POLAR.0>
0

>  <SCORE.INTRA.REPUL>
0

>  <SCORE.INTRA.REPUL.0>
0

>  <SCORE.INTRA.SOLV>
1.46972

>  <SCORE.INTRA.SOLV.lig_0>
-90.9627

>  <SCORE.INTRA.VDW>
0.38235

>  <SCORE.INTRA.VDW.0>
-3.28744

>  <SCORE.INTRA.norm>
-0.116956

>  <SCORE.RESTR>
0

>  <SCORE.RESTR.CAVITY>
0

>  <SCORE.RESTR.norm>
0

>  <SCORE.SYSTEM>
0

>  <SCORE.SYSTEM.CONST>
0

>  <SCORE.SYSTEM.DIHEDRAL>
0

>  <SCORE.SYSTEM.SOLV>
0

>  <SCORE.SYSTEM.norm>
0

>  <SCORE.heavy>
37

>  <SCORE.norm>
-0.709716

>  <RMSD>
9.853

$$$$
2oe8_lig
 OpenBabel11021811463D
libRbt.so/2013.1/901 2013/11/27
 37 40  0  0  0  0  0  0  0  0999 V2000
   21.8569   -3.1702   49.6171 C   0  0  1  0  0  0  0  0  0  0  0  0
   23.0592   -3.5365   50.5678 C   0  0  1  0  0  0  0  0  0  0  0  0
   22.5553   -3.6064   52.0245 C   0  0  0  0  0  0  0  0  0  0  0  0
   21.9827   -2.1921   52.3528 C   0  0  1  0  0  0  0  0  0  0  0  0
   20.7630   -1.7942   51.3730 C   0  0  1  0  0  0  0  0  0  0  0  0
   20.1984   -0.3764   51.6815 C   0  0  1  0  0  0  0  0  0  0  0  0
   19.7294   -0.3748   53.1938 C   0  0  1  0  0  0  0  0  0  0  0  0
   20.9340   -0.8110   54.0985 C   0  0  2  0  0  0  0  0  0  0  0  0
   18.3421    1.7885   52.6532 C   0  0  0  0  0  0  0  0  0  0  0  0
   23.6547   -4.8538   50.1775 N   0  0  0  0  0  0  0  0  0  0  0  0
   19.1998    0.9957   53.6069 N   0  0  0  0  0  0  0  0  0  0  0  0
   20.8262   -4.1651   49.6593 O   0  0  0  0  0  0  0  0  0  0  0  0
   21.2441   -1.8602   49.9860 O   0  0  0  0  0  0  0  0  0  0  0  0
   21.4935   -2.1437   53.7260 O   0  0  0  0  0  0  0  0  0  0  0  0
   21.2513    0.5576   51.4368 O   0  0  0  0  0  0  0  0  0  0  0  0
   20.5101   -0.8705   55.4114 O   0  0  0  0  0  0  0  0  0  0  0  0
   21.0009    0.2139   56.2177 C   0  0  2  0  0  0  0  0  0  0  0  0
   21.0672   -0.2102   57.7048 C   0  0  1  0  0  0  0  0  0  0  0  0
   19.6481   -0.4704   58.2969 C   0  0  2  0  0  0  0  0  0  0  0  0
   18.7873    0.8198   58.1567 C   0  0  1  0  0  0  0  0  0  0  0  0
   18.6963    1.1472   56.6083 C   0  0  1  0  0  0  0  0  0  0  0  0
   17.8843    2.4107   56.3381 C   0  0  0  0  0  0  0  0  0  0  0  0
   17.4301    0.5737   58.7225 N   0  0  0  0  0  0  0  0  0  0  0  0
   20.0876    1.3782   56.0807 O   0  0  0  0  0  0  0  0  0  0  0  0
   21.9048   -1.3798   57.7782 O   0  0  0  0  0  0  0  0  0  0  0  0
   19.7892   -0.8032   59.6621 O   0  0  0  0  0  0  0  0  0  0  0  0
   18.5148    3.5093   56.9419 O   0  0  0  0  0  0  0  0  0  0  0  0
   20.1692   -4.3526   48.4228 C   0  0  1  0  0  0  0  0  0  0  0  0
   19.1568   -3.1786   48.2267 C   0  0  1  0  0  0  0  0  0  0  0  0
   18.4025   -3.3896   46.8816 C   0  0  2  0  0  0  0  0  0  0  0  0
   19.4034   -3.4348   45.6859 C   0  0  1  0  0  0  0  0  0  0  0  0
   20.4360   -4.6097   45.8807 C   0  0  0  0  0  0  0  0  0  0  0  0
   21.2062   -4.3877   47.2481 C   0  0  2  0  0  0  0  0  0  0  0  0
   18.6590   -3.6427   44.4130 N   0  0  0  0  0  0  0  0  0  0  0  0
   22.1759   -5.4927   47.4211 N   0  0  0  0  0  0  0  0  0  0  0  0
   18.2014   -3.1566   49.3036 O   0  0  0  0  0  0  0  0  0  0  0  0
   17.4974   -2.3092   46.7254 O   0  0  0  0  0  0  0  0  0  0  0  0
  1  2  1  0  0  0  0
  1 12  1  1  0  0  0
  1 13  1  0  0  0  0
  2  3  1  0  0  0  0
  2 10  1  6  0  0  0
  4  3  1  6  0  0  0
  4  5  1  0  0  0  0
  4 14  1  0  0  0  0
  5  6  1  0  0  0  0
  5 13  1  6  0  0  0
  6  7  1  0  0  0  0
  6 15  1  1  0  0  0
  7  8  1  0  0  0  0
  7 11  1  1  0  0  0
  8 14  1  0  0  0  0
  8 16  1  1  0  0  0
  9 11  1  0  0  0  0
 17 16  1  6  0  0  0
 17 18  1  0  0  0  0
 17 24  1  0  0  0  0
 18 19  1  0  0  0  0
 18 25  1  6  0  0  0
 19 20  1  0  0  0  0
 19 26  1  1  0  0  0
 20 21  1  0  0  0  0
 20 23  1  6  0  0  0
 21 22  1  1  0  0  0
 21 24  1  0  0  0  0
 22 27  1  0  0  0  0
 28 12  1  1  0  0  0
 28 29  1  0  0  0  0
 28 33  1  0  0  0  0
 29 30  1  0  0  0  0
 29 36  1  1  0  0  0
 30 31  1  0  0  0  0
 30 37  1  6  0  0  0
 31 32  1  0  0  0  0
 31 34  1  6  0  0  0
 32 33  1  0  0  0  0
 33 35  1  1  0  0  0
M  END
>  <CHROM.1>
-145.77306870,40.38815604,-106.54554267,-154.10149800,62.10015023,-77.78279569
20.19653176,-1.51091735,52.32733758,-1.48685585,-0.69798449,1.19854466

>  <Name>
2oe8_lig

>  <RI>
0

>  <Rbt.Current_Directory>
/home/itssahil/PROJECTS/Mol_Feturizer/New_Systems/rnas/2oe8

>  <Rbt.Executable>
rbdock ($Id: //depot/dev/client3/rdock/2013.1/src/exe/rbdock.cxx#4 $)

>  <Rbt.Library>
libRbt.so (2013.1, Build901 2013/11/27)

>  <Rbt.Parameter_File>
/export/apps/rDock/src/rDock_2013.1_src/data/scripts/dock_solv.prm

>  <Rbt.Receptor>
prm/pocket_docking_4.prm

>  <SCORE>
-13.9347

>  <SCORE.INTER>
-16.0409

>  <SCORE.INTER.CONST>
1

>  <SCORE.INTER.POLAR>
-1.51693

>  <SCORE.INTER.ROT>
6

>  <SCORE.INTER.SOLV>
14.7741

>  <SCORE.INTER.VDW>
-18.1622

>  <SCORE.INTER.norm>
-0.433537

>  <SCORE.INTRA>
2.10614

>  <SCORE.INTRA.DIHEDRAL>
-1.11444

>  <SCORE.INTRA.DIHEDRAL.0>
16.4056

>  <SCORE.INTRA.POLAR>
0

>  <SCORE.INTRA.POLAR.0>
0

>  <SCORE.INTRA.REPUL>
0

>  <SCORE.INTRA.REPUL.0>
0

>  <SCORE.INTRA.SOLV>
2.10178

>  <SCORE.INTRA.SOLV.lig_0>
-90.9627

>  <SCORE.INTRA.VDW>
1.61247

>  <SCORE.INTRA.VDW.0>
-3.28744

>  <SCORE.INTRA.norm>
0.0569227

>  <SCORE.RESTR>
0

>  <SCORE.RESTR.CAVITY>
0

>  <SCORE.RESTR.norm>
0

>  <SCORE.SYSTEM>
0

>  <SCORE.SYSTEM.CONST>
0

>  <SCORE.SYSTEM.DIHEDRAL>
0

>  <SCORE.SYSTEM.SOLV>
0

>  <SCORE.SYSTEM.norm>
0

>  <SCORE.heavy>
37

>  <SCORE.norm>
-0.376615

>  <RMSD>
9.857

$$$$
2oe8_lig
 OpenBabel11021811463D
libRbt.so/2013.1/901 2013/11/27
 37 40  0  0  0  0  0  0  0  0999 V2000
   20.9775   -3.3633   47.2195 C   0  0  1  0  0  0  0  0  0  0  0  0
   19.9674   -3.9784   48.2611 C   0  0  1  0  0  0  0  0  0  0  0  0
   19.2577   -2.8373   49.0192 C   0  0  0  0  0  0  0  0  0  0  0  0
   20.3837   -2.0252   49.7322 C   0  0  1  0  0  0  0  0  0  0  0  0
   21.4385   -1.4058   48.6786 C   0  0  1  0  0  0  0  0  0  0  0  0
   22.5761   -0.6100   49.3832 C   0  0  1  0  0  0  0  0  0  0  0  0
   21.8919    0.5361   50.2348 C   0  0  1  0  0  0  0  0  0  0  0  0
   20.8460   -0.1113   51.2079 C   0  0  2  0  0  0  0  0  0  0  0  0
   23.7180    0.6992   52.1150 C   0  0  0  0  0  0  0  0  0  0  0  0
   18.9504   -4.8299   47.5663 N   0  0  0  0  0  0  0  0  0  0  0  0
   22.9301    1.3476   51.0048 N   0  0  0  0  0  0  0  0  0  0  0  0
   20.3056   -2.5608   46.2405 O   0  0  0  0  0  0  0  0  0  0  0  0
   22.0025   -2.5081   47.8872 O   0  0  0  0  0  0  0  0  0  0  0  0
   19.8134   -0.9246   50.5007 O   0  0  0  0  0  0  0  0  0  0  0  0
   23.2959   -1.5374   50.1970 O   0  0  0  0  0  0  0  0  0  0  0  0
   20.2037    0.8915   51.9073 O   0  0  0  0  0  0  0  0  0  0  0  0
   19.1982    0.4015   52.8104 C   0  0  2  0  0  0  0  0  0  0  0  0
   18.6347    1.5613   53.6666 C   0  0  1  0  0  0  0  0  0  0  0  0
   19.7123    2.1473   54.6295 C   0  0  2  0  0  0  0  0  0  0  0  0
   20.2407    1.0162   55.5603 C   0  0  1  0  0  0  0  0  0  0  0  0
   20.8728   -0.0948   54.6226 C   0  0  1  0  0  0  0  0  0  0  0  0
   21.4165   -1.2756   55.4219 C   0  0  0  0  0  0  0  0  0  0  0  0
   21.2711    1.5741   56.4822 N   0  0  0  0  0  0  0  0  0  0  0  0
   19.8003   -0.6205   53.7057 O   0  0  0  0  0  0  0  0  0  0  0  0
   18.1265    2.5557   52.7567 O   0  0  0  0  0  0  0  0  0  0  0  0
   19.1111    3.1620   55.4063 O   0  0  0  0  0  0  0  0  0  0  0  0
   22.0013   -2.2030   54.5462 O   0  0  0  0  0  0  0  0  0  0  0  0
   19.5042   -3.3083   45.3489 C   0  0  1  0  0  0  0  0  0  0  0  0
   18.1647   -2.5333   45.1321 C   0  0  1  0  0  0  0  0  0  0  0  0
   17.2582   -3.3617   44.1756 C   0  0  2  0  0  0  0  0  0  0  0  0
   17.9659   -3.5952   42.8051 C   0  0  1  0  0  0  0  0  0  0  0  0
   19.3243   -4.3669   43.0151 C   0  0  0  0  0  0  0  0  0  0  0  0
   20.2466   -3.5173   43.9844 C   0  0  2  0  0  0  0  0  0  0  0  0
   17.0822   -4.3935   41.9109 N   0  0  0  0  0  0  0  0  0  0  0  0
   21.5207   -4.2469   44.1730 N   0  0  0  0  0  0  0  0  0  0  0  0
   17.4827   -2.3521   46.3872 O   0  0  0  0  0  0  0  0  0  0  0  0
   16.0551   -2.6342   43.9907 O   0  0  0  0  0  0  0  0  0  0  0  0
  1  2  1  0  0  0  0
  1 12  1  6  0  0  0
  1 13  1  0  0  0  0
  2  3  1  0  0  0  0
  2 10  1  6  0  0  0
  4  3  1  6  0  0  0
  4  5  1  0  0  0  0
  4 14  1  0  0  0  0
  5  6  1  0  0  0  0
  5 13  1  1  0  0  0
  6  7  1  0  0  0  0
  6 15  1  1  0  0  0
  7  8  1  0  0  0  0
  7 11  1  1  0  0  0
  8 14  1  0  0  0  0
  8 16  1  6  0  0  0
  9 11  1  0  0  0  0
 17 16  1  6  0  0  0
 17 18  1  0  0  0  0
 17 24  1  0  0  0  0
 18 19  1  0  0  0  0
 18 25  1  6  0  0  0
 19 20  1  0  0  0  0
 19 26  1  1  0  0  0
 20 21  1  0  0  0  0
 20 23  1  1  0  0  0
 21 22  1  1  0  0  0
 21 24  1  0  0  0  0
 22 27  1  0  0  0  0
 28 12  1  1  0  0  0
 28 29  1  0  0  0  0
 28 33  1  0  0  0  0
 29 30  1  0  0  0  0
 29 36  1  1  0  0  0
 30 31  1  0  0  0  0
 30 37  1  6  0  0  0
 31 32  1  0  0  0  0
 31 34  1  6  0  0  0
 32 33  1  0  0  0  0
 33 35  1  1  0  0  0
M  END
>  <CHROM.1>
-69.28325930,-66.55400085,178.69570390,173.79189530,-178.05414971,138.25088253
20.09543879,-1.30695693,49.55198939,-1.74936326,-0.29261775,1.08969546

>  <Name>
2oe8_lig

>  <RI>
0

>  <Rbt.Current_Directory>
/home/itssahil/PROJECTS/Mol_Feturizer/New_Systems/rnas/2oe8

>  <Rbt.Executable>
rbdock ($Id: //depot/dev/client3/rdock/2013.1/src/exe/rbdock.cxx#4 $)

>  <Rbt.Library>
libRbt.so (2013.1, Build901 2013/11/27)

>  <Rbt.Parameter_File>
/export/apps/rDock/src/rDock_2013.1_src/data/scripts/dock_solv.prm

>  <Rbt.Receptor>
prm/pocket_docking_6.prm

>  <SCORE>
-21.8693

>  <SCORE.INTER>
-18.5927

>  <SCORE.INTER.CONST>
1

>  <SCORE.INTER.POLAR>
-1.00582

>  <SCORE.INTER.ROT>
6

>  <SCORE.INTER.SOLV>
13.9541

>  <SCORE.INTER.VDW>
-21.2938

>  <SCORE.INTER.norm>
-0.502506

>  <SCORE.INTRA>
-3.2766

>  <SCORE.INTRA.DIHEDRAL>
-10.003

>  <SCORE.INTRA.DIHEDRAL.0>
16.4056

>  <SCORE.INTRA.POLAR>
0

>  <SCORE.INTRA.POLAR.0>
0

>  <SCORE.INTRA.REPUL>
0

>  <SCORE.INTRA.REPUL.0>
0

>  <SCORE.INTRA.SOLV>
0.779824

>  <SCORE.INTRA.SOLV.lig_0>
-90.9627

>  <SCORE.INTRA.VDW>
1.335

>  <SCORE.INTRA.VDW.0>
-3.28744

>  <SCORE.INTRA.norm>
-0.0885566

>  <SCORE.RESTR>
0

>  <SCORE.RESTR.CAVITY>
0

>  <SCORE.RESTR.norm>
0

>  <SCORE.SYSTEM>
0

>  <SCORE.SYSTEM.CONST>
0

>  <SCORE.SYSTEM.DIHEDRAL>
0

>  <SCORE.SYSTEM.SOLV>
0

>  <SCORE.SYSTEM.norm>
0

>  <SCORE.heavy>
37

>  <SCORE.norm>
-0.591063

>  <RMSD>
9.860

$$$$
2oe8_lig
 OpenBabel11021811463D
libRbt.so/2013.1/901 2013/11/27
 37 40  0  0  0  0  0  0  0  0999 V2000
   22.6341   -2.0071   48.4418 C   0  0  1  0  0  0  0  0  0  0  0  0
   23.7782   -2.3184   49.4799 C   0  0  1  0  0  0  0  0  0  0  0  0
   23.1939   -2.2891   50.9076 C   0  0  0  0  0  0  0  0  0  0  0  0
   22.6188   -0.8525   51.1107 C   0  0  1  0  0  0  0  0  0  0  0  0
   21.4594   -0.5114   50.0405 C   0  0  1  0  0  0  0  0  0  0  0  0
   20.8934    0.9274   50.2240 C   0  0  1  0  0  0  0  0  0  0  0  0
   20.3416    1.0314   51.7044 C   0  0  1  0  0  0  0  0  0  0  0  0
   21.4898    0.6473   52.7014 C   0  0  2  0  0  0  0  0  0  0  0  0
   18.7017    2.6142   53.0091 C   0  0  0  0  0  0  0  0  0  0  0  0
   24.3805   -3.6625   49.2100 N   0  0  0  0  0  0  0  0  0  0  0  0
   19.8044    2.4297   51.9972 N   0  0  0  0  0  0  0  0  0  0  0  0
   21.5923   -2.9900   48.4911 O   0  0  0  0  0  0  0  0  0  0  0  0
   22.0156   -0.6716   48.6897 O   0  0  0  0  0  0  0  0  0  0  0  0
   22.0551   -0.7107   52.4483 O   0  0  0  0  0  0  0  0  0  0  0  0
   21.9679    1.8361   49.9782 O   0  0  0  0  0  0  0  0  0  0  0  0
   20.9934    0.6770   53.9898 O   0  0  0  0  0  0  0  0  0  0  0  0
   21.9693    1.0771   54.9667 C   0  0  2  0  0  0  0  0  0  0  0  0
   22.4199   -0.1429   55.8060 C   0  0  1  0  0  0  0  0  0  0  0  0
   21.2586   -0.7037   56.6828 C   0  0  2  0  0  0  0  0  0  0  0  0
   20.7377    0.4197   57.6271 C   0  0  1  0  0  0  0  0  0  0  0  0
   20.2209    1.5977   56.7006 C   0  0  1  0  0  0  0  0  0  0  0  0
   19.6950    2.7764   57.5149 C   0  0  0  0  0  0  0  0  0  0  0  0
   19.6274   -0.1142   58.4667 N   0  0  0  0  0  0  0  0  0  0  0  0
   21.3712    2.0969   55.8670 O   0  0  0  0  0  0  0  0  0  0  0  0
   22.9267   -1.1296   54.8870 O   0  0  0  0  0  0  0  0  0  0  0  0
   21.7591   -1.7780   57.4509 O   0  0  0  0  0  0  0  0  0  0  0  0
   19.1488    3.7359   56.6488 O   0  0  0  0  0  0  0  0  0  0  0  0
   20.5777   -2.7886   47.5289 C   0  0  1  0  0  0  0  0  0  0  0  0
   20.6899   -3.9218   46.4589 C   0  0  1  0  0  0  0  0  0  0  0  0
   19.5967   -3.6940   45.3744 C   0  0  2  0  0  0  0  0  0  0  0  0
   18.1730   -3.7030   46.0120 C   0  0  1  0  0  0  0  0  0  0  0  0
   18.0540   -2.5698   47.1012 C   0  0  0  0  0  0  0  0  0  0  0  0
   19.1645   -2.8090   48.2066 C   0  0  2  0  0  0  0  0  0  0  0  0
   17.1467   -3.4779   44.9567 N   0  0  0  0  0  0  0  0  0  0  0  0
   19.0433   -1.7433   49.2268 N   0  0  0  0  0  0  0  0  0  0  0  0
   21.9865   -3.8927   45.8334 O   0  0  0  0  0  0  0  0  0  0  0  0
   19.7161   -4.7376   44.4218 O   0  0  0  0  0  0  0  0  0  0  0  0
  1  2  1  0  0  0  0
  1 12  1  1  0  0  0
  1 13  1  0  0  0  0
  2  3  1  0  0  0  0
  2 10  1  6  0  0  0
  4  3  1  6  0  0  0
  4  5  1  0  0  0  0
  4 14  1  0  0  0  0
  5  6  1  0  0  0  0
  5 13  1  6  0  0  0
  6  7  1  0  0  0  0
  6 15  1  1  0  0  0
  7  8  1  0  0  0  0
  7 11  1  1  0  0  0
  8 14  1  0  0  0  0
  8 16  1  1  0  0  0
  9 11  1  0  0  0  0
 17 16  1  6  0  0  0
 17 18  1  0  0  0  0
 17 24  1  0  0  0  0
 18 19  1  0  0  0  0
 18 25  1  6  0  0  0
 19 20  1  0  0  0  0
 19 26  1  1  0  0  0
 20 21  1  0  0  0  0
 20 23  1  6  0  0  0
 21 22  1  1  0  0  0
 21 24  1  0  0  0  0
 22 27  1  0  0  0  0
 28 12  1  1  0  0  0
 28 29  1  0  0  0  0
 28 33  1  0  0  0  0
 29 30  1  0  0  0  0
 29 36  1  6  0  0  0
 30 31  1  0  0  0  0
 30 37  1  6  0  0  0
 31 32  1  0  0  0  0
 31 34  1  6  0  0  0
 32 33  1  0  0  0  0
 33 35  1  1  0  0  0
M  END
>  <CHROM.1>
-176.93888131,151.44114357,-147.46193053,-106.66164175,-175.01019222,109.93305360
20.90931311,-0.82758364,51.38096254,-1.62823749,-0.57029193,1.11451461

>  <Name>
2oe8_lig

>  <RI>
0

>  <Rbt.Current_Directory>
/home/itssahil/PROJECTS/Mol_Feturizer/New_Systems/rnas/2oe8

>  <Rbt.Executable>
rbdock ($Id: //depot/dev/client3/rdock/2013.1/src/exe/rbdock.cxx#4 $)

>  <Rbt.Library>
libRbt.so (2013.1, Build901 2013/11/27)

>  <Rbt.Parameter_File>
/export/apps/rDock/src/rDock_2013.1_src/data/scripts/dock_solv.prm

>  <Rbt.Receptor>
prm/pocket_docking_3.prm

>  <SCORE>
-12.8421

>  <SCORE.INTER>
-13.1131

>  <SCORE.INTER.CONST>
1

>  <SCORE.INTER.POLAR>
-0.657726

>  <SCORE.INTER.ROT>
6

>  <SCORE.INTER.SOLV>
16.2579

>  <SCORE.INTER.VDW>
-19.569

>  <SCORE.INTER.norm>
-0.354408

>  <SCORE.INTRA>
0.265607

>  <SCORE.INTRA.DIHEDRAL>
1.45025

>  <SCORE.INTRA.DIHEDRAL.0>
16.4056

>  <SCORE.INTRA.POLAR>
0

>  <SCORE.INTRA.POLAR.0>
0

>  <SCORE.INTRA.REPUL>
0

>  <SCORE.INTRA.REPUL.0>
0

>  <SCORE.INTRA.SOLV>
0.316209

>  <SCORE.INTRA.SOLV.lig_0>
-90.9627

>  <SCORE.INTRA.VDW>
-0.617625

>  <SCORE.INTRA.VDW.0>
-3.28744

>  <SCORE.INTRA.norm>
0.00717857

>  <SCORE.RESTR>
0.00538389

>  <SCORE.RESTR.CAVITY>
0.00538389

>  <SCORE.RESTR.norm>
0.000145511

>  <SCORE.SYSTEM>
0

>  <SCORE.SYSTEM.CONST>
0

>  <SCORE.SYSTEM.DIHEDRAL>
0

>  <SCORE.SYSTEM.SOLV>
0

>  <SCORE.SYSTEM.norm>
0

>  <SCORE.heavy>
37

>  <SCORE.norm>
-0.347084

>  <RMSD>
9.863

$$$$
2oe8_lig
 OpenBabel11021811463D
libRbt.so/2013.1/901 2013/11/27
 37 40  0  0  0  0  0  0  0  0999 V2000
   18.1985   -4.7019   48.3155 C   0  0  1  0  0  0  0  0  0  0  0  0
   18.3129   -5.4424   49.7018 C   0  0  1  0  0  0  0  0  0  0  0  0
   18.1266   -4.4211   50.8432 C   0  0  0  0  0  0  0  0  0  0  0  0
   19.2623   -3.3648   50.6686 C   0  0  1  0  0  0  0  0  0  0  0  0
   19.1703   -2.6120   49.2435 C   0  0  1  0  0  0  0  0  0  0  0  0
   20.3113   -1.5699   49.0534 C   0  0  1  0  0  0  0  0  0  0  0  0
   20.2062   -0.5333   50.2456 C   0  0  1  0  0  0  0  0  0  0  0  0
   20.2543   -1.3164   51.6037 C   0  0  2  0  0  0  0  0  0  0  0  0
   21.1434    1.8446   50.8486 C   0  0  0  0  0  0  0  0  0  0  0  0
   17.2737   -6.5149   49.8115 N   0  0  0  0  0  0  0  0  0  0  0  0
   21.3192    0.5084   50.1722 N   0  0  0  0  0  0  0  0  0  0  0  0
   16.9080   -4.1038   48.1394 O   0  0  0  0  0  0  0  0  0  0  0  0
   19.2240   -3.6258   48.1810 O   0  0  0  0  0  0  0  0  0  0  0  0
   19.1888   -2.3553   51.7186 O   0  0  0  0  0  0  0  0  0  0  0  0
   21.5447   -2.2904   49.0652 O   0  0  0  0  0  0  0  0  0  0  0  0
   20.1003   -0.4207   52.6434 O   0  0  0  0  0  0  0  0  0  0  0  0
   18.7399   -0.2973   53.0918 C   0  0  2  0  0  0  0  0  0  0  0  0
   18.1383    1.0474   52.6170 C   0  0  1  0  0  0  0  0  0  0  0  0
   18.8395    2.2663   53.2914 C   0  0  2  0  0  0  0  0  0  0  0  0
   18.7037    2.1472   54.8382 C   0  0  1  0  0  0  0  0  0  0  0  0
   19.4093    0.7917   55.2599 C   0  0  1  0  0  0  0  0  0  0  0  0
   19.3290    0.5497   56.7645 C   0  0  0  0  0  0  0  0  0  0  0  0
   19.3731    3.3115   55.4853 N   0  0  0  0  0  0  0  0  0  0  0  0
   18.7069   -0.3516   54.5765 O   0  0  0  0  0  0  0  0  0  0  0  0
   18.2552    1.0844   51.1818 O   0  0  0  0  0  0  0  0  0  0  0  0
   18.2054    3.4472   52.8467 O   0  0  0  0  0  0  0  0  0  0  0  0
   20.0207   -0.6282   57.0858 O   0  0  0  0  0  0  0  0  0  0  0  0
   16.4937   -4.0378   46.7904 C   0  0  1  0  0  0  0  0  0  0  0  0
   17.5189   -3.1545   46.0091 C   0  0  1  0  0  0  0  0  0  0  0  0
   17.0569   -3.0472   44.5265 C   0  0  2  0  0  0  0  0  0  0  0  0
   16.9634   -4.4599   43.8714 C   0  0  1  0  0  0  0  0  0  0  0  0
   15.9393   -5.3622   44.6601 C   0  0  0  0  0  0  0  0  0  0  0  0
   16.4166   -5.4739   46.1674 C   0  0  2  0  0  0  0  0  0  0  0  0
   16.5149   -4.3311   42.4572 N   0  0  0  0  0  0  0  0  0  0  0  0
   15.4521   -6.3254   46.8993 N   0  0  0  0  0  0  0  0  0  0  0  0
   17.5789   -1.8341   46.5800 O   0  0  0  0  0  0  0  0  0  0  0  0
   18.0063   -2.2482   43.8401 O   0  0  0  0  0  0  0  0  0  0  0  0
  1  2  1  0  0  0  0
  1 12  1  1  0  0  0
  1 13  1  0  0  0  0
  2  3  1  0  0  0  0
  2 10  1  6  0  0  0
  4  3  1  1  0  0  0
  4  5  1  0  0  0  0
  4 14  1  0  0  0  0
  5  6  1  0  0  0  0
  5 13  1  6  0  0  0
  6  7  1  0  0  0  0
  6 15  1  1  0  0  0
  7  8  1  0  0  0  0
  7 11  1  1  0  0  0
  8 14  1  0  0  0  0
  8 16  1  1  0  0  0
  9 11  1  0  0  0  0
 17 16  1  1  0  0  0
 17 18  1  0  0  0  0
 17 24  1  0  0  0  0
 18 19  1  0  0  0  0
 18 25  1  6  0  0  0
 19 20  1  0  0  0  0
 19 26  1  6  0  0  0
 20 21  1  0  0  0  0
 20 23  1  1  0  0  0
 21 22  1  1  0  0  0
 21 24  1  0  0  0  0
 22 27  1  0  0  0  0
 28 12  1  1  0  0  0
 28 29  1  0  0  0  0
 28 33  1  0  0  0  0
 29 30  1  0  0  0  0
 29 36  1  1  0  0  0
 30 31  1  0  0  0  0
 30 37  1  6  0  0  0
 31 32  1  0  0  0  0
 31 34  1  6  0  0  0
 32 33  1  0  0  0  0
 33 35  1  1  0  0  0
M  END
>  <CHROM.1>
-149.71498870,157.22052871,94.59882032,-106.08387573,-177.30663205,-61.28372776
18.56773264,-1.79518888,50.00873101,2.54009249,-1.29829924,-1.18575291

>  <Name>
2oe8_lig

>  <RI>
0

>  <Rbt.Current_Directory>
/home/itssahil/PROJECTS/Mol_Feturizer/New_Systems/rnas/2oe8

>  <Rbt.Executable>
rbdock ($Id: //depot/dev/client3/rdock/2013.1/src/exe/rbdock.cxx#4 $)

>  <Rbt.Library>
libRbt.so (2013.1, Build901 2013/11/27)

>  <Rbt.Parameter_File>
/export/apps/rDock/src/rDock_2013.1_src/data/scripts/dock_solv.prm

>  <Rbt.Receptor>
prm/pocket_docking_6.prm

>  <SCORE>
-20.3728

>  <SCORE.INTER>
-23.1792

>  <SCORE.INTER.CONST>
1

>  <SCORE.INTER.POLAR>
-2.65259

>  <SCORE.INTER.ROT>
6

>  <SCORE.INTER.SOLV>
19.0727

>  <SCORE.INTER.VDW>
-20.5684

>  <SCORE.INTER.norm>
-0.626465

>  <SCORE.INTRA>
2.80634

>  <SCORE.INTRA.DIHEDRAL>
-1.59869

>  <SCORE.INTRA.DIHEDRAL.0>
16.4056

>  <SCORE.INTRA.POLAR>
0

>  <SCORE.INTRA.POLAR.0>
0

>  <SCORE.INTRA.REPUL>
0

>  <SCORE.INTRA.REPUL.0>
0

>  <SCORE.INTRA.SOLV>
0.806882

>  <SCORE.INTRA.SOLV.lig_0>
-90.9627

>  <SCORE.INTRA.VDW>
3.20225

>  <SCORE.INTRA.VDW.0>
-3.28744

>  <SCORE.INTRA.norm>
0.0758471

>  <SCORE.RESTR>
0

>  <SCORE.RESTR.CAVITY>
0

>  <SCORE.RESTR.norm>
0

>  <SCORE.SYSTEM>
0

>  <SCORE.SYSTEM.CONST>
0

>  <SCORE.SYSTEM.DIHEDRAL>
0

>  <SCORE.SYSTEM.SOLV>
0

>  <SCORE.SYSTEM.norm>
0

>  <SCORE.heavy>
37

>  <SCORE.norm>
-0.550618

>  <RMSD>
9.863

$$$$
2oe8_lig
 OpenBabel11021811463D
libRbt.so/2013.1/901 2013/11/27
 37 40  0  0  0  0  0  0  0  0999 V2000
   19.2271   -2.1822   49.1142 C   0  0  1  0  0  0  0  0  0  0  0  0
   20.6908   -2.6999   49.3844 C   0  0  1  0  0  0  0  0  0  0  0  0
   20.8896   -2.9005   50.9013 C   0  0  0  0  0  0  0  0  0  0  0  0
   20.6511   -1.5046   51.5574 C   0  0  1  0  0  0  0  0  0  0  0  0
   19.1617   -0.9516   51.2716 C   0  0  1  0  0  0  0  0  0  0  0  0
   18.9218    0.4495   51.9068 C   0  0  1  0  0  0  0  0  0  0  0  0
   19.1828    0.3125   53.4625 C   0  0  1  0  0  0  0  0  0  0  0  0
   20.6218   -0.2699   53.6856 C   0  0  2  0  0  0  0  0  0  0  0  0
   18.6395    1.6913   55.6305 C   0  0  0  0  0  0  0  0  0  0  0  0
   20.9303   -3.9939   48.6699 N   0  0  0  0  0  0  0  0  0  0  0  0
   19.0169    1.6541   54.1711 N   0  0  0  0  0  0  0  0  0  0  0  0
   18.2421   -3.1291   49.5468 O   0  0  0  0  0  0  0  0  0  0  0  0
   18.9620   -0.8924   49.8169 O   0  0  0  0  0  0  0  0  0  0  0  0
   20.8360   -1.5794   53.0022 O   0  0  0  0  0  0  0  0  0  0  0  0
   19.8304    1.3562   51.2798 O   0  0  0  0  0  0  0  0  0  0  0  0
   20.8283   -0.4485   55.0393 O   0  0  0  0  0  0  0  0  0  0  0  0
   22.2186   -0.4782   55.4041 C   0  0  2  0  0  0  0  0  0  0  0  0
   22.3681   -0.5654   56.9422 C   0  0  1  0  0  0  0  0  0  0  0  0
   21.8498    0.7245   57.6489 C   0  0  2  0  0  0  0  0  0  0  0  0
   22.6377    1.9566   57.1137 C   0  0  1  0  0  0  0  0  0  0  0  0
   22.3742    2.0295   55.5522 C   0  0  1  0  0  0  0  0  0  0  0  0
   23.1119    3.1965   54.9020 C   0  0  0  0  0  0  0  0  0  0  0  0
   22.1441    3.1912   57.7881 N   0  0  0  0  0  0  0  0  0  0  0  0
   22.8790    0.7609   54.9173 O   0  0  0  0  0  0  0  0  0  0  0  0
   21.6556   -1.7404   57.3744 O   0  0  0  0  0  0  0  0  0  0  0  0
   22.0643    0.5883   59.0380 O   0  0  0  0  0  0  0  0  0  0  0  0
   24.4957    2.9787   54.9845 O   0  0  0  0  0  0  0  0  0  0  0  0
   18.0114   -4.1698   48.6197 C   0  0  1  0  0  0  0  0  0  0  0  0
   17.2359   -5.3114   49.3526 C   0  0  1  0  0  0  0  0  0  0  0  0
   17.0023   -6.4792   48.3502 C   0  0  2  0  0  0  0  0  0  0  0  0
   16.1880   -5.9923   47.1119 C   0  0  1  0  0  0  0  0  0  0  0  0
   16.9578   -4.8324   46.3724 C   0  0  0  0  0  0  0  0  0  0  0  0
   17.1879   -3.6431   47.3945 C   0  0  2  0  0  0  0  0  0  0  0  0
   15.9828   -7.1246   46.1667 N   0  0  0  0  0  0  0  0  0  0  0  0
   17.9075   -2.5573   46.6912 N   0  0  0  0  0  0  0  0  0  0  0  0
   18.0007   -5.7975   50.4715 O   0  0  0  0  0  0  0  0  0  0  0  0
   16.2923   -7.4963   49.0374 O   0  0  0  0  0  0  0  0  0  0  0  0
  1  2  1  0  0  0  0
  1 12  1  1  0  0  0
  1 13  1  0  0  0  0
  2  3  1  0  0  0  0
  2 10  1  6  0  0  0
  4  3  1  6  0  0  0
  4  5  1  0  0  0  0
  4 14  1  0  0  0  0
  5  6  1  0  0  0  0
  5 13  1  6  0  0  0
  6  7  1  0  0  0  0
  6 15  1  6  0  0  0
  7  8  1  0  0  0  0
  7 11  1  1  0  0  0
  8 14  1  0  0  0  0
  8 16  1  1  0  0  0
  9 11  1  0  0  0  0
 17 16  1  1  0  0  0
 17 18  1  0  0  0  0
 17 24  1  0  0  0  0
 18 19  1  0  0  0  0
 18 25  1  1  0  0  0
 19 20  1  0  0  0  0
 19 26  1  1  0  0  0
 20 21  1  0  0  0  0
 20 23  1  1  0  0  0
 21 22  1  6  0  0  0
 21 24  1  0  0  0  0
 22 27  1  0  0  0  0
 28 12  1  1  0  0  0
 28 29  1  0  0  0  0
 28 33  1  0  0  0  0
 29 30  1  0  0  0  0
 29 36  1  1  0  0  0
 30 31  1  0  0  0  0
 30 37  1  1  0  0  0
 31 32  1  0  0  0  0
 31 34  1  6  0  0  0
 32 33  1  0  0  0  0
 33 35  1  6  0  0  0
M  END
>  <CHROM.1>
-81.49270997,154.11681884,-157.51790249,175.42761799,66.14071241,164.89785795
19.89306633,-1.49274686,52.20627277,-2.91678952,1.14206684,2.23796236

>  <Name>
2oe8_lig

>  <RI>
0

>  <Rbt.Current_Directory>
/home/itssahil/PROJECTS/Mol_Feturizer/New_Systems/rnas/2oe8

>  <Rbt.Executable>
rbdock ($Id: //depot/dev/client3/rdock/2013.1/src/exe/rbdock.cxx#4 $)

>  <Rbt.Library>
libRbt.so (2013.1, Build901 2013/11/27)

>  <Rbt.Parameter_File>
/export/apps/rDock/src/rDock_2013.1_src/data/scripts/dock_solv.prm

>  <Rbt.Receptor>
prm/pocket_docking_8.prm

>  <SCORE>
-26.279

>  <SCORE.INTER>
-22.1701

>  <SCORE.INTER.CONST>
1

>  <SCORE.INTER.POLAR>
-1.85773

>  <SCORE.INTER.ROT>
6

>  <SCORE.INTER.SOLV>
14.669

>  <SCORE.INTER.VDW>
-21.0773

>  <SCORE.INTER.norm>
-0.599193

>  <SCORE.INTRA>
-4.10884

>  <SCORE.INTRA.DIHEDRAL>
-10.3295

>  <SCORE.INTRA.DIHEDRAL.0>
16.4056

>  <SCORE.INTRA.POLAR>
0

>  <SCORE.INTRA.POLAR.0>
0

>  <SCORE.INTRA.REPUL>
0

>  <SCORE.INTRA.REPUL.0>
0

>  <SCORE.INTRA.SOLV>
1.63228

>  <SCORE.INTRA.SOLV.lig_0>
-90.9627

>  <SCORE.INTRA.VDW>
0.239752

>  <SCORE.INTRA.VDW.0>
-3.28744

>  <SCORE.INTRA.norm>
-0.11105

>  <SCORE.RESTR>
0

>  <SCORE.RESTR.CAVITY>
0

>  <SCORE.RESTR.norm>
0

>  <SCORE.SYSTEM>
0

>  <SCORE.SYSTEM.CONST>
0

>  <SCORE.SYSTEM.DIHEDRAL>
0

>  <SCORE.SYSTEM.SOLV>
0

>  <SCORE.SYSTEM.norm>
0

>  <SCORE.heavy>
37

>  <SCORE.norm>
-0.710243

>  <RMSD>
9.865

$$$$
2oe8_lig
 OpenBabel11021811463D
libRbt.so/2013.1/901 2013/11/27
 37 40  0  0  0  0  0  0  0  0999 V2000
   20.3768   -2.2256   48.5842 C   0  0  1  0  0  0  0  0  0  0  0  0
   21.9054   -2.2729   48.9647 C   0  0  1  0  0  0  0  0  0  0  0  0
   22.0467   -2.5226   50.4807 C   0  0  0  0  0  0  0  0  0  0  0  0
   21.3232   -1.3323   51.1848 C   0  0  1  0  0  0  0  0  0  0  0  0
   19.7601   -1.2585   50.7882 C   0  0  1  0  0  0  0  0  0  0  0  0
   19.0352   -0.0621   51.4716 C   0  0  1  0  0  0  0  0  0  0  0  0
   19.2118   -0.2351   53.0355 C   0  0  1  0  0  0  0  0  0  0  0  0
   20.7414   -0.3476   53.3633 C   0  0  2  0  0  0  0  0  0  0  0  0
   19.0817    2.3271   53.5966 C   0  0  0  0  0  0  0  0  0  0  0  0
   22.6012   -3.3619   48.2082 N   0  0  0  0  0  0  0  0  0  0  0  0
   18.5705    0.9226   53.7957 N   0  0  0  0  0  0  0  0  0  0  0  0
   19.7212   -3.4677   48.8698 O   0  0  0  0  0  0  0  0  0  0  0  0
   19.6590   -1.1478   49.3264 O   0  0  0  0  0  0  0  0  0  0  0  0
   21.4161   -1.4617   52.6345 O   0  0  0  0  0  0  0  0  0  0  0  0
   19.6458    1.1335   50.9834 O   0  0  0  0  0  0  0  0  0  0  0  0
   20.8949   -0.5608   54.7191 O   0  0  0  0  0  0  0  0  0  0  0  0
   22.2701   -0.6334   55.1319 C   0  0  2  0  0  0  0  0  0  0  0  0
   22.3702   -0.5867   56.6757 C   0  0  1  0  0  0  0  0  0  0  0  0
   21.9075    0.7894   57.2451 C   0  0  2  0  0  0  0  0  0  0  0  0
   22.7805    1.9217   56.6278 C   0  0  1  0  0  0  0  0  0  0  0  0
   22.5665    1.8649   55.0580 C   0  0  1  0  0  0  0  0  0  0  0  0
   23.3890    2.9246   54.3305 C   0  0  0  0  0  0  0  0  0  0  0  0
   22.3403    3.2385   57.1708 N   0  0  0  0  0  0  0  0  0  0  0  0
   23.0150    0.5173   54.5578 O   0  0  0  0  0  0  0  0  0  0  0  0
   21.5787   -1.6758   57.1880 O   0  0  0  0  0  0  0  0  0  0  0  0
   22.0738    0.7701   58.6474 O   0  0  0  0  0  0  0  0  0  0  0  0
   24.7521    2.6054   54.4265 O   0  0  0  0  0  0  0  0  0  0  0  0
   19.1074   -4.0564   47.7418 C   0  0  1  0  0  0  0  0  0  0  0  0
   18.1403   -3.0044   47.1095 C   0  0  1  0  0  0  0  0  0  0  0  0
   17.4328   -3.6510   45.8830 C   0  0  2  0  0  0  0  0  0  0  0  0
   18.4777   -4.1183   44.8231 C   0  0  1  0  0  0  0  0  0  0  0  0
   19.4650   -5.1719   45.4554 C   0  0  0  0  0  0  0  0  0  0  0  0
   20.1878   -4.5077   46.6999 C   0  0  2  0  0  0  0  0  0  0  0  0
   17.7774   -4.7374   43.6638 N   0  0  0  0  0  0  0  0  0  0  0  0
   21.1153   -5.5020   47.2850 N   0  0  0  0  0  0  0  0  0  0  0  0
   17.1448   -2.6003   48.0680 O   0  0  0  0  0  0  0  0  0  0  0  0
   16.5684   -2.6750   45.3251 O   0  0  0  0  0  0  0  0  0  0  0  0
  1  2  1  0  0  0  0
  1 12  1  1  0  0  0
  1 13  1  0  0  0  0
  2  3  1  0  0  0  0
  2 10  1  6  0  0  0
  4  3  1  6  0  0  0
  4  5  1  0  0  0  0
  4 14  1  0  0  0  0
  5  6  1  0  0  0  0
  5 13  1  6  0  0  0
  6  7  1  0  0  0  0
  6 15  1  6  0  0  0
  7  8  1  0  0  0  0
  7 11  1  1  0  0  0
  8 14  1  0  0  0  0
  8 16  1  1  0  0  0
  9 11  1  0  0  0  0
 17 16  1  1  0  0  0
 17 18  1  0  0  0  0
 17 24  1  0  0  0  0
 18 19  1  0  0  0  0
 18 25  1  1  0  0  0
 19 20  1  0  0  0  0
 19 26  1  1  0  0  0
 20 21  1  0  0  0  0
 20 23  1  1  0  0  0
 21 22  1  6  0  0  0
 21 24  1  0  0  0  0
 22 27  1  0  0  0  0
 28 12  1  1  0  0  0
 28 29  1  0  0  0  0
 28 33  1  0  0  0  0
 29 30  1  0  0  0  0
 29 36  1  1  0  0  0
 30 31  1  0  0  0  0
 30 37  1  6  0  0  0
 31 32  1  0  0  0  0
 31 34  1  6  0  0  0
 32 33  1  0  0  0  0
 33 35  1  1  0  0  0
M  END
>  <CHROM.1>
-122.19474146,-62.36157767,-178.00266245,168.65818818,68.85488320,-54.47463003
20.55486124,-1.16290381,51.37454146,-1.91123696,-0.48266348,0.93369575

>  <Name>
2oe8_lig

>  <RI>
0

>  <Rbt.Current_Directory>
/home/itssahil/PROJECTS/Mol_Feturizer/New_Systems/rnas/2oe8

>  <Rbt.Executable>
rbdock ($Id: //depot/dev/client3/rdock/2013.1/src/exe/rbdock.cxx#4 $)

>  <Rbt.Library>
libRbt.so (2013.1, Build901 2013/11/27)

>  <Rbt.Parameter_File>
/export/apps/rDock/src/rDock_2013.1_src/data/scripts/dock_solv.prm

>  <Rbt.Receptor>
prm/pocket_docking_5.prm

>  <SCORE>
-18.676

>  <SCORE.INTER>
-18.1712

>  <SCORE.INTER.CONST>
1

>  <SCORE.INTER.POLAR>
-2.15962

>  <SCORE.INTER.ROT>
6

>  <SCORE.INTER.SOLV>
11.001

>  <SCORE.INTER.VDW>
-16.1824

>  <SCORE.INTER.norm>
-0.491114

>  <SCORE.INTRA>
-0.504808

>  <SCORE.INTRA.DIHEDRAL>
-8.14724

>  <SCORE.INTRA.DIHEDRAL.0>
16.4056

>  <SCORE.INTRA.POLAR>
0

>  <SCORE.INTRA.POLAR.0>
0

>  <SCORE.INTRA.REPUL>
0

>  <SCORE.INTRA.REPUL.0>
0

>  <SCORE.INTRA.SOLV>
1.73263

>  <SCORE.INTRA.SOLV.lig_0>
-90.9627

>  <SCORE.INTRA.VDW>
2.70249

>  <SCORE.INTRA.VDW.0>
-3.28744

>  <SCORE.INTRA.norm>
-0.0136435

>  <SCORE.RESTR>
0

>  <SCORE.RESTR.CAVITY>
0

>  <SCORE.RESTR.norm>
0

>  <SCORE.SYSTEM>
0

>  <SCORE.SYSTEM.CONST>
0

>  <SCORE.SYSTEM.DIHEDRAL>
0

>  <SCORE.SYSTEM.SOLV>
0

>  <SCORE.SYSTEM.norm>
0

>  <SCORE.heavy>
37

>  <SCORE.norm>
-0.504758

>  <RMSD>
9.870

$$$$
2oe8_lig
 OpenBabel11021811463D
libRbt.so/2013.1/901 2013/11/27
 37 40  0  0  0  0  0  0  0  0999 V2000
   20.0247   -4.9784   49.3685 C   0  0  1  0  0  0  0  0  0  0  0  0
   18.7093   -5.0479   50.2336 C   0  0  1  0  0  0  0  0  0  0  0  0
   18.4046   -3.6506   50.8127 C   0  0  0  0  0  0  0  0  0  0  0  0
   19.6390   -3.2657   51.6867 C   0  0  1  0  0  0  0  0  0  0  0  0
   20.9983   -3.2106   50.8177 C   0  0  1  0  0  0  0  0  0  0  0  0
   22.2380   -2.8459   51.6861 C   0  0  1  0  0  0  0  0  0  0  0  0
   21.9443   -1.4443   52.3616 C   0  0  1  0  0  0  0  0  0  0  0  0
   20.5940   -1.5367   53.1540 C   0  0  2  0  0  0  0  0  0  0  0  0
   23.1018   -1.4585   54.7188 C   0  0  0  0  0  0  0  0  0  0  0  0
   17.5553   -5.5091   49.3982 N   0  0  0  0  0  0  0  0  0  0  0  0
   23.0904   -1.0203   53.2760 N   0  0  0  0  0  0  0  0  0  0  0  0
   19.8815   -4.0839   48.2579 O   0  0  0  0  0  0  0  0  0  0  0  0
   21.1914   -4.5196   50.1784 O   0  0  0  0  0  0  0  0  0  0  0  0
   19.4429   -1.9582   52.3025 O   0  0  0  0  0  0  0  0  0  0  0  0
   22.3998   -3.8904   52.6471 O   0  0  0  0  0  0  0  0  0  0  0  0
   20.3045   -0.2983   53.6923 O   0  0  0  0  0  0  0  0  0  0  0  0
   19.1752   -0.3142   54.5819 C   0  0  2  0  0  0  0  0  0  0  0  0
   18.6630    1.1260   54.8248 C   0  0  1  0  0  0  0  0  0  0  0  0
   19.7055    1.9887   55.6002 C   0  0  2  0  0  0  0  0  0  0  0  0
   20.0247    1.3079   56.9639 C   0  0  1  0  0  0  0  0  0  0  0  0
   20.6173   -0.1254   56.6360 C   0  0  1  0  0  0  0  0  0  0  0  0
   20.9582   -0.9061   57.9022 C   0  0  0  0  0  0  0  0  0  0  0  0
   21.0210    2.1310   57.7072 N   0  0  0  0  0  0  0  0  0  0  0  0
   19.5822   -0.9146   55.8790 O   0  0  0  0  0  0  0  0  0  0  0  0
   18.3475    1.6898   53.5373 O   0  0  0  0  0  0  0  0  0  0  0  0
   19.1477    3.2666   55.8243 O   0  0  0  0  0  0  0  0  0  0  0  0
   19.8196   -0.9944   58.7175 O   0  0  0  0  0  0  0  0  0  0  0  0
   19.0167   -4.5660   47.2502 C   0  0  1  0  0  0  0  0  0  0  0  0
   18.1474   -3.3711   46.7422 C   0  0  1  0  0  0  0  0  0  0  0  0
   17.1671   -3.8951   45.6527 C   0  0  2  0  0  0  0  0  0  0  0  0
   17.9498   -4.5283   44.4610 C   0  0  1  0  0  0  0  0  0  0  0  0
   18.8386   -5.7282   44.9660 C   0  0  0  0  0  0  0  0  0  0  0  0
   19.8394   -5.1892   46.0706 C   0  0  2  0  0  0  0  0  0  0  0  0
   16.9911   -5.0263   43.4360 N   0  0  0  0  0  0  0  0  0  0  0  0
   20.6723   -6.3209   46.5363 N   0  0  0  0  0  0  0  0  0  0  0  0
   17.3872   -2.8084   47.8279 O   0  0  0  0  0  0  0  0  0  0  0  0
   16.3968   -2.7918   45.2049 O   0  0  0  0  0  0  0  0  0  0  0  0
  1  2  1  0  0  0  0
  1 12  1  6  0  0  0
  1 13  1  0  0  0  0
  2  3  1  0  0  0  0
  2 10  1  6  0  0  0
  4  3  1  6  0  0  0
  4  5  1  0  0  0  0
  4 14  1  0  0  0  0
  5  6  1  0  0  0  0
  5 13  1  1  0  0  0
  6  7  1  0  0  0  0
  6 15  1  1  0  0  0
  7  8  1  0  0  0  0
  7 11  1  1  0  0  0
  8 14  1  0  0  0  0
  8 16  1  6  0  0  0
  9 11  1  0  0  0  0
 17 16  1  6  0  0  0
 17 18  1  0  0  0  0
 17 24  1  0  0  0  0
 18 19  1  0  0  0  0
 18 25  1  6  0  0  0
 19 20  1  0  0  0  0
 19 26  1  1  0  0  0
 20 21  1  0  0  0  0
 20 23  1  6  0  0  0
 21 22  1  1  0  0  0
 21 24  1  0  0  0  0
 22 27  1  0  0  0  0
 28 12  1  1  0  0  0
 28 29  1  0  0  0  0
 28 33  1  0  0  0  0
 29 30  1  0  0  0  0
 29 36  1  1  0  0  0
 30 31  1  0  0  0  0
 30 37  1  6  0  0  0
 31 32  1  0  0  0  0
 31 34  1  6  0  0  0
 32 33  1  0  0  0  0
 33 35  1  1  0  0  0
M  END
>  <CHROM.1>
-70.61310859,-87.80575963,-172.45796078,-163.93708896,55.80698802,139.29184576
19.69918523,-2.25559463,51.42653204,-1.79419247,-0.69557996,0.95086486

>  <Name>
2oe8_lig

>  <RI>
0

>  <Rbt.Current_Directory>
/home/itssahil/PROJECTS/Mol_Feturizer/New_Systems/rnas/2oe8

>  <Rbt.Executable>
rbdock ($Id: //depot/dev/client3/rdock/2013.1/src/exe/rbdock.cxx#4 $)

>  <Rbt.Library>
libRbt.so (2013.1, Build901 2013/11/27)

>  <Rbt.Parameter_File>
/export/apps/rDock/src/rDock_2013.1_src/data/scripts/dock_solv.prm

>  <Rbt.Receptor>
prm/pocket_docking_4.prm

>  <SCORE>
-16.1404

>  <SCORE.INTER>
-13.925

>  <SCORE.INTER.CONST>
1

>  <SCORE.INTER.POLAR>
-1.70395

>  <SCORE.INTER.ROT>
6

>  <SCORE.INTER.SOLV>
12.6326

>  <SCORE.INTER.VDW>
-15.4144

>  <SCORE.INTER.norm>
-0.37635

>  <SCORE.INTRA>
-2.2154

>  <SCORE.INTRA.DIHEDRAL>
-8.21894

>  <SCORE.INTRA.DIHEDRAL.0>
16.4056

>  <SCORE.INTRA.POLAR>
0

>  <SCORE.INTRA.POLAR.0>
0

>  <SCORE.INTRA.REPUL>
0

>  <SCORE.INTRA.REPUL.0>
0

>  <SCORE.INTRA.SOLV>
1.35213

>  <SCORE.INTRA.SOLV.lig_0>
-90.9627

>  <SCORE.INTRA.VDW>
1.218

>  <SCORE.INTRA.VDW.0>
-3.28744

>  <SCORE.INTRA.norm>
-0.0598757

>  <SCORE.RESTR>
0

>  <SCORE.RESTR.CAVITY>
0

>  <SCORE.RESTR.norm>
0

>  <SCORE.SYSTEM>
0

>  <SCORE.SYSTEM.CONST>
0

>  <SCORE.SYSTEM.DIHEDRAL>
0

>  <SCORE.SYSTEM.SOLV>
0

>  <SCORE.SYSTEM.norm>
0

>  <SCORE.heavy>
37

>  <SCORE.norm>
-0.436226

>  <RMSD>
9.873

$$$$
2oe8_lig
 OpenBabel11021811463D
libRbt.so/2013.1/901 2013/11/27
 37 40  0  0  0  0  0  0  0  0999 V2000
   19.7046   -5.1450   49.0210 C   0  0  1  0  0  0  0  0  0  0  0  0
   18.5254   -5.3519   50.0457 C   0  0  1  0  0  0  0  0  0  0  0  0
   18.2086   -4.0096   50.7375 C   0  0  0  0  0  0  0  0  0  0  0  0
   19.5209   -3.5759   51.4624 C   0  0  1  0  0  0  0  0  0  0  0  0
   20.7440   -3.3799   50.4272 C   0  0  1  0  0  0  0  0  0  0  0  0
   22.0621   -2.9657   51.1447 C   0  0  1  0  0  0  0  0  0  0  0  0
   21.7690   -1.6228   51.9305 C   0  0  1  0  0  0  0  0  0  0  0  0
   20.5470   -1.8516   52.8867 C   0  0  2  0  0  0  0  0  0  0  0  0
   24.1411   -0.4972   51.9832 C   0  0  0  0  0  0  0  0  0  0  0  0
   17.3029   -5.8576   49.3443 N   0  0  0  0  0  0  0  0  0  0  0  0
   22.9968   -1.1585   52.7092 N   0  0  0  0  0  0  0  0  0  0  0  0
   19.3535   -4.2125   47.9909 O   0  0  0  0  0  0  0  0  0  0  0  0
   20.9365   -4.6397   49.6955 O   0  0  0  0  0  0  0  0  0  0  0  0
   19.3225   -2.3167   52.1711 O   0  0  0  0  0  0  0  0  0  0  0  0
   22.4216   -4.0392   52.0159 O   0  0  0  0  0  0  0  0  0  0  0  0
   20.2503   -0.6646   53.5271 O   0  0  0  0  0  0  0  0  0  0  0  0
   18.8392   -0.4428   53.6899 C   0  0  2  0  0  0  0  0  0  0  0  0
   18.3580    0.6760   52.7348 C   0  0  1  0  0  0  0  0  0  0  0  0
   18.9736    2.0598   53.1067 C   0  0  2  0  0  0  0  0  0  0  0  0
   18.5870    2.4181   54.5721 C   0  0  1  0  0  0  0  0  0  0  0  0
   19.1790    1.2752   55.4976 C   0  0  1  0  0  0  0  0  0  0  0  0
   18.8508    1.5049   56.9701 C   0  0  0  0  0  0  0  0  0  0  0  0
   19.1741    3.7409   54.9301 N   0  0  0  0  0  0  0  0  0  0  0  0
   18.5658   -0.0395   55.0938 O   0  0  0  0  0  0  0  0  0  0  0  0
   18.7058    0.2735   51.3962 O   0  0  0  0  0  0  0  0  0  0  0  0
   18.4512    3.0313   52.2248 O   0  0  0  0  0  0  0  0  0  0  0  0
   19.5200    2.6515   57.4246 O   0  0  0  0  0  0  0  0  0  0  0  0
   19.6938   -4.6496   46.6913 C   0  0  1  0  0  0  0  0  0  0  0  0
   18.3824   -5.0984   45.9698 C   0  0  1  0  0  0  0  0  0  0  0  0
   18.7470   -5.6125   44.5465 C   0  0  2  0  0  0  0  0  0  0  0  0
   19.4549   -4.4961   43.7183 C   0  0  1  0  0  0  0  0  0  0  0  0
   20.7737   -4.0290   44.4444 C   0  0  0  0  0  0  0  0  0  0  0  0
   20.3975   -3.5006   45.8906 C   0  0  2  0  0  0  0  0  0  0  0  0
   19.7979   -5.0135   42.3646 N   0  0  0  0  0  0  0  0  0  0  0  0
   21.6404   -3.0607   46.5636 N   0  0  0  0  0  0  0  0  0  0  0  0
   17.7452   -6.1600   46.7047 O   0  0  0  0  0  0  0  0  0  0  0  0
   17.5410   -6.0059   43.9127 O   0  0  0  0  0  0  0  0  0  0  0  0
  1  2  1  0  0  0  0
  1 12  1  6  0  0  0
  1 13  1  0  0  0  0
  2  3  1  0  0  0  0
  2 10  1  6  0  0  0
  4  3  1  6  0  0  0
  4  5  1  0  0  0  0
  4 14  1  0  0  0  0
  5  6  1  0  0  0  0
  5 13  1  1  0  0  0
  6  7  1  0  0  0  0
  6 15  1  1  0  0  0
  7  8  1  0  0  0  0
  7 11  1  1  0  0  0
  8 14  1  0  0  0  0
  8 16  1  6  0  0  0
  9 11  1  0  0  0  0
 17 16  1  1  0  0  0
 17 18  1  0  0  0  0
 17 24  1  0  0  0  0
 18 19  1  0  0  0  0
 18 25  1  6  0  0  0
 19 20  1  0  0  0  0
 19 26  1  6  0  0  0
 20 21  1  0  0  0  0
 20 23  1  1  0  0  0
 21 22  1  1  0  0  0
 21 24  1  0  0  0  0
 22 27  1  0  0  0  0
 28 12  1  1  0  0  0
 28 29  1  0  0  0  0
 28 33  1  0  0  0  0
 29 30  1  0  0  0  0
 29 36  1  1  0  0  0
 30 31  1  0  0  0  0
 30 37  1  6  0  0  0
 31 32  1  0  0  0  0
 31 34  1  6  0  0  0
 32 33  1  0  0  0  0
 33 35  1  1  0  0  0
M  END
>  <CHROM.1>
-133.84240092,76.54474566,141.81838923,-107.89787720,-66.64431380,105.03182015
19.70417242,-2.19126025,50.45890674,-1.59441630,-0.45397084,0.95007085

>  <Name>
2oe8_lig

>  <RI>
0

>  <Rbt.Current_Directory>
/home/itssahil/PROJECTS/Mol_Feturizer/New_Systems/rnas/2oe8

>  <Rbt.Executable>
rbdock ($Id: //depot/dev/client3/rdock/2013.1/src/exe/rbdock.cxx#4 $)

>  <Rbt.Library>
libRbt.so (2013.1, Build901 2013/11/27)

>  <Rbt.Parameter_File>
/export/apps/rDock/src/rDock_2013.1_src/data/scripts/dock_solv.prm

>  <Rbt.Receptor>
prm/pocket_docking_3.prm

>  <SCORE>
-7.29866

>  <SCORE.INTER>
-14.1072

>  <SCORE.INTER.CONST>
1

>  <SCORE.INTER.POLAR>
-0.998398

>  <SCORE.INTER.ROT>
6

>  <SCORE.INTER.SOLV>
16.409

>  <SCORE.INTER.VDW>
-19.1465

>  <SCORE.INTER.norm>
-0.381275

>  <SCORE.INTRA>
6.70449

>  <SCORE.INTRA.DIHEDRAL>
7.96726

>  <SCORE.INTRA.DIHEDRAL.0>
16.4056

>  <SCORE.INTRA.POLAR>
0

>  <SCORE.INTRA.POLAR.0>
0

>  <SCORE.INTRA.REPUL>
0

>  <SCORE.INTRA.REPUL.0>
0

>  <SCORE.INTRA.SOLV>
0.800363

>  <SCORE.INTRA.SOLV.lig_0>
-90.9627

>  <SCORE.INTRA.VDW>
2.32068

>  <SCORE.INTRA.VDW.0>
-3.28744

>  <SCORE.INTRA.norm>
0.181202

>  <SCORE.RESTR>
0.104041

>  <SCORE.RESTR.CAVITY>
0.104041

>  <SCORE.RESTR.norm>
0.00281191

>  <SCORE.SYSTEM>
0

>  <SCORE.SYSTEM.CONST>
0

>  <SCORE.SYSTEM.DIHEDRAL>
0

>  <SCORE.SYSTEM.SOLV>
0

>  <SCORE.SYSTEM.norm>
0

>  <SCORE.heavy>
37

>  <SCORE.norm>
-0.197261

>  <RMSD>
9.880

$$$$
2oe8_lig
 OpenBabel11021811463D
libRbt.so/2013.1/901 2013/11/27
 37 40  0  0  0  0  0  0  0  0999 V2000
   21.4493   -3.7569   49.5798 C   0  0  1  0  0  0  0  0  0  0  0  0
   22.7295   -3.6171   50.4881 C   0  0  1  0  0  0  0  0  0  0  0  0
   22.2951   -3.3981   51.9524 C   0  0  0  0  0  0  0  0  0  0  0  0
   21.4472   -2.0878   51.9611 C   0  0  1  0  0  0  0  0  0  0  0  0
   20.1426   -2.2088   51.0181 C   0  0  1  0  0  0  0  0  0  0  0  0
   19.3012   -0.8988   51.0062 C   0  0  1  0  0  0  0  0  0  0  0  0
   18.8875   -0.5908   52.5031 C   0  0  1  0  0  0  0  0  0  0  0  0
   20.1833   -0.5287   53.3845 C   0  0  2  0  0  0  0  0  0  0  0  0
   18.7838    2.0301   52.3735 C   0  0  0  0  0  0  0  0  0  0  0  0
   23.5774   -4.8477   50.3933 N   0  0  0  0  0  0  0  0  0  0  0  0
   18.0934    0.7089   52.6010 N   0  0  0  0  0  0  0  0  0  0  0  0
   20.6532   -4.8874   49.9569 O   0  0  0  0  0  0  0  0  0  0  0  0
   20.5853   -2.5423   49.6571 O   0  0  0  0  0  0  0  0  0  0  0  0
   20.9999   -1.7761   53.3138 O   0  0  0  0  0  0  0  0  0  0  0  0
   20.1258    0.1251   50.4473 O   0  0  0  0  0  0  0  0  0  0  0  0
   19.8207   -0.3220   54.7009 O   0  0  0  0  0  0  0  0  0  0  0  0
   20.8606    0.2802   55.4900 C   0  0  2  0  0  0  0  0  0  0  0  0
   20.9222   -0.3784   56.8893 C   0  0  1  0  0  0  0  0  0  0  0  0
   19.6378   -0.0865   57.7242 C   0  0  2  0  0  0  0  0  0  0  0  0
   19.4613    1.4533   57.8759 C   0  0  1  0  0  0  0  0  0  0  0  0
   19.3250    2.0481   56.4127 C   0  0  1  0  0  0  0  0  0  0  0  0
   19.1615    3.5653   56.4255 C   0  0  0  0  0  0  0  0  0  0  0  0
   18.2340    1.7351   58.6740 N   0  0  0  0  0  0  0  0  0  0  0  0
   20.5803    1.7315   55.6437 O   0  0  0  0  0  0  0  0  0  0  0  0
   21.1252   -1.7902   56.6880 O   0  0  0  0  0  0  0  0  0  0  0  0
   19.7907   -0.6765   58.9981 O   0  0  0  0  0  0  0  0  0  0  0  0
   19.0161    4.0306   55.1096 O   0  0  0  0  0  0  0  0  0  0  0  0
   19.6456   -5.2083   49.0201 C   0  0  1  0  0  0  0  0  0  0  0  0
   20.0527   -6.5355   48.3029 C   0  0  1  0  0  0  0  0  0  0  0  0
   18.9658   -6.8845   47.2447 C   0  0  2  0  0  0  0  0  0  0  0  0
   17.5689   -7.0506   47.9189 C   0  0  1  0  0  0  0  0  0  0  0  0
   17.1546   -5.7195   48.6548 C   0  0  0  0  0  0  0  0  0  0  0  0
   18.2605   -5.3712   49.7354 C   0  0  2  0  0  0  0  0  0  0  0  0
   16.5467   -7.3782   46.8867 N   0  0  0  0  0  0  0  0  0  0  0  0
   17.8620   -4.1228   50.4239 N   0  0  0  0  0  0  0  0  0  0  0  0
   21.3211   -6.3774   47.6401 O   0  0  0  0  0  0  0  0  0  0  0  0
   19.3554   -8.0939   46.6151 O   0  0  0  0  0  0  0  0  0  0  0  0
  1  2  1  0  0  0  0
  1 12  1  1  0  0  0
  1 13  1  0  0  0  0
  2  3  1  0  0  0  0
  2 10  1  1  0  0  0
  4  3  1  1  0  0  0
  4  5  1  0  0  0  0
  4 14  1  0  0  0  0
  5  6  1  0  0  0  0
  5 13  1  6  0  0  0
  6  7  1  0  0  0  0
  6 15  1  1  0  0  0
  7  8  1  0  0  0  0
  7 11  1  6  0  0  0
  8 14  1  0  0  0  0
  8 16  1  1  0  0  0
  9 11  1  0  0  0  0
 17 16  1  6  0  0  0
 17 18  1  0  0  0  0
 17 24  1  0  0  0  0
 18 19  1  0  0  0  0
 18 25  1  6  0  0  0
 19 20  1  0  0  0  0
 19 26  1  1  0  0  0
 20 21  1  0  0  0  0
 20 23  1  1  0  0  0
 21 22  1  1  0  0  0
 21 24  1  0  0  0  0
 22 27  1  0  0  0  0
 28 12  1  1  0  0  0
 28 29  1  0  0  0  0
 28 33  1  0  0  0  0
 29 30  1  0  0  0  0
 29 36  1  6  0  0  0
 30 31  1  0  0  0  0
 30 37  1  1  0  0  0
 31 32  1  0  0  0  0
 31 34  1  6  0  0  0
 32 33  1  0  0  0  0
 33 35  1  6  0  0  0
M  END
>  <CHROM.1>
-168.30483942,-70.30908964,-156.11177104,-139.03043222,-178.69304359,108.74077476
19.85027922,-2.11766207,52.28102720,-1.59622311,-0.66795829,0.82313291

>  <Name>
2oe8_lig

>  <RI>
0

>  <Rbt.Current_Directory>
/home/itssahil/PROJECTS/Mol_Feturizer/New_Systems/rnas/2oe8

>  <Rbt.Executable>
rbdock ($Id: //depot/dev/client3/rdock/2013.1/src/exe/rbdock.cxx#4 $)

>  <Rbt.Library>
libRbt.so (2013.1, Build901 2013/11/27)

>  <Rbt.Parameter_File>
/export/apps/rDock/src/rDock_2013.1_src/data/scripts/dock_solv.prm

>  <Rbt.Receptor>
prm/pocket_docking_4.prm

>  <SCORE>
-15.4867

>  <SCORE.INTER>
-14.8969

>  <SCORE.INTER.CONST>
1

>  <SCORE.INTER.POLAR>
-0.979796

>  <SCORE.INTER.ROT>
6

>  <SCORE.INTER.SOLV>
14.8343

>  <SCORE.INTER.VDW>
-19.2101

>  <SCORE.INTER.norm>
-0.40262

>  <SCORE.INTRA>
-0.589759

>  <SCORE.INTRA.DIHEDRAL>
-1.01072

>  <SCORE.INTRA.DIHEDRAL.0>
16.4056

>  <SCORE.INTRA.POLAR>
0

>  <SCORE.INTRA.POLAR.0>
0

>  <SCORE.INTRA.REPUL>
0

>  <SCORE.INTRA.REPUL.0>
0

>  <SCORE.INTRA.SOLV>
0.0837236

>  <SCORE.INTRA.SOLV.lig_0>
-90.9627

>  <SCORE.INTRA.VDW>
-0.126262

>  <SCORE.INTRA.VDW.0>
-3.28744

>  <SCORE.INTRA.norm>
-0.0159394

>  <SCORE.RESTR>
0

>  <SCORE.RESTR.CAVITY>
0

>  <SCORE.RESTR.norm>
0

>  <SCORE.SYSTEM>
0

>  <SCORE.SYSTEM.CONST>
0

>  <SCORE.SYSTEM.DIHEDRAL>
0

>  <SCORE.SYSTEM.SOLV>
0

>  <SCORE.SYSTEM.norm>
0

>  <SCORE.heavy>
37

>  <SCORE.norm>
-0.41856

>  <RMSD>
9.884

$$$$
2oe8_lig
 OpenBabel11021811463D
libRbt.so/2013.1/901 2013/11/27
 37 40  0  0  0  0  0  0  0  0999 V2000
   20.6482   -3.5487   50.0594 C   0  0  1  0  0  0  0  0  0  0  0  0
   19.3013   -3.2010   50.8001 C   0  0  1  0  0  0  0  0  0  0  0  0
   19.1491   -1.6683   50.8901 C   0  0  0  0  0  0  0  0  0  0  0  0
   20.3863   -1.1567   51.6922 C   0  0  1  0  0  0  0  0  0  0  0  0
   21.7751   -1.5239   50.9556 C   0  0  1  0  0  0  0  0  0  0  0  0
   23.0153   -1.0337   51.7591 C   0  0  1  0  0  0  0  0  0  0  0  0
   22.8707    0.5326   51.9398 C   0  0  1  0  0  0  0  0  0  0  0  0
   21.4893    0.8393   52.6162 C   0  0  2  0  0  0  0  0  0  0  0  0
   25.3393    1.4152   52.0940 C   0  0  0  0  0  0  0  0  0  0  0  0
   18.1329   -3.7806   50.0645 N   0  0  0  0  0  0  0  0  0  0  0  0
   24.0236    1.1031   52.7613 N   0  0  0  0  0  0  0  0  0  0  0  0
   20.6603   -3.0444   48.7179 O   0  0  0  0  0  0  0  0  0  0  0  0
   21.8299   -2.9809   50.7726 O   0  0  0  0  0  0  0  0  0  0  0  0
   20.3293    0.2917   51.8532 O   0  0  0  0  0  0  0  0  0  0  0  0
   23.0091   -1.7289   53.0070 O   0  0  0  0  0  0  0  0  0  0  0  0
   21.3341    2.2077   52.7182 O   0  0  0  0  0  0  0  0  0  0  0  0
   20.3491    2.5980   53.6900 C   0  0  2  0  0  0  0  0  0  0  0  0
   20.1192    4.1277   53.6366 C   0  0  1  0  0  0  0  0  0  0  0  0
   21.3851    4.9200   54.0859 C   0  0  2  0  0  0  0  0  0  0  0  0
   21.7699    4.4971   55.5344 C   0  0  1  0  0  0  0  0  0  0  0  0
   22.0680    2.9405   55.4963 C   0  0  1  0  0  0  0  0  0  0  0  0
   22.4443    2.3969   56.8717 C   0  0  0  0  0  0  0  0  0  0  0  0
   22.9799    5.2534   55.9663 N   0  0  0  0  0  0  0  0  0  0  0  0
   20.8238    2.2212   55.0469 O   0  0  0  0  0  0  0  0  0  0  0  0
   19.7290    4.4540   52.2890 O   0  0  0  0  0  0  0  0  0  0  0  0
   21.0814    6.2989   54.0567 O   0  0  0  0  0  0  0  0  0  0  0  0
   23.6516    2.9776   57.2893 O   0  0  0  0  0  0  0  0  0  0  0  0
   19.9318   -3.8412   47.8067 C   0  0  1  0  0  0  0  0  0  0  0  0
   19.1556   -2.8895   46.8406 C   0  0  1  0  0  0  0  0  0  0  0  0
   18.3229   -3.7549   45.8502 C   0  0  2  0  0  0  0  0  0  0  0  0
   19.2494   -4.7054   45.0306 C   0  0  1  0  0  0  0  0  0  0  0  0
   20.0452   -5.6621   45.9981 C   0  0  0  0  0  0  0  0  0  0  0  0
   20.8964   -4.7773   47.0005 C   0  0  2  0  0  0  0  0  0  0  0  0
   18.4299   -5.5253   44.0958 N   0  0  0  0  0  0  0  0  0  0  0  0
   21.6431   -5.6831   47.9024 N   0  0  0  0  0  0  0  0  0  0  0  0
   18.2646   -2.0384   47.5855 O   0  0  0  0  0  0  0  0  0  0  0  0
   17.6355   -2.8687   44.9825 O   0  0  0  0  0  0  0  0  0  0  0  0
  1  2  1  0  0  0  0
  1 12  1  6  0  0  0
  1 13  1  0  0  0  0
  2  3  1  0  0  0  0
  2 10  1  6  0  0  0
  4  3  1  6  0  0  0
  4  5  1  0  0  0  0
  4 14  1  0  0  0  0
  5  6  1  0  0  0  0
  5 13  1  1  0  0  0
  6  7  1  0  0  0  0
  6 15  1  1  0  0  0
  7  8  1  0  0  0  0
  7 11  1  1  0  0  0
  8 14  1  0  0  0  0
  8 16  1  6  0  0  0
  9 11  1  0  0  0  0
 17 16  1  6  0  0  0
 17 18  1  0  0  0  0
 17 24  1  0  0  0  0
 18 19  1  0  0  0  0
 18 25  1  6  0  0  0
 19 20  1  0  0  0  0
 19 26  1  1  0  0  0
 20 21  1  0  0  0  0
 20 23  1  6  0  0  0
 21 22  1  1  0  0  0
 21 24  1  0  0  0  0
 22 27  1  0  0  0  0
 28 12  1  1  0  0  0
 28 29  1  0  0  0  0
 28 33  1  0  0  0  0
 29 30  1  0  0  0  0
 29 36  1  1  0  0  0
 30 31  1  0  0  0  0
 30 37  1  6  0  0  0
 31 32  1  0  0  0  0
 31 34  1  6  0  0  0
 32 33  1  0  0  0  0
 33 35  1  1  0  0  0
M  END
>  <CHROM.1>
-79.07982804,82.46467359,-160.65481647,-173.74740313,-64.50320136,139.70660750
20.90678474,-0.39295315,51.10777947,-1.87791418,-0.70154614,0.60021613

>  <Name>
2oe8_lig

>  <RI>
0

>  <Rbt.Current_Directory>
/home/itssahil/PROJECTS/Mol_Feturizer/New_Systems/rnas/2oe8

>  <Rbt.Executable>
rbdock ($Id: //depot/dev/client3/rdock/2013.1/src/exe/rbdock.cxx#4 $)

>  <Rbt.Library>
libRbt.so (2013.1, Build901 2013/11/27)

>  <Rbt.Parameter_File>
/export/apps/rDock/src/rDock_2013.1_src/data/scripts/dock_solv.prm

>  <Rbt.Receptor>
prm/pocket_docking_6.prm

>  <SCORE>
-15.3252

>  <SCORE.INTER>
-12.4171

>  <SCORE.INTER.CONST>
1

>  <SCORE.INTER.POLAR>
-0.979796

>  <SCORE.INTER.ROT>
6

>  <SCORE.INTER.SOLV>
11.8664

>  <SCORE.INTER.VDW>
-16.5675

>  <SCORE.INTER.norm>
-0.335596

>  <SCORE.INTRA>
-2.90809

>  <SCORE.INTRA.DIHEDRAL>
-6.94261

>  <SCORE.INTRA.DIHEDRAL.0>
16.4056

>  <SCORE.INTRA.POLAR>
0

>  <SCORE.INTRA.POLAR.0>
0

>  <SCORE.INTRA.REPUL>
0

>  <SCORE.INTRA.REPUL.0>
0

>  <SCORE.INTRA.SOLV>
1.32115

>  <SCORE.INTRA.SOLV.lig_0>
-90.9627

>  <SCORE.INTRA.VDW>
-0.0973577

>  <SCORE.INTRA.VDW.0>
-3.28744

>  <SCORE.INTRA.norm>
-0.078597

>  <SCORE.RESTR>
0

>  <SCORE.RESTR.CAVITY>
0

>  <SCORE.RESTR.norm>
0

>  <SCORE.SYSTEM>
0

>  <SCORE.SYSTEM.CONST>
0

>  <SCORE.SYSTEM.DIHEDRAL>
0

>  <SCORE.SYSTEM.SOLV>
0

>  <SCORE.SYSTEM.norm>
0

>  <SCORE.heavy>
37

>  <SCORE.norm>
-0.414193

>  <RMSD>
9.888

$$$$
2oe8_lig
 OpenBabel11021811463D
libRbt.so/2013.1/901 2013/11/27
 37 40  0  0  0  0  0  0  0  0999 V2000
   18.7460   -4.3309   48.4756 C   0  0  1  0  0  0  0  0  0  0  0  0
   18.9380   -5.2362   49.7511 C   0  0  1  0  0  0  0  0  0  0  0  0
   18.5800   -4.4234   51.0128 C   0  0  0  0  0  0  0  0  0  0  0  0
   19.5522   -3.2027   51.0316 C   0  0  1  0  0  0  0  0  0  0  0  0
   19.3815   -2.2767   49.7204 C   0  0  1  0  0  0  0  0  0  0  0  0
   20.3614   -1.0669   49.7222 C   0  0  1  0  0  0  0  0  0  0  0  0
   20.0804   -0.2348   51.0396 C   0  0  1  0  0  0  0  0  0  0  0  0
   20.2136   -1.1872   52.2786 C   0  0  2  0  0  0  0  0  0  0  0  0
   21.3898    1.7514   49.9272 C   0  0  0  0  0  0  0  0  0  0  0  0
   18.0649   -6.4500   49.6698 N   0  0  0  0  0  0  0  0  0  0  0  0
   21.0303    0.9542   51.1557 N   0  0  0  0  0  0  0  0  0  0  0  0
   17.3860   -3.9033   48.3295 O   0  0  0  0  0  0  0  0  0  0  0  0
   19.6056   -3.1121   48.5323 O   0  0  0  0  0  0  0  0  0  0  0  0
   19.3094   -2.3725   52.2059 O   0  0  0  0  0  0  0  0  0  0  0  0
   21.6865   -1.5994   49.6866 O   0  0  0  0  0  0  0  0  0  0  0  0
   19.9081   -0.4784   53.4237 O   0  0  0  0  0  0  0  0  0  0  0  0
   20.9903    0.3459   53.8888 C   0  0  2  0  0  0  0  0  0  0  0  0
   21.0962    0.2727   55.4312 C   0  0  1  0  0  0  0  0  0  0  0  0
   19.8524    0.9046   56.1281 C   0  0  2  0  0  0  0  0  0  0  0  0
   19.7111    2.3898   55.6813 C   0  0  1  0  0  0  0  0  0  0  0  0
   19.5268    2.3819   54.1067 C   0  0  1  0  0  0  0  0  0  0  0  0
   19.3925    3.7925   53.5401 C   0  0  0  0  0  0  0  0  0  0  0  0
   18.5227    2.9963   56.3464 N   0  0  0  0  0  0  0  0  0  0  0  0
   20.7437    1.7535   53.4810 O   0  0  0  0  0  0  0  0  0  0  0  0
   21.2643   -1.1142   55.7822 O   0  0  0  0  0  0  0  0  0  0  0  0
   20.0458    0.8436   57.5256 O   0  0  0  0  0  0  0  0  0  0  0  0
   19.1123    3.7197   52.1670 O   0  0  0  0  0  0  0  0  0  0  0  0
   16.8951   -4.0172   47.0097 C   0  0  1  0  0  0  0  0  0  0  0  0
   17.7170   -3.0489   46.0995 C   0  0  1  0  0  0  0  0  0  0  0  0
   17.1653   -3.1409   44.6469 C   0  0  2  0  0  0  0  0  0  0  0  0
   17.2719   -4.5998   44.1049 C   0  0  1  0  0  0  0  0  0  0  0  0
   16.4546   -5.5861   45.0237 C   0  0  0  0  0  0  0  0  0  0  0  0
   17.0235   -5.4939   46.5002 C   0  0  2  0  0  0  0  0  0  0  0  0
   16.7336   -4.6629   42.7178 N   0  0  0  0  0  0  0  0  0  0  0  0
   16.2534   -6.4254   47.3549 N   0  0  0  0  0  0  0  0  0  0  0  0
   17.5882   -1.6930   46.5668 O   0  0  0  0  0  0  0  0  0  0  0  0
   17.9315   -2.2596   43.8424 O   0  0  0  0  0  0  0  0  0  0  0  0
  1  2  1  0  0  0  0
  1 12  1  1  0  0  0
  1 13  1  0  0  0  0
  2  3  1  0  0  0  0
  2 10  1  6  0  0  0
  4  3  1  6  0  0  0
  4  5  1  0  0  0  0
  4 14  1  0  0  0  0
  5  6  1  0  0  0  0
  5 13  1  6  0  0  0
  6  7  1  0  0  0  0
  6 15  1  1  0  0  0
  7  8  1  0  0  0  0
  7 11  1  1  0  0  0
  8 14  1  0  0  0  0
  8 16  1  1  0  0  0
  9 11  1  0  0  0  0
 17 16  1  1  0  0  0
 17 18  1  0  0  0  0
 17 24  1  0  0  0  0
 18 19  1  0  0  0  0
 18 25  1  6  0  0  0
 19 20  1  0  0  0  0
 19 26  1  1  0  0  0
 20 21  1  0  0  0  0
 20 23  1  1  0  0  0
 21 22  1  6  0  0  0
 21 24  1  0  0  0  0
 22 27  1  0  0  0  0
 28 12  1  1  0  0  0
 28 29  1  0  0  0  0
 28 33  1  0  0  0  0
 29 30  1  0  0  0  0
 29 36  1  1  0  0  0
 30 31  1  0  0  0  0
 30 37  1  6  0  0  0
 31 32  1  0  0  0  0
 31 34  1  6  0  0  0
 32 33  1  0  0  0  0
 33 35  1  1  0  0  0
M  END
>  <CHROM.1>
-135.19780562,39.58659479,-79.56849225,-138.96203694,-174.72753791,-64.14113128
19.09038630,-1.57354393,50.40455570,3.03626014,-1.31610412,-0.69137383

>  <Name>
2oe8_lig

>  <RI>
0

>  <Rbt.Current_Directory>
/home/itssahil/PROJECTS/Mol_Feturizer/New_Systems/rnas/2oe8

>  <Rbt.Executable>
rbdock ($Id: //depot/dev/client3/rdock/2013.1/src/exe/rbdock.cxx#4 $)

>  <Rbt.Library>
libRbt.so (2013.1, Build901 2013/11/27)

>  <Rbt.Parameter_File>
/export/apps/rDock/src/rDock_2013.1_src/data/scripts/dock_solv.prm

>  <Rbt.Receptor>
prm/pocket_docking_6.prm

>  <SCORE>
-21.3263

>  <SCORE.INTER>
-23.6236

>  <SCORE.INTER.CONST>
1

>  <SCORE.INTER.POLAR>
-3.10614

>  <SCORE.INTER.ROT>
6

>  <SCORE.INTER.SOLV>
13.5803

>  <SCORE.INTER.VDW>
-17.522

>  <SCORE.INTER.norm>
-0.638476

>  <SCORE.INTRA>
2.29735

>  <SCORE.INTRA.DIHEDRAL>
-2.4902

>  <SCORE.INTRA.DIHEDRAL.0>
16.4056

>  <SCORE.INTRA.POLAR>
0

>  <SCORE.INTRA.POLAR.0>
0

>  <SCORE.INTRA.REPUL>
0.0310893

>  <SCORE.INTRA.REPUL.0>
0

>  <SCORE.INTRA.SOLV>
2.26249

>  <SCORE.INTRA.SOLV.lig_0>
-90.9627

>  <SCORE.INTRA.VDW>
2.25576

>  <SCORE.INTRA.VDW.0>
-3.28744

>  <SCORE.INTRA.norm>
0.0620905

>  <SCORE.RESTR>
0

>  <SCORE.RESTR.CAVITY>
0

>  <SCORE.RESTR.norm>
0

>  <SCORE.SYSTEM>
0

>  <SCORE.SYSTEM.CONST>
0

>  <SCORE.SYSTEM.DIHEDRAL>
0

>  <SCORE.SYSTEM.SOLV>
0

>  <SCORE.SYSTEM.norm>
0

>  <SCORE.heavy>
37

>  <SCORE.norm>
-0.576385

>  <RMSD>
9.894

$$$$
2oe8_lig
 OpenBabel11021811463D
libRbt.so/2013.1/901 2013/11/27
 37 40  0  0  0  0  0  0  0  0999 V2000
   22.0901   -2.6450   49.6161 C   0  0  1  0  0  0  0  0  0  0  0  0
   22.7904   -3.3624   50.8320 C   0  0  1  0  0  0  0  0  0  0  0  0
   21.8986   -3.2320   52.0844 C   0  0  0  0  0  0  0  0  0  0  0  0
   21.7382   -1.7015   52.3441 C   0  0  1  0  0  0  0  0  0  0  0  0
   21.0406   -0.9491   51.0978 C   0  0  1  0  0  0  0  0  0  0  0  0
   20.8941    0.5816   51.3411 C   0  0  1  0  0  0  0  0  0  0  0  0
   20.0408    0.7695   52.6615 C   0  0  1  0  0  0  0  0  0  0  0  0
   20.7340   -0.0157   53.8289 C   0  0  2  0  0  0  0  0  0  0  0  0
   18.7150    3.0274   52.4602 C   0  0  0  0  0  0  0  0  0  0  0  0
   23.0201   -4.8101   50.5262 N   0  0  0  0  0  0  0  0  0  0  0  0
   19.8813    2.2465   53.0113 N   0  0  0  0  0  0  0  0  0  0  0  0
   20.8291   -3.2482   49.3001 O   0  0  0  0  0  0  0  0  0  0  0  0
   21.8486   -1.1990   49.8961 O   0  0  0  0  0  0  0  0  0  0  0  0
   20.9211   -1.4659   53.5291 O   0  0  0  0  0  0  0  0  0  0  0  0
   22.2134    1.1155   51.4646 O   0  0  0  0  0  0  0  0  0  0  0  0
   19.9587    0.0953   54.9662 O   0  0  0  0  0  0  0  0  0  0  0  0
   20.7045    0.5016   56.1262 C   0  0  2  0  0  0  0  0  0  0  0  0
   19.7627    0.6483   57.3456 C   0  0  1  0  0  0  0  0  0  0  0  0
   18.7479    1.8173   57.1567 C   0  0  2  0  0  0  0  0  0  0  0  0
   19.5289    3.1460   56.9336 C   0  0  1  0  0  0  0  0  0  0  0  0
   20.4072    2.9508   55.6283 C   0  0  1  0  0  0  0  0  0  0  0  0
   21.2396    4.1894   55.3092 C   0  0  0  0  0  0  0  0  0  0  0  0
   18.5608    4.2653   56.7529 N   0  0  0  0  0  0  0  0  0  0  0  0
   21.3604    1.8070   55.8540 O   0  0  0  0  0  0  0  0  0  0  0  0
   19.0994   -0.6174   57.5275 O   0  0  0  0  0  0  0  0  0  0  0  0
   17.9609    1.9173   58.3251 O   0  0  0  0  0  0  0  0  0  0  0  0
   20.4760    5.0796   54.5387 O   0  0  0  0  0  0  0  0  0  0  0  0
   20.2326   -2.7327   48.1279 C   0  0  1  0  0  0  0  0  0  0  0  0
   21.0848   -3.1973   46.9034 C   0  0  1  0  0  0  0  0  0  0  0  0
   20.4563   -2.6096   45.6063 C   0  0  2  0  0  0  0  0  0  0  0  0
   18.9806   -3.0872   45.4397 C   0  0  1  0  0  0  0  0  0  0  0  0
   18.1153   -2.6324   46.6763 C   0  0  0  0  0  0  0  0  0  0  0  0
   18.7549   -3.2380   47.9941 C   0  0  2  0  0  0  0  0  0  0  0  0
   18.4006   -2.5080   44.1964 N   0  0  0  0  0  0  0  0  0  0  0  0
   17.9345   -2.8095   49.1493 N   0  0  0  0  0  0  0  0  0  0  0  0
   22.4386   -2.7228   47.0271 O   0  0  0  0  0  0  0  0  0  0  0  0
   21.2432   -3.0513   44.5123 O   0  0  0  0  0  0  0  0  0  0  0  0
  1  2  1  0  0  0  0
  1 12  1  1  0  0  0
  1 13  1  0  0  0  0
  2  3  1  0  0  0  0
  2 10  1  6  0  0  0
  4  3  1  6  0  0  0
  4  5  1  0  0  0  0
  4 14  1  0  0  0  0
  5  6  1  0  0  0  0
  5 13  1  6  0  0  0
  6  7  1  0  0  0  0
  6 15  1  1  0  0  0
  7  8  1  0  0  0  0
  7 11  1  1  0  0  0
  8 14  1  0  0  0  0
  8 16  1  1  0  0  0
  9 11  1  0  0  0  0
 17 16  1  6  0  0  0
 17 18  1  0  0  0  0
 17 24  1  0  0  0  0
 18 19  1  0  0  0  0
 18 25  1  6  0  0  0
 19 20  1  0  0  0  0
 19 26  1  1  0  0  0
 20 21  1  0  0  0  0
 20 23  1  6  0  0  0
 21 22  1  1  0  0  0
 21 24  1  0  0  0  0
 22 27  1  0  0  0  0
 28 12  1  1  0  0  0
 28 29  1  0  0  0  0
 28 33  1  0  0  0  0
 29 30  1  0  0  0  0
 29 36  1  1  0  0  0
 30 31  1  0  0  0  0
 30 37  1  6  0  0  0
 31 32  1  0  0  0  0
 31 34  1  6  0  0  0
 32 33  1  0  0  0  0
 33 35  1  1  0  0  0
M  END
>  <CHROM.1>
-173.52211974,89.50744456,-130.13146681,178.15538048,-86.57387862,69.36304561
20.39087794,-0.45020432,51.81780967,-1.42763797,-1.09430361,1.18185338

>  <Name>
2oe8_lig

>  <RI>
0

>  <Rbt.Current_Directory>
/home/itssahil/PROJECTS/Mol_Feturizer/New_Systems/rnas/2oe8

>  <Rbt.Executable>
rbdock ($Id: //depot/dev/client3/rdock/2013.1/src/exe/rbdock.cxx#4 $)

>  <Rbt.Library>
libRbt.so (2013.1, Build901 2013/11/27)

>  <Rbt.Parameter_File>
/export/apps/rDock/src/rDock_2013.1_src/data/scripts/dock_solv.prm

>  <Rbt.Receptor>
prm/pocket_docking_4.prm

>  <SCORE>
-13.6916

>  <SCORE.INTER>
-11.5329

>  <SCORE.INTER.CONST>
1

>  <SCORE.INTER.POLAR>
-1.79952

>  <SCORE.INTER.ROT>
6

>  <SCORE.INTER.SOLV>
16.789

>  <SCORE.INTER.VDW>
-14.8865

>  <SCORE.INTER.norm>
-0.3117

>  <SCORE.INTRA>
-2.1717

>  <SCORE.INTRA.DIHEDRAL>
-6.29802

>  <SCORE.INTRA.DIHEDRAL.0>
16.4056

>  <SCORE.INTRA.POLAR>
0

>  <SCORE.INTRA.POLAR.0>
0

>  <SCORE.INTRA.REPUL>
0

>  <SCORE.INTRA.REPUL.0>
0

>  <SCORE.INTRA.SOLV>
0.123774

>  <SCORE.INTRA.SOLV.lig_0>
-90.9627

>  <SCORE.INTRA.VDW>
0.915426

>  <SCORE.INTRA.VDW.0>
-3.28744

>  <SCORE.INTRA.norm>
-0.0586945

>  <SCORE.RESTR>
0.0130408

>  <SCORE.RESTR.CAVITY>
0.0130408

>  <SCORE.RESTR.norm>
0.000352453

>  <SCORE.SYSTEM>
0

>  <SCORE.SYSTEM.CONST>
0

>  <SCORE.SYSTEM.DIHEDRAL>
0

>  <SCORE.SYSTEM.SOLV>
0

>  <SCORE.SYSTEM.norm>
0

>  <SCORE.heavy>
37

>  <SCORE.norm>
-0.370042

>  <RMSD>
9.895

$$$$
2oe8_lig
 OpenBabel11021811463D
libRbt.so/2013.1/901 2013/11/27
 37 40  0  0  0  0  0  0  0  0999 V2000
   22.0242   -2.2204   48.4987 C   0  0  1  0  0  0  0  0  0  0  0  0
   23.1219   -2.5763   49.5719 C   0  0  1  0  0  0  0  0  0  0  0  0
   22.4692   -2.6388   50.9686 C   0  0  0  0  0  0  0  0  0  0  0  0
   21.8611   -1.2247   51.2260 C   0  0  1  0  0  0  0  0  0  0  0  0
   20.7490   -0.8374   50.1218 C   0  0  1  0  0  0  0  0  0  0  0  0
   20.1510    0.5801   50.3603 C   0  0  1  0  0  0  0  0  0  0  0  0
   19.5269    0.5896   51.8154 C   0  0  1  0  0  0  0  0  0  0  0  0
   20.6320    0.1635   52.8436 C   0  0  2  0  0  0  0  0  0  0  0  0
   19.8806    3.1266   52.3939 C   0  0  0  0  0  0  0  0  0  0  0  0
   23.7589   -3.8937   49.2546 N   0  0  0  0  0  0  0  0  0  0  0  0
   18.9530    1.9607   52.1620 N   0  0  0  0  0  0  0  0  0  0  0  0
   20.9977   -3.2189   48.4399 O   0  0  0  0  0  0  0  0  0  0  0  0
   21.3723   -0.9104   48.7929 O   0  0  0  0  0  0  0  0  0  0  0  0
   21.2314   -1.1693   52.5404 O   0  0  0  0  0  0  0  0  0  0  0  0
   21.2208    1.5165   50.2205 O   0  0  0  0  0  0  0  0  0  0  0  0
   20.0737    0.1108   54.1056 O   0  0  0  0  0  0  0  0  0  0  0  0
   21.0508    0.0373   55.1577 C   0  0  2  0  0  0  0  0  0  0  0  0
   20.3506   -0.0508   56.5352 C   0  0  1  0  0  0  0  0  0  0  0  0
   19.5715    1.2570   56.8739 C   0  0  2  0  0  0  0  0  0  0  0  0
   20.5582    2.4617   56.8624 C   0  0  1  0  0  0  0  0  0  0  0  0
   21.1744    2.5390   55.4038 C   0  0  1  0  0  0  0  0  0  0  0  0
   22.1787    3.6800   55.2674 C   0  0  0  0  0  0  0  0  0  0  0  0
   19.8158    3.7133   57.1862 N   0  0  0  0  0  0  0  0  0  0  0  0
   21.9043    1.2532   55.1189 O   0  0  0  0  0  0  0  0  0  0  0  0
   19.4842   -1.2010   56.5010 O   0  0  0  0  0  0  0  0  0  0  0  0
   19.0044    1.1175   58.1597 O   0  0  0  0  0  0  0  0  0  0  0  0
   21.5154    4.9071   55.4206 O   0  0  0  0  0  0  0  0  0  0  0  0
   19.9789   -2.9293   47.5051 C   0  0  1  0  0  0  0  0  0  0  0  0
   20.5153   -3.2733   46.0783 C   0  0  1  0  0  0  0  0  0  0  0  0
   19.4131   -2.9290   45.0345 C   0  0  2  0  0  0  0  0  0  0  0  0
   18.1078   -3.7339   45.3208 C   0  0  1  0  0  0  0  0  0  0  0  0
   17.5652   -3.4016   46.7630 C   0  0  0  0  0  0  0  0  0  0  0  0
   18.6879   -3.7593   47.8230 C   0  0  2  0  0  0  0  0  0  0  0  0
   17.0684   -3.3835   44.3135 N   0  0  0  0  0  0  0  0  0  0  0  0
   18.1689   -3.4480   49.1740 N   0  0  0  0  0  0  0  0  0  0  0  0
   21.6957   -2.5015   45.7881 O   0  0  0  0  0  0  0  0  0  0  0  0
   19.9221   -3.2565   43.7521 O   0  0  0  0  0  0  0  0  0  0  0  0
  1  2  1  0  0  0  0
  1 12  1  1  0  0  0
  1 13  1  0  0  0  0
  2  3  1  0  0  0  0
  2 10  1  6  0  0  0
  4  3  1  6  0  0  0
  4  5  1  0  0  0  0
  4 14  1  0  0  0  0
  5  6  1  0  0  0  0
  5 13  1  6  0  0  0
  6  7  1  0  0  0  0
  6 15  1  1  0  0  0
  7  8  1  0  0  0  0
  7 11  1  1  0  0  0
  8 14  1  0  0  0  0
  8 16  1  1  0  0  0
  9 11  1  0  0  0  0
 17 16  1  6  0  0  0
 17 18  1  0  0  0  0
 17 24  1  0  0  0  0
 18 19  1  0  0  0  0
 18 25  1  6  0  0  0
 19 20  1  0  0  0  0
 19 26  1  1  0  0  0
 20 21  1  0  0  0  0
 20 23  1  6  0  0  0
 21 22  1  1  0  0  0
 21 24  1  0  0  0  0
 22 27  1  0  0  0  0
 28 12  1  1  0  0  0
 28 29  1  0  0  0  0
 28 33  1  0  0  0  0
 29 30  1  0  0  0  0
 29 36  1  6  0  0  0
 30 31  1  0  0  0  0
 30 37  1  6  0  0  0
 31 32  1  0  0  0  0
 31 34  1  6  0  0  0
 32 33  1  0  0  0  0
 33 35  1  1  0  0  0
M  END
>  <CHROM.1>
178.99739906,-69.95410131,-166.33060657,-178.72330234,-65.23948758,78.07737025
20.43853960,-0.60551466,51.20218905,-1.63303365,-0.14941657,1.07081628

>  <Name>
2oe8_lig

>  <RI>
0

>  <Rbt.Current_Directory>
/home/itssahil/PROJECTS/Mol_Feturizer/New_Systems/rnas/2oe8

>  <Rbt.Executable>
rbdock ($Id: //depot/dev/client3/rdock/2013.1/src/exe/rbdock.cxx#4 $)

>  <Rbt.Library>
libRbt.so (2013.1, Build901 2013/11/27)

>  <Rbt.Parameter_File>
/export/apps/rDock/src/rDock_2013.1_src/data/scripts/dock_solv.prm

>  <Rbt.Receptor>
prm/pocket_docking_6.prm

>  <SCORE>
-19.3357

>  <SCORE.INTER>
-13.3193

>  <SCORE.INTER.CONST>
1

>  <SCORE.INTER.POLAR>
-1.2684

>  <SCORE.INTER.ROT>
6

>  <SCORE.INTER.SOLV>
13.6876

>  <SCORE.INTER.VDW>
-16.8141

>  <SCORE.INTER.norm>
-0.35998

>  <SCORE.INTRA>
-6.01645

>  <SCORE.INTRA.DIHEDRAL>
-13.7717

>  <SCORE.INTRA.DIHEDRAL.0>
16.4056

>  <SCORE.INTRA.POLAR>
0

>  <SCORE.INTRA.POLAR.0>
0

>  <SCORE.INTRA.REPUL>
0

>  <SCORE.INTRA.REPUL.0>
0

>  <SCORE.INTRA.SOLV>
-1.40055

>  <SCORE.INTRA.SOLV.lig_0>
-90.9627

>  <SCORE.INTRA.VDW>
1.5697

>  <SCORE.INTRA.VDW.0>
-3.28744

>  <SCORE.INTRA.norm>
-0.162607

>  <SCORE.RESTR>
0

>  <SCORE.RESTR.CAVITY>
0

>  <SCORE.RESTR.norm>
0

>  <SCORE.SYSTEM>
0

>  <SCORE.SYSTEM.CONST>
0

>  <SCORE.SYSTEM.DIHEDRAL>
0

>  <SCORE.SYSTEM.SOLV>
0

>  <SCORE.SYSTEM.norm>
0

>  <SCORE.heavy>
37

>  <SCORE.norm>
-0.522587

>  <RMSD>
9.898

$$$$
2oe8_lig
 OpenBabel11021811463D
libRbt.so/2013.1/901 2013/11/27
 37 40  0  0  0  0  0  0  0  0999 V2000
   19.8605   -5.8956   49.6424 C   0  0  1  0  0  0  0  0  0  0  0  0
   18.5203   -5.7703   50.4619 C   0  0  1  0  0  0  0  0  0  0  0  0
   18.2142   -4.2793   50.7151 C   0  0  0  0  0  0  0  0  0  0  0  0
   19.4271   -3.7193   51.5218 C   0  0  1  0  0  0  0  0  0  0  0  0
   20.8113   -3.8598   50.7030 C   0  0  1  0  0  0  0  0  0  0  0  0
   22.0295   -3.3208   51.5088 C   0  0  1  0  0  0  0  0  0  0  0  0
   21.7317   -1.8048   51.8554 C   0  0  1  0  0  0  0  0  0  0  0  0
   20.3584   -1.7173   52.6079 C   0  0  2  0  0  0  0  0  0  0  0  0
   24.0835   -0.6465   52.0103 C   0  0  0  0  0  0  0  0  0  0  0  0
   17.3857   -6.3967   49.7118 N   0  0  0  0  0  0  0  0  0  0  0  0
   22.8556   -1.1975   52.6905 N   0  0  0  0  0  0  0  0  0  0  0  0
   19.7587   -5.2626   48.3606 O   0  0  0  0  0  0  0  0  0  0  0  0
   21.0085   -5.2771   50.3686 O   0  0  0  0  0  0  0  0  0  0  0  0
   19.2276   -2.3085   51.8335 O   0  0  0  0  0  0  0  0  0  0  0  0
   22.1526   -4.1327   52.6777 O   0  0  0  0  0  0  0  0  0  0  0  0
   20.0669   -0.3905   52.8561 O   0  0  0  0  0  0  0  0  0  0  0  0
   18.9259   -0.2087   53.7117 C   0  0  2  0  0  0  0  0  0  0  0  0
   18.5283    1.2862   53.7657 C   0  0  1  0  0  0  0  0  0  0  0  0
   19.6247    2.1527   54.4579 C   0  0  2  0  0  0  0  0  0  0  0  0
   19.8657    1.6210   55.9016 C   0  0  1  0  0  0  0  0  0  0  0  0
   20.3454    0.1162   55.7645 C   0  0  1  0  0  0  0  0  0  0  0  0
   20.6016   -0.5280   57.1240 C   0  0  0  0  0  0  0  0  0  0  0  0
   20.9134    2.4480   56.5656 N   0  0  0  0  0  0  0  0  0  0  0  0
   19.2620   -0.6759   55.0818 O   0  0  0  0  0  0  0  0  0  0  0  0
   18.2802    1.7111   52.4119 O   0  0  0  0  0  0  0  0  0  0  0  0
   19.1688    3.4883   54.5117 O   0  0  0  0  0  0  0  0  0  0  0  0
   21.2948   -1.7350   56.9459 O   0  0  0  0  0  0  0  0  0  0  0  0
   18.9876   -5.9921   47.4284 C   0  0  1  0  0  0  0  0  0  0  0  0
   18.4898   -5.0013   46.3274 C   0  0  1  0  0  0  0  0  0  0  0  0
   17.6118   -5.7864   45.3098 C   0  0  2  0  0  0  0  0  0  0  0  0
   18.4248   -6.9455   44.6547 C   0  0  1  0  0  0  0  0  0  0  0  0
   18.9408   -7.9445   45.7594 C   0  0  0  0  0  0  0  0  0  0  0  0
   19.8393   -7.1425   46.7898 C   0  0  2  0  0  0  0  0  0  0  0  0
   17.5626   -7.6838   43.6907 N   0  0  0  0  0  0  0  0  0  0  0  0
   20.3225   -8.0883   47.8209 N   0  0  0  0  0  0  0  0  0  0  0  0
   17.7007   -3.9520   46.9185 O   0  0  0  0  0  0  0  0  0  0  0  0
   17.1799   -4.8673   44.3200 O   0  0  0  0  0  0  0  0  0  0  0  0
  1  2  1  0  0  0  0
  1 12  1  6  0  0  0
  1 13  1  0  0  0  0
  2  3  1  0  0  0  0
  2 10  1  6  0  0  0
  4  3  1  6  0  0  0
  4  5  1  0  0  0  0
  4 14  1  0  0  0  0
  5  6  1  0  0  0  0
  5 13  1  1  0  0  0
  6  7  1  0  0  0  0
  6 15  1  1  0  0  0
  7  8  1  0  0  0  0
  7 11  1  1  0  0  0
  8 14  1  0  0  0  0
  8 16  1  6  0  0  0
  9 11  1  0  0  0  0
 17 16  1  6  0  0  0
 17 18  1  0  0  0  0
 17 24  1  0  0  0  0
 18 19  1  0  0  0  0
 18 25  1  6  0  0  0
 19 20  1  0  0  0  0
 19 26  1  1  0  0  0
 20 21  1  0  0  0  0
 20 23  1  6  0  0  0
 21 22  1  1  0  0  0
 21 24  1  0  0  0  0
 22 27  1  0  0  0  0
 28 12  1  1  0  0  0
 28 29  1  0  0  0  0
 28 33  1  0  0  0  0
 29 30  1  0  0  0  0
 29 36  1  1  0  0  0
 30 31  1  0  0  0  0
 30 37  1  6  0  0  0
 31 32  1  0  0  0  0
 31 34  1  6  0  0  0
 32 33  1  0  0  0  0
 33 35  1  1  0  0  0
M  END
>  <CHROM.1>
-74.45307194,84.13922691,-171.47856115,-171.19612936,-167.08200981,158.14313085
19.71767912,-2.92267498,50.97164059,-1.79038630,-0.79384597,0.72333513

>  <Name>
2oe8_lig

>  <RI>
0

>  <Rbt.Current_Directory>
/home/itssahil/PROJECTS/Mol_Feturizer/New_Systems/rnas/2oe8

>  <Rbt.Executable>
rbdock ($Id: //depot/dev/client3/rdock/2013.1/src/exe/rbdock.cxx#4 $)

>  <Rbt.Library>
libRbt.so (2013.1, Build901 2013/11/27)

>  <Rbt.Parameter_File>
/export/apps/rDock/src/rDock_2013.1_src/data/scripts/dock_solv.prm

>  <Rbt.Receptor>
prm/pocket_docking_7.prm

>  <SCORE>
-18.4952

>  <SCORE.INTER>
-13.6321

>  <SCORE.INTER.CONST>
1

>  <SCORE.INTER.POLAR>
-1.09659

>  <SCORE.INTER.ROT>
6

>  <SCORE.INTER.SOLV>
12.0126

>  <SCORE.INTER.VDW>
-17.037

>  <SCORE.INTER.norm>
-0.368435

>  <SCORE.INTRA>
-4.86311

>  <SCORE.INTRA.DIHEDRAL>
-11.5277

>  <SCORE.INTRA.DIHEDRAL.0>
16.4056

>  <SCORE.INTRA.POLAR>
0

>  <SCORE.INTRA.POLAR.0>
0

>  <SCORE.INTRA.REPUL>
0

>  <SCORE.INTRA.REPUL.0>
0

>  <SCORE.INTRA.SOLV>
0.629732

>  <SCORE.INTRA.SOLV.lig_0>
-90.9627

>  <SCORE.INTRA.VDW>
0.585862

>  <SCORE.INTRA.VDW.0>
-3.28744

>  <SCORE.INTRA.norm>
-0.131435

>  <SCORE.RESTR>
0

>  <SCORE.RESTR.CAVITY>
0

>  <SCORE.RESTR.norm>
0

>  <SCORE.SYSTEM>
0

>  <SCORE.SYSTEM.CONST>
0

>  <SCORE.SYSTEM.DIHEDRAL>
0

>  <SCORE.SYSTEM.SOLV>
0

>  <SCORE.SYSTEM.norm>
0

>  <SCORE.heavy>
37

>  <SCORE.norm>
-0.49987

>  <RMSD>
9.898

$$$$
2oe8_lig
 OpenBabel11021811463D
libRbt.so/2013.1/901 2013/11/27
 37 40  0  0  0  0  0  0  0  0999 V2000
   20.7612   -3.3350   47.3541 C   0  0  1  0  0  0  0  0  0  0  0  0
   19.5694   -3.6726   48.3282 C   0  0  1  0  0  0  0  0  0  0  0  0
   18.9349   -2.3598   48.8330 C   0  0  0  0  0  0  0  0  0  0  0  0
   20.0710   -1.5865   49.5728 C   0  0  1  0  0  0  0  0  0  0  0  0
   21.3087   -1.2515   48.5920 C   0  0  1  0  0  0  0  0  0  0  0  0
   22.4549   -0.4967   49.3272 C   0  0  1  0  0  0  0  0  0  0  0  0
   21.8359    0.8316   49.9265 C   0  0  1  0  0  0  0  0  0  0  0  0
   20.6121    0.4564   50.8329 C   0  0  2  0  0  0  0  0  0  0  0  0
   23.4517    1.0538   51.9847 C   0  0  0  0  0  0  0  0  0  0  0  0
   18.5336   -4.4945   47.6254 N   0  0  0  0  0  0  0  0  0  0  0  0
   22.8789    1.6227   50.7111 N   0  0  0  0  0  0  0  0  0  0  0  0
   20.3137   -2.6122   46.2002 O   0  0  0  0  0  0  0  0  0  0  0  0
   21.8083   -2.5144   48.0306 O   0  0  0  0  0  0  0  0  0  0  0  0
   19.5674   -0.3280   50.1111 O   0  0  0  0  0  0  0  0  0  0  0  0
   22.9517   -1.3719   50.3411 O   0  0  0  0  0  0  0  0  0  0  0  0
   20.0327    1.6169   51.3068 O   0  0  0  0  0  0  0  0  0  0  0  0
   18.9572    1.3800   52.2310 C   0  0  2  0  0  0  0  0  0  0  0  0
   18.6368    2.6702   53.0236 C   0  0  1  0  0  0  0  0  0  0  0  0
   19.8147    3.0838   53.9582 C   0  0  2  0  0  0  0  0  0  0  0  0
   20.1189    1.9209   54.9485 C   0  0  1  0  0  0  0  0  0  0  0  0
   20.5156    0.6609   54.0719 C   0  0  1  0  0  0  0  0  0  0  0  0
   20.8240   -0.5603   54.9335 C   0  0  0  0  0  0  0  0  0  0  0  0
   21.2447    2.3140   55.8433 N   0  0  0  0  0  0  0  0  0  0  0  0
   19.3547    0.3079   53.1802 O   0  0  0  0  0  0  0  0  0  0  0  0
   18.3260    3.6963   52.0616 O   0  0  0  0  0  0  0  0  0  0  0  0
   19.4285    4.2350   54.6792 O   0  0  0  0  0  0  0  0  0  0  0  0
   21.2395   -1.6190   54.1116 O   0  0  0  0  0  0  0  0  0  0  0  0
   19.4971   -3.3749   45.3358 C   0  0  1  0  0  0  0  0  0  0  0  0
   18.1921   -2.5621   45.0562 C   0  0  1  0  0  0  0  0  0  0  0  0
   17.2683   -3.4050   44.1294 C   0  0  2  0  0  0  0  0  0  0  0  0
   17.9865   -3.7377   42.7851 C   0  0  1  0  0  0  0  0  0  0  0  0
   19.3106   -4.5483   43.0580 C   0  0  0  0  0  0  0  0  0  0  0  0
   20.2508   -3.6841   43.9968 C   0  0  2  0  0  0  0  0  0  0  0  0
   17.0856   -4.5481   41.9194 N   0  0  0  0  0  0  0  0  0  0  0  0
   21.4927   -4.4506   44.2447 N   0  0  0  0  0  0  0  0  0  0  0  0
   17.4993   -2.2888   46.2885 O   0  0  0  0  0  0  0  0  0  0  0  0
   16.0972   -2.6432   43.8865 O   0  0  0  0  0  0  0  0  0  0  0  0
  1  2  1  0  0  0  0
  1 12  1  6  0  0  0
  1 13  1  0  0  0  0
  2  3  1  0  0  0  0
  2 10  1  6  0  0  0
  4  3  1  6  0  0  0
  4  5  1  0  0  0  0
  4 14  1  0  0  0  0
  5  6  1  0  0  0  0
  5 13  1  1  0  0  0
  6  7  1  0  0  0  0
  6 15  1  1  0  0  0
  7  8  1  0  0  0  0
  7 11  1  1  0  0  0
  8 14  1  0  0  0  0
  8 16  1  6  0  0  0
  9 11  1  0  0  0  0
 17 16  1  6  0  0  0
 17 18  1  0  0  0  0
 17 24  1  0  0  0  0
 18 19  1  0  0  0  0
 18 25  1  6  0  0  0
 19 20  1  0  0  0  0
 19 26  1  1  0  0  0
 20 21  1  0  0  0  0
 20 23  1  1  0  0  0
 21 22  1  1  0  0  0
 21 24  1  0  0  0  0
 22 27  1  0  0  0  0
 28 12  1  1  0  0  0
 28 29  1  0  0  0  0
 28 33  1  0  0  0  0
 29 30  1  0  0  0  0
 29 36  1  1  0  0  0
 30 31  1  0  0  0  0
 30 37  1  6  0  0  0
 31 32  1  0  0  0  0
 31 34  1  6  0  0  0
 32 33  1  0  0  0  0
 33 35  1  1  0  0  0
M  END
>  <CHROM.1>
-67.72029709,-66.22305474,-175.67687567,163.49538642,-176.73774662,128.52691155
19.95057590,-0.93188397,49.30979313,-1.74535219,-0.40336957,0.96989960

>  <Name>
2oe8_lig

>  <RI>
0

>  <Rbt.Current_Directory>
/home/itssahil/PROJECTS/Mol_Feturizer/New_Systems/rnas/2oe8

>  <Rbt.Executable>
rbdock ($Id: //depot/dev/client3/rdock/2013.1/src/exe/rbdock.cxx#4 $)

>  <Rbt.Library>
libRbt.so (2013.1, Build901 2013/11/27)

>  <Rbt.Parameter_File>
/export/apps/rDock/src/rDock_2013.1_src/data/scripts/dock_solv.prm

>  <Rbt.Receptor>
prm/pocket_docking_6.prm

>  <SCORE>
-28.5611

>  <SCORE.INTER>
-26.8366

>  <SCORE.INTER.CONST>
1

>  <SCORE.INTER.POLAR>
-1.99482

>  <SCORE.INTER.ROT>
6

>  <SCORE.INTER.SOLV>
15.3171

>  <SCORE.INTER.VDW>
-23.9473

>  <SCORE.INTER.norm>
-0.725313

>  <SCORE.INTRA>
-1.72452

>  <SCORE.INTRA.DIHEDRAL>
-7.78304

>  <SCORE.INTRA.DIHEDRAL.0>
16.4056

>  <SCORE.INTRA.POLAR>
0

>  <SCORE.INTRA.POLAR.0>
0

>  <SCORE.INTRA.REPUL>
0.00635035

>  <SCORE.INTRA.REPUL.0>
0

>  <SCORE.INTRA.SOLV>
1.1571

>  <SCORE.INTRA.SOLV.lig_0>
-90.9627

>  <SCORE.INTRA.VDW>
1.5567

>  <SCORE.INTRA.VDW.0>
-3.28744

>  <SCORE.INTRA.norm>
-0.0466086

>  <SCORE.RESTR>
0

>  <SCORE.RESTR.CAVITY>
0

>  <SCORE.RESTR.norm>
0

>  <SCORE.SYSTEM>
0

>  <SCORE.SYSTEM.CONST>
0

>  <SCORE.SYSTEM.DIHEDRAL>
0

>  <SCORE.SYSTEM.SOLV>
0

>  <SCORE.SYSTEM.norm>
0

>  <SCORE.heavy>
37

>  <SCORE.norm>
-0.771921

>  <RMSD>
9.899

$$$$
2oe8_lig
 OpenBabel11021811463D
libRbt.so/2013.1/901 2013/11/27
 37 40  0  0  0  0  0  0  0  0999 V2000
   21.1539   -3.9616   48.6071 C   0  0  1  0  0  0  0  0  0  0  0  0
   22.5137   -4.1196   49.3877 C   0  0  1  0  0  0  0  0  0  0  0  0
   22.2419   -4.0547   50.9051 C   0  0  0  0  0  0  0  0  0  0  0  0
   21.5944   -2.6595   51.1696 C   0  0  1  0  0  0  0  0  0  0  0  0
   20.2101   -2.4749   50.3598 C   0  0  1  0  0  0  0  0  0  0  0  0
   19.5673   -1.0780   50.6032 C   0  0  1  0  0  0  0  0  0  0  0  0
   19.3313   -0.9330   52.1622 C   0  0  1  0  0  0  0  0  0  0  0  0
   20.6932   -1.1654   52.9046 C   0  0  2  0  0  0  0  0  0  0  0  0
   19.3921    1.6860   51.9778 C   0  0  0  0  0  0  0  0  0  0  0  0
   23.1653   -5.4244   49.0485 N   0  0  0  0  0  0  0  0  0  0  0  0
   18.7430    0.4323   52.5077 N   0  0  0  0  0  0  0  0  0  0  0  0
   20.2391   -5.0205   48.9171 O   0  0  0  0  0  0  0  0  0  0  0  0
   20.4827   -2.6679   48.9288 O   0  0  0  0  0  0  0  0  0  0  0  0
   21.3135   -2.4861   52.5903 O   0  0  0  0  0  0  0  0  0  0  0  0
   20.4794   -0.1018   50.0973 O   0  0  0  0  0  0  0  0  0  0  0  0
   20.4776   -1.1010   54.2672 O   0  0  0  0  0  0  0  0  0  0  0  0
   21.1436    0.0064   54.8971 C   0  0  2  0  0  0  0  0  0  0  0  0
   21.2938   -0.2511   56.4159 C   0  0  1  0  0  0  0  0  0  0  0  0
   19.9117   -0.2830   57.1377 C   0  0  2  0  0  0  0  0  0  0  0  0
   19.1779    1.0706   56.9046 C   0  0  1  0  0  0  0  0  0  0  0  0
   18.9881    1.2284   55.3386 C   0  0  1  0  0  0  0  0  0  0  0  0
   18.2888    2.5356   54.9766 C   0  0  0  0  0  0  0  0  0  0  0  0
   17.8562    1.0427   57.5939 N   0  0  0  0  0  0  0  0  0  0  0  0
   20.3452    1.2420   54.6864 O   0  0  0  0  0  0  0  0  0  0  0  0
   22.0112   -1.4907   56.5699 O   0  0  0  0  0  0  0  0  0  0  0  0
   20.1348   -0.4726   58.5192 O   0  0  0  0  0  0  0  0  0  0  0  0
   19.0829    3.6186   55.3836 O   0  0  0  0  0  0  0  0  0  0  0  0
   19.1065   -5.0555   48.0734 C   0  0  1  0  0  0  0  0  0  0  0  0
   19.4086   -6.0346   46.8937 C   0  0  1  0  0  0  0  0  0  0  0  0
   18.1799   -6.0588   45.9384 C   0  0  2  0  0  0  0  0  0  0  0  0
   16.8969   -6.5192   46.6970 C   0  0  1  0  0  0  0  0  0  0  0  0
   16.5905   -5.5434   47.8964 C   0  0  0  0  0  0  0  0  0  0  0  0
   17.8412   -5.5264   48.8697 C   0  0  2  0  0  0  0  0  0  0  0  0
   15.7360   -6.5288   45.7643 N   0  0  0  0  0  0  0  0  0  0  0  0
   17.5437   -4.6111   49.9944 N   0  0  0  0  0  0  0  0  0  0  0  0
   20.5661   -5.5924   46.1604 O   0  0  0  0  0  0  0  0  0  0  0  0
   18.4771   -6.9581   44.8830 O   0  0  0  0  0  0  0  0  0  0  0  0
  1  2  1  0  0  0  0
  1 12  1  1  0  0  0
  1 13  1  0  0  0  0
  2  3  1  0  0  0  0
  2 10  1  1  0  0  0
  4  3  1  1  0  0  0
  4  5  1  0  0  0  0
  4 14  1  0  0  0  0
  5  6  1  0  0  0  0
  5 13  1  6  0  0  0
  6  7  1  0  0  0  0
  6 15  1  1  0  0  0
  7  8  1  0  0  0  0
  7 11  1  6  0  0  0
  8 14  1  0  0  0  0
  8 16  1  1  0  0  0
  9 11  1  0  0  0  0
 17 16  1  6  0  0  0
 17 18  1  0  0  0  0
 17 24  1  0  0  0  0
 18 19  1  0  0  0  0
 18 25  1  6  0  0  0
 19 20  1  0  0  0  0
 19 26  1  1  0  0  0
 20 21  1  0  0  0  0
 20 23  1  1  0  0  0
 21 22  1  1  0  0  0
 21 24  1  0  0  0  0
 22 27  1  0  0  0  0
 28 12  1  1  0  0  0
 28 29  1  0  0  0  0
 28 33  1  0  0  0  0
 29 30  1  0  0  0  0
 29 36  1  6  0  0  0
 30 31  1  0  0  0  0
 30 37  1  6  0  0  0
 31 32  1  0  0  0  0
 31 34  1  6  0  0  0
 32 33  1  0  0  0  0
 33 35  1  1  0  0  0
M  END
>  <CHROM.1>
-169.48293503,-50.46023010,-114.99221003,-159.73274722,62.61891307,93.38159546
19.75575420,-2.27273649,51.48463842,-1.66125448,-0.33364690,0.90601994

>  <Name>
2oe8_lig

>  <RI>
0

>  <Rbt.Current_Directory>
/home/itssahil/PROJECTS/Mol_Feturizer/New_Systems/rnas/2oe8

>  <Rbt.Executable>
rbdock ($Id: //depot/dev/client3/rdock/2013.1/src/exe/rbdock.cxx#4 $)

>  <Rbt.Library>
libRbt.so (2013.1, Build901 2013/11/27)

>  <Rbt.Parameter_File>
/export/apps/rDock/src/rDock_2013.1_src/data/scripts/dock_solv.prm

>  <Rbt.Receptor>
prm/pocket_docking_3.prm

>  <SCORE>
-14.1061

>  <SCORE.INTER>
-14.6774

>  <SCORE.INTER.CONST>
1

>  <SCORE.INTER.POLAR>
-1.42118

>  <SCORE.INTER.ROT>
6

>  <SCORE.INTER.SOLV>
14.8149

>  <SCORE.INTER.VDW>
-17.586

>  <SCORE.INTER.norm>
-0.396687

>  <SCORE.INTRA>
0.57127

>  <SCORE.INTRA.DIHEDRAL>
-2.63146

>  <SCORE.INTRA.DIHEDRAL.0>
16.4056

>  <SCORE.INTRA.POLAR>
0

>  <SCORE.INTRA.POLAR.0>
0

>  <SCORE.INTRA.REPUL>
0

>  <SCORE.INTRA.REPUL.0>
0

>  <SCORE.INTRA.SOLV>
0.874966

>  <SCORE.INTRA.SOLV.lig_0>
-90.9627

>  <SCORE.INTRA.VDW>
1.44952

>  <SCORE.INTRA.VDW.0>
-3.28744

>  <SCORE.INTRA.norm>
0.0154397

>  <SCORE.RESTR>
0

>  <SCORE.RESTR.CAVITY>
0

>  <SCORE.RESTR.norm>
0

>  <SCORE.SYSTEM>
0

>  <SCORE.SYSTEM.CONST>
0

>  <SCORE.SYSTEM.DIHEDRAL>
0

>  <SCORE.SYSTEM.SOLV>
0

>  <SCORE.SYSTEM.norm>
0

>  <SCORE.heavy>
37

>  <SCORE.norm>
-0.381247

>  <RMSD>
9.900

$$$$
2oe8_lig
 OpenBabel11021811463D
libRbt.so/2013.1/901 2013/11/27
 37 40  0  0  0  0  0  0  0  0999 V2000
   21.6982   -3.1503   51.0803 C   0  0  1  0  0  0  0  0  0  0  0  0
   22.6507   -2.9683   52.3225 C   0  0  1  0  0  0  0  0  0  0  0  0
   21.8103   -2.5848   53.5584 C   0  0  0  0  0  0  0  0  0  0  0  0
   21.0903   -1.2487   53.1947 C   0  0  1  0  0  0  0  0  0  0  0  0
   20.1263   -1.4145   51.9105 C   0  0  1  0  0  0  0  0  0  0  0  0
   19.4187   -0.0812   51.5292 C   0  0  1  0  0  0  0  0  0  0  0  0
   18.5940    0.3933   52.7948 C   0  0  1  0  0  0  0  0  0  0  0  0
   19.5643    0.4948   54.0230 C   0  0  2  0  0  0  0  0  0  0  0  0
   18.6915    3.0076   52.5647 C   0  0  0  0  0  0  0  0  0  0  0  0
   23.4022   -4.2338   52.5978 N   0  0  0  0  0  0  0  0  0  0  0  0
   17.8976    1.7260   52.5331 N   0  0  0  0  0  0  0  0  0  0  0  0
   20.7507   -4.2050   51.2894 O   0  0  0  0  0  0  0  0  0  0  0  0
   20.9357   -1.9017   50.7849 O   0  0  0  0  0  0  0  0  0  0  0  0
   20.2775   -0.7839   54.3129 O   0  0  0  0  0  0  0  0  0  0  0  0
   20.4410    0.8480   51.1656 O   0  0  0  0  0  0  0  0  0  0  0  0
   18.8359    0.8482   55.1417 O   0  0  0  0  0  0  0  0  0  0  0  0
   19.5624    1.6924   56.0507 C   0  0  2  0  0  0  0  0  0  0  0  0
   20.2044    0.8437   57.1747 C   0  0  1  0  0  0  0  0  0  0  0  0
   19.1275    0.1884   58.0928 C   0  0  2  0  0  0  0  0  0  0  0  0
   18.2379    1.3025   58.7191 C   0  0  1  0  0  0  0  0  0  0  0  0
   17.5527    2.0757   57.5166 C   0  0  1  0  0  0  0  0  0  0  0  0
   16.6594    3.2131   58.0036 C   0  0  0  0  0  0  0  0  0  0  0  0
   17.2076    0.6784   59.5976 N   0  0  0  0  0  0  0  0  0  0  0  0
   18.6295    2.6792   56.6542 O   0  0  0  0  0  0  0  0  0  0  0  0
   21.0433   -0.1404   56.5403 O   0  0  0  0  0  0  0  0  0  0  0  0
   19.7892   -0.5250   59.1164 O   0  0  0  0  0  0  0  0  0  0  0  0
   16.0914    3.8666   56.8993 O   0  0  0  0  0  0  0  0  0  0  0  0
   20.0842   -4.6094   50.1113 C   0  0  1  0  0  0  0  0  0  0  0  0
   20.7612   -5.9194   49.5943 C   0  0  1  0  0  0  0  0  0  0  0  0
   20.0565   -6.3593   48.2780 C   0  0  2  0  0  0  0  0  0  0  0  0
   18.5351   -6.6058   48.5194 C   0  0  1  0  0  0  0  0  0  0  0  0
   17.8456   -5.2922   49.0520 C   0  0  0  0  0  0  0  0  0  0  0  0
   18.5619   -4.8512   50.3953 C   0  0  2  0  0  0  0  0  0  0  0  0
   17.8832   -7.0197   47.2461 N   0  0  0  0  0  0  0  0  0  0  0  0
   17.9061   -3.6199   50.8903 N   0  0  0  0  0  0  0  0  0  0  0  0
   22.1571   -5.6891   49.3265 O   0  0  0  0  0  0  0  0  0  0  0  0
   20.6842   -7.5513   47.8353 O   0  0  0  0  0  0  0  0  0  0  0  0
  1  2  1  0  0  0  0
  1 12  1  1  0  0  0
  1 13  1  0  0  0  0
  2  3  1  0  0  0  0
  2 10  1  1  0  0  0
  4  3  1  1  0  0  0
  4  5  1  0  0  0  0
  4 14  1  0  0  0  0
  5  6  1  0  0  0  0
  5 13  1  6  0  0  0
  6  7  1  0  0  0  0
  6 15  1  1  0  0  0
  7  8  1  0  0  0  0
  7 11  1  6  0  0  0
  8 14  1  0  0  0  0
  8 16  1  1  0  0  0
  9 11  1  0  0  0  0
 17 16  1  6  0  0  0
 17 18  1  0  0  0  0
 17 24  1  0  0  0  0
 18 19  1  0  0  0  0
 18 25  1  6  0  0  0
 19 20  1  0  0  0  0
 19 26  1  1  0  0  0
 20 21  1  0  0  0  0
 20 23  1  1  0  0  0
 21 22  1  1  0  0  0
 21 24  1  0  0  0  0
 22 27  1  0  0  0  0
 28 12  1  1  0  0  0
 28 29  1  0  0  0  0
 28 33  1  0  0  0  0
 29 30  1  0  0  0  0
 29 36  1  6  0  0  0
 30 31  1  0  0  0  0
 30 37  1  1  0  0  0
 31 32  1  0  0  0  0
 31 34  1  6  0  0  0
 32 33  1  0  0  0  0
 33 35  1  6  0  0  0
M  END
>  <CHROM.1>
-166.41044327,-76.89276084,-145.65855926,-96.12423482,179.47500681,100.41604265
19.59689314,-1.50459215,53.16636009,-1.34817616,-0.74491063,0.97602385

>  <Name>
2oe8_lig

>  <RI>
0

>  <Rbt.Current_Directory>
/home/itssahil/PROJECTS/Mol_Feturizer/New_Systems/rnas/2oe8

>  <Rbt.Executable>
rbdock ($Id: //depot/dev/client3/rdock/2013.1/src/exe/rbdock.cxx#4 $)

>  <Rbt.Library>
libRbt.so (2013.1, Build901 2013/11/27)

>  <Rbt.Parameter_File>
/export/apps/rDock/src/rDock_2013.1_src/data/scripts/dock_solv.prm

>  <Rbt.Receptor>
prm/pocket_docking_6.prm

>  <SCORE>
-21.1563

>  <SCORE.INTER>
-21.5572

>  <SCORE.INTER.CONST>
1

>  <SCORE.INTER.POLAR>
-2.15407

>  <SCORE.INTER.ROT>
6

>  <SCORE.INTER.SOLV>
21.761

>  <SCORE.INTER.VDW>
-22.0449

>  <SCORE.INTER.norm>
-0.582626

>  <SCORE.INTRA>
0.400904

>  <SCORE.INTRA.DIHEDRAL>
-0.684855

>  <SCORE.INTRA.DIHEDRAL.0>
16.4056

>  <SCORE.INTRA.POLAR>
0

>  <SCORE.INTRA.POLAR.0>
0

>  <SCORE.INTRA.REPUL>
0

>  <SCORE.INTRA.REPUL.0>
0

>  <SCORE.INTRA.SOLV>
-0.499146

>  <SCORE.INTRA.SOLV.lig_0>
-90.9627

>  <SCORE.INTRA.VDW>
0.992905

>  <SCORE.INTRA.VDW.0>
-3.28744

>  <SCORE.INTRA.norm>
0.0108352

>  <SCORE.RESTR>
0

>  <SCORE.RESTR.CAVITY>
0

>  <SCORE.RESTR.norm>
0

>  <SCORE.SYSTEM>
0

>  <SCORE.SYSTEM.CONST>
0

>  <SCORE.SYSTEM.DIHEDRAL>
0

>  <SCORE.SYSTEM.SOLV>
0

>  <SCORE.SYSTEM.norm>
0

>  <SCORE.heavy>
37

>  <SCORE.norm>
-0.571791

>  <RMSD>
9.900

$$$$
2oe8_lig
 OpenBabel11021811463D
libRbt.so/2013.1/901 2013/11/27
 37 40  0  0  0  0  0  0  0  0999 V2000
   22.1887   -2.5284   48.4201 C   0  0  1  0  0  0  0  0  0  0  0  0
   23.1740   -3.0053   49.5537 C   0  0  1  0  0  0  0  0  0  0  0  0
   22.4831   -2.8594   50.9255 C   0  0  0  0  0  0  0  0  0  0  0  0
   22.1348   -1.3455   51.0761 C   0  0  1  0  0  0  0  0  0  0  0  0
   21.1418   -0.8373   49.9091 C   0  0  1  0  0  0  0  0  0  0  0  0
   20.8046    0.6769   50.0411 C   0  0  1  0  0  0  0  0  0  0  0  0
   20.1532    0.8921   51.4680 C   0  0  1  0  0  0  0  0  0  0  0  0
   21.1343    0.3421   52.5611 C   0  0  2  0  0  0  0  0  0  0  0  0
   18.7051    2.7404   52.6442 C   0  0  0  0  0  0  0  0  0  0  0  0
   23.5699   -4.4333   49.3388 N   0  0  0  0  0  0  0  0  0  0  0  0
   19.8283    2.3634   51.7114 N   0  0  0  0  0  0  0  0  0  0  0  0
   21.0001   -3.3283   48.3805 O   0  0  0  0  0  0  0  0  0  0  0  0
   21.7774   -1.1065   48.6118 O   0  0  0  0  0  0  0  0  0  0  0  0
   21.4900   -1.0934   52.3598 O   0  0  0  0  0  0  0  0  0  0  0  0
   22.0299    1.3952   49.8878 O   0  0  0  0  0  0  0  0  0  0  0  0
   20.5417    0.4720   53.8017 O   0  0  0  0  0  0  0  0  0  0  0  0
   21.4300    0.1711   54.8913 C   0  0  2  0  0  0  0  0  0  0  0  0
   20.6258   -0.0397   56.1968 C   0  0  1  0  0  0  0  0  0  0  0  0
   19.9299    1.2743   56.6672 C   0  0  2  0  0  0  0  0  0  0  0  0
   21.0070    2.3774   56.8862 C   0  0  1  0  0  0  0  0  0  0  0  0
   21.7328    2.5959   55.4938 C   0  0  1  0  0  0  0  0  0  0  0  0
   22.8314    3.6515   55.5815 C   0  0  0  0  0  0  0  0  0  0  0  0
   20.3442    3.6347   57.3362 N   0  0  0  0  0  0  0  0  0  0  0  0
   22.3776    1.3007   55.0766 O   0  0  0  0  0  0  0  0  0  0  0  0
   19.6760   -1.0936   55.9478 O   0  0  0  0  0  0  0  0  0  0  0  0
   19.2607    1.0134   57.8832 O   0  0  0  0  0  0  0  0  0  0  0  0
   23.8103    3.2322   56.4953 O   0  0  0  0  0  0  0  0  0  0  0  0
   20.0210   -2.8438   47.4848 C   0  0  1  0  0  0  0  0  0  0  0  0
   20.4479   -3.2417   46.0353 C   0  0  1  0  0  0  0  0  0  0  0  0
   19.3932   -2.6863   45.0343 C   0  0  2  0  0  0  0  0  0  0  0  0
   17.9762   -3.2586   45.3479 C   0  0  1  0  0  0  0  0  0  0  0  0
   17.5416   -2.8715   46.8128 C   0  0  0  0  0  0  0  0  0  0  0  0
   18.6146   -3.4441   47.8291 C   0  0  2  0  0  0  0  0  0  0  0  0
   16.9854   -2.7089   44.3815 N   0  0  0  0  0  0  0  0  0  0  0  0
   18.1970   -3.0796   49.2016 N   0  0  0  0  0  0  0  0  0  0  0  0
   21.7361   -2.6802   45.7212 O   0  0  0  0  0  0  0  0  0  0  0  0
   19.8002   -3.0667   43.7302 O   0  0  0  0  0  0  0  0  0  0  0  0
  1  2  1  0  0  0  0
  1 12  1  1  0  0  0
  1 13  1  0  0  0  0
  2  3  1  0  0  0  0
  2 10  1  6  0  0  0
  4  3  1  6  0  0  0
  4  5  1  0  0  0  0
  4 14  1  0  0  0  0
  5  6  1  0  0  0  0
  5 13  1  6  0  0  0
  6  7  1  0  0  0  0
  6 15  1  1  0  0  0
  7  8  1  0  0  0  0
  7 11  1  1  0  0  0
  8 14  1  0  0  0  0
  8 16  1  1  0  0  0
  9 11  1  0  0  0  0
 17 16  1  6  0  0  0
 17 18  1  0  0  0  0
 17 24  1  0  0  0  0
 18 19  1  0  0  0  0
 18 25  1  6  0  0  0
 19 20  1  0  0  0  0
 19 26  1  1  0  0  0
 20 21  1  0  0  0  0
 20 23  1  6  0  0  0
 21 22  1  1  0  0  0
 21 24  1  0  0  0  0
 22 27  1  0  0  0  0
 28 12  1  1  0  0  0
 28 29  1  0  0  0  0
 28 33  1  0  0  0  0
 29 30  1  0  0  0  0
 29 36  1  6  0  0  0
 30 31  1  0  0  0  0
 30 37  1  6  0  0  0
 31 32  1  0  0  0  0
 31 34  1  6  0  0  0
 32 33  1  0  0  0  0
 33 35  1  1  0  0  0
M  END
>  <CHROM.1>
173.09467326,152.59544525,-171.76507185,-164.66163353,61.40205271,77.82014211
20.71803414,-0.61091141,51.13288353,-1.69443818,-0.25122620,1.07403883

>  <Name>
2oe8_lig

>  <RI>
0

>  <Rbt.Current_Directory>
/home/itssahil/PROJECTS/Mol_Feturizer/New_Systems/rnas/2oe8

>  <Rbt.Executable>
rbdock ($Id: //depot/dev/client3/rdock/2013.1/src/exe/rbdock.cxx#4 $)

>  <Rbt.Library>
libRbt.so (2013.1, Build901 2013/11/27)

>  <Rbt.Parameter_File>
/export/apps/rDock/src/rDock_2013.1_src/data/scripts/dock_solv.prm

>  <Rbt.Receptor>
prm/pocket_docking_8.prm

>  <SCORE>
-24.1632

>  <SCORE.INTER>
-17.5337

>  <SCORE.INTER.CONST>
1

>  <SCORE.INTER.POLAR>
-1.94725

>  <SCORE.INTER.ROT>
6

>  <SCORE.INTER.SOLV>
16.4319

>  <SCORE.INTER.VDW>
-18.2756

>  <SCORE.INTER.norm>
-0.473884

>  <SCORE.INTRA>
-6.62947

>  <SCORE.INTRA.DIHEDRAL>
-12.6957

>  <SCORE.INTRA.DIHEDRAL.0>
16.4056

>  <SCORE.INTRA.POLAR>
0

>  <SCORE.INTRA.POLAR.0>
0

>  <SCORE.INTRA.REPUL>
0

>  <SCORE.INTRA.REPUL.0>
0

>  <SCORE.INTRA.SOLV>
-2.28019

>  <SCORE.INTRA.SOLV.lig_0>
-90.9627

>  <SCORE.INTRA.VDW>
0.858497

>  <SCORE.INTRA.VDW.0>
-3.28744

>  <SCORE.INTRA.norm>
-0.179175

>  <SCORE.RESTR>
0

>  <SCORE.RESTR.CAVITY>
0

>  <SCORE.RESTR.norm>
0

>  <SCORE.SYSTEM>
0

>  <SCORE.SYSTEM.CONST>
0

>  <SCORE.SYSTEM.DIHEDRAL>
0

>  <SCORE.SYSTEM.SOLV>
0

>  <SCORE.SYSTEM.norm>
0

>  <SCORE.heavy>
37

>  <SCORE.norm>
-0.653059

>  <RMSD>
9.901

$$$$
2oe8_lig
 OpenBabel11021811463D
libRbt.so/2013.1/901 2013/11/27
 37 40  0  0  0  0  0  0  0  0999 V2000
   18.9154   -4.4178   48.8525 C   0  0  1  0  0  0  0  0  0  0  0  0
   19.1555   -5.0980   50.2536 C   0  0  1  0  0  0  0  0  0  0  0  0
   18.6902   -4.1420   51.3718 C   0  0  0  0  0  0  0  0  0  0  0  0
   19.5450   -2.8454   51.2163 C   0  0  1  0  0  0  0  0  0  0  0  0
   19.3250   -2.1483   49.7770 C   0  0  1  0  0  0  0  0  0  0  0  0
   20.1889   -0.8643   49.6064 C   0  0  1  0  0  0  0  0  0  0  0  0
   19.7970    0.1264   50.7777 C   0  0  1  0  0  0  0  0  0  0  0  0
   19.9839   -0.6112   52.1491 C   0  0  2  0  0  0  0  0  0  0  0  0
   22.1352    1.3199   50.7114 C   0  0  0  0  0  0  0  0  0  0  0  0
   18.4005   -6.3877   50.3475 N   0  0  0  0  0  0  0  0  0  0  0  0
   20.6297    1.4042   50.7229 N   0  0  0  0  0  0  0  0  0  0  0  0
   17.5261   -4.1485   48.6257 O   0  0  0  0  0  0  0  0  0  0  0  0
   19.6572   -3.1282   48.7334 O   0  0  0  0  0  0  0  0  0  0  0  0
   19.1951   -1.8745   52.2469 O   0  0  0  0  0  0  0  0  0  0  0  0
   21.5579   -1.2675   49.6693 O   0  0  0  0  0  0  0  0  0  0  0  0
   19.5836    0.2298   53.1687 O   0  0  0  0  0  0  0  0  0  0  0  0
   20.5658    1.2242   53.5051 C   0  0  2  0  0  0  0  0  0  0  0  0
   21.6081    0.6382   54.4879 C   0  0  1  0  0  0  0  0  0  0  0  0
   20.9724    0.2947   55.8699 C   0  0  2  0  0  0  0  0  0  0  0  0
   20.3406    1.5807   56.4798 C   0  0  1  0  0  0  0  0  0  0  0  0
   19.2317    2.0772   55.4615 C   0  0  1  0  0  0  0  0  0  0  0  0
   18.5440    3.3519   55.9421 C   0  0  0  0  0  0  0  0  0  0  0  0
   19.7323    1.2550   57.8014 N   0  0  0  0  0  0  0  0  0  0  0  0
   19.8899    2.3842   54.1424 O   0  0  0  0  0  0  0  0  0  0  0  0
   22.1853   -0.5209   53.8568 O   0  0  0  0  0  0  0  0  0  0  0  0
   21.9910   -0.1862   56.7217 O   0  0  0  0  0  0  0  0  0  0  0  0
   17.5197    3.6962   55.0469 O   0  0  0  0  0  0  0  0  0  0  0  0
   17.1453   -4.2425   47.2685 C   0  0  1  0  0  0  0  0  0  0  0  0
   17.9359   -3.1602   46.4652 C   0  0  1  0  0  0  0  0  0  0  0  0
   17.5022   -3.2315   44.9719 C   0  0  2  0  0  0  0  0  0  0  0  0
   17.7852   -4.6466   44.3795 C   0  0  1  0  0  0  0  0  0  0  0  0
   17.0002   -5.7466   45.1910 C   0  0  0  0  0  0  0  0  0  0  0  0
   17.4492   -5.6748   46.7093 C   0  0  2  0  0  0  0  0  0  0  0  0
   17.3572   -4.6910   42.9538 N   0  0  0  0  0  0  0  0  0  0  0  0
   16.7106   -6.7130   47.4630 N   0  0  0  0  0  0  0  0  0  0  0  0
   17.6460   -1.8461   46.9771 O   0  0  0  0  0  0  0  0  0  0  0  0
   18.2380   -2.2461   44.2660 O   0  0  0  0  0  0  0  0  0  0  0  0
  1  2  1  0  0  0  0
  1 12  1  1  0  0  0
  1 13  1  0  0  0  0
  2  3  1  0  0  0  0
  2 10  1  6  0  0  0
  4  3  1  6  0  0  0
  4  5  1  0  0  0  0
  4 14  1  0  0  0  0
  5  6  1  0  0  0  0
  5 13  1  6  0  0  0
  6  7  1  0  0  0  0
  6 15  1  1  0  0  0
  7  8  1  0  0  0  0
  7 11  1  1  0  0  0
  8 14  1  0  0  0  0
  8 16  1  1  0  0  0
  9 11  1  0  0  0  0
 17 16  1  1  0  0  0
 17 18  1  0  0  0  0
 17 24  1  0  0  0  0
 18 19  1  0  0  0  0
 18 25  1  6  0  0  0
 19 20  1  0  0  0  0
 19 26  1  1  0  0  0
 20 21  1  0  0  0  0
 20 23  1  1  0  0  0
 21 22  1  1  0  0  0
 21 24  1  0  0  0  0
 22 27  1  0  0  0  0
 28 12  1  1  0  0  0
 28 29  1  0  0  0  0
 28 33  1  0  0  0  0
 29 30  1  0  0  0  0
 29 36  1  1  0  0  0
 30 31  1  0  0  0  0
 30 37  1  6  0  0  0
 31 32  1  0  0  0  0
 31 34  1  6  0  0  0
 32 33  1  0  0  0  0
 33 35  1  1  0  0  0
M  END
>  <CHROM.1>
-147.55104303,-54.59298402,-78.86120779,-83.71191267,-176.33650356,-62.36805140
19.25108147,-1.58236982,50.68316581,3.07292693,-1.34416081,-0.65035432

>  <Name>
2oe8_lig

>  <RI>
0

>  <Rbt.Current_Directory>
/home/itssahil/PROJECTS/Mol_Feturizer/New_Systems/rnas/2oe8

>  <Rbt.Executable>
rbdock ($Id: //depot/dev/client3/rdock/2013.1/src/exe/rbdock.cxx#4 $)

>  <Rbt.Library>
libRbt.so (2013.1, Build901 2013/11/27)

>  <Rbt.Parameter_File>
/export/apps/rDock/src/rDock_2013.1_src/data/scripts/dock_solv.prm

>  <Rbt.Receptor>
prm/pocket_docking_4.prm

>  <SCORE>
-20.812

>  <SCORE.INTER>
-20.4401

>  <SCORE.INTER.CONST>
1

>  <SCORE.INTER.POLAR>
-2.752

>  <SCORE.INTER.ROT>
6

>  <SCORE.INTER.SOLV>
13.1918

>  <SCORE.INTER.VDW>
-16.4507

>  <SCORE.INTER.norm>
-0.552436

>  <SCORE.INTRA>
-0.423653

>  <SCORE.INTRA.DIHEDRAL>
-8.16896

>  <SCORE.INTRA.DIHEDRAL.0>
16.4056

>  <SCORE.INTRA.POLAR>
0

>  <SCORE.INTRA.POLAR.0>
0

>  <SCORE.INTRA.REPUL>
0

>  <SCORE.INTRA.REPUL.0>
0

>  <SCORE.INTRA.SOLV>
0.864731

>  <SCORE.INTRA.SOLV.lig_0>
-90.9627

>  <SCORE.INTRA.VDW>
3.22846

>  <SCORE.INTRA.VDW.0>
-3.28744

>  <SCORE.INTRA.norm>
-0.0114501

>  <SCORE.RESTR>
0.0517833

>  <SCORE.RESTR.CAVITY>
0.0517833

>  <SCORE.RESTR.norm>
0.00139955

>  <SCORE.SYSTEM>
0

>  <SCORE.SYSTEM.CONST>
0

>  <SCORE.SYSTEM.DIHEDRAL>
0

>  <SCORE.SYSTEM.SOLV>
0

>  <SCORE.SYSTEM.norm>
0

>  <SCORE.heavy>
37

>  <SCORE.norm>
-0.562486

>  <RMSD>
9.904

$$$$
2oe8_lig
 OpenBabel11021811463D
libRbt.so/2013.1/901 2013/11/27
 37 40  0  0  0  0  0  0  0  0999 V2000
   20.4736   -3.4440   48.8035 C   0  0  1  0  0  0  0  0  0  0  0  0
   19.3144   -3.3342   49.8654 C   0  0  1  0  0  0  0  0  0  0  0  0
   19.1315   -1.8568   50.2708 C   0  0  0  0  0  0  0  0  0  0  0  0
   20.4975   -1.4007   50.8725 C   0  0  1  0  0  0  0  0  0  0  0  0
   21.6991   -1.5272   49.8020 C   0  0  1  0  0  0  0  0  0  0  0  0
   23.0690   -1.0921   50.4003 C   0  0  1  0  0  0  0  0  0  0  0  0
   22.9127    0.4030   50.8974 C   0  0  1  0  0  0  0  0  0  0  0  0
   21.7069    0.4812   51.8973 C   0  0  2  0  0  0  0  0  0  0  0  0
   24.4718    2.3882   51.6219 C   0  0  0  0  0  0  0  0  0  0  0  0
   18.0327   -3.8634   49.3002 N   0  0  0  0  0  0  0  0  0  0  0  0
   24.1987    0.9071   51.5466 N   0  0  0  0  0  0  0  0  0  0  0  0
   20.1682   -2.7138   47.6087 O   0  0  0  0  0  0  0  0  0  0  0  0
   21.7637   -2.9215   49.3423 O   0  0  0  0  0  0  0  0  0  0  0  0
   20.4262   -0.0112   51.3099 O   0  0  0  0  0  0  0  0  0  0  0  0
   23.3661   -1.9930   51.4685 O   0  0  0  0  0  0  0  0  0  0  0  0
   21.5297    1.7950   52.2840 O   0  0  0  0  0  0  0  0  0  0  0  0
   20.5136    1.9609   53.2875 C   0  0  2  0  0  0  0  0  0  0  0  0
   20.2085    3.4635   53.4991 C   0  0  1  0  0  0  0  0  0  0  0  0
   21.4273    4.2220   54.1085 C   0  0  2  0  0  0  0  0  0  0  0  0
   21.8133    3.5679   55.4681 C   0  0  1  0  0  0  0  0  0  0  0  0
   22.1890    2.0582   55.1631 C   0  0  1  0  0  0  0  0  0  0  0  0
   22.5734    1.2981   56.4293 C   0  0  0  0  0  0  0  0  0  0  0  0
   22.9783    4.2914   56.0529 N   0  0  0  0  0  0  0  0  0  0  0  0
   20.9883    1.3725   54.5669 O   0  0  0  0  0  0  0  0  0  0  0  0
   19.8207    4.0044   52.2217 O   0  0  0  0  0  0  0  0  0  0  0  0
   21.0558    5.5686   54.3158 O   0  0  0  0  0  0  0  0  0  0  0  0
   22.9191   -0.0205   56.0959 O   0  0  0  0  0  0  0  0  0  0  0  0
   19.4150   -3.4535   46.6699 C   0  0  1  0  0  0  0  0  0  0  0  0
   18.2137   -2.5691   46.2047 C   0  0  1  0  0  0  0  0  0  0  0  0
   17.3567   -3.3842   45.1927 C   0  0  2  0  0  0  0  0  0  0  0  0
   18.2119   -3.8115   43.9599 C   0  0  1  0  0  0  0  0  0  0  0  0
   19.4331   -4.6952   44.4210 C   0  0  0  0  0  0  0  0  0  0  0  0
   20.3064   -3.8595   45.4462 C   0  0  2  0  0  0  0  0  0  0  0  0
   17.3722   -4.5934   43.0105 N   0  0  0  0  0  0  0  0  0  0  0  0
   21.4524   -4.6948   45.8708 N   0  0  0  0  0  0  0  0  0  0  0  0
   17.3934   -2.2067   47.3312 O   0  0  0  0  0  0  0  0  0  0  0  0
   16.2798   -2.5579   44.7822 O   0  0  0  0  0  0  0  0  0  0  0  0
  1  2  1  0  0  0  0
  1 12  1  6  0  0  0
  1 13  1  0  0  0  0
  2  3  1  0  0  0  0
  2 10  1  6  0  0  0
  4  3  1  6  0  0  0
  4  5  1  0  0  0  0
  4 14  1  0  0  0  0
  5  6  1  0  0  0  0
  5 13  1  1  0  0  0
  6  7  1  0  0  0  0
  6 15  1  1  0  0  0
  7  8  1  0  0  0  0
  7 11  1  1  0  0  0
  8 14  1  0  0  0  0
  8 16  1  6  0  0  0
  9 11  1  0  0  0  0
 17 16  1  6  0  0  0
 17 18  1  0  0  0  0
 17 24  1  0  0  0  0
 18 19  1  0  0  0  0
 18 25  1  6  0  0  0
 19 20  1  0  0  0  0
 19 26  1  1  0  0  0
 20 21  1  0  0  0  0
 20 23  1  6  0  0  0
 21 22  1  1  0  0  0
 21 24  1  0  0  0  0
 22 27  1  0  0  0  0
 28 12  1  1  0  0  0
 28 29  1  0  0  0  0
 28 33  1  0  0  0  0
 29 30  1  0  0  0  0
 29 36  1  1  0  0  0
 30 31  1  0  0  0  0
 30 37  1  6  0  0  0
 31 32  1  0  0  0  0
 31 34  1  6  0  0  0
 32 33  1  0  0  0  0
 33 35  1  1  0  0  0
M  END
>  <CHROM.1>
-86.22606447,157.16171015,-175.25628756,-170.66155834,-178.89401253,131.38175900
20.67214703,-0.56571880,50.34753739,-1.93061896,-0.56206137,0.73777582

>  <Name>
2oe8_lig

>  <RI>
0

>  <Rbt.Current_Directory>
/home/itssahil/PROJECTS/Mol_Feturizer/New_Systems/rnas/2oe8

>  <Rbt.Executable>
rbdock ($Id: //depot/dev/client3/rdock/2013.1/src/exe/rbdock.cxx#4 $)

>  <Rbt.Library>
libRbt.so (2013.1, Build901 2013/11/27)

>  <Rbt.Parameter_File>
/export/apps/rDock/src/rDock_2013.1_src/data/scripts/dock_solv.prm

>  <Rbt.Receptor>
prm/pocket_docking_5.prm

>  <SCORE>
-20.8754

>  <SCORE.INTER>
-17.8113

>  <SCORE.INTER.CONST>
1

>  <SCORE.INTER.POLAR>
-1.97133

>  <SCORE.INTER.ROT>
6

>  <SCORE.INTER.SOLV>
13.365

>  <SCORE.INTER.VDW>
-17.3581

>  <SCORE.INTER.norm>
-0.481387

>  <SCORE.INTRA>
-3.06412

>  <SCORE.INTRA.DIHEDRAL>
-5.9764

>  <SCORE.INTRA.DIHEDRAL.0>
16.4056

>  <SCORE.INTRA.POLAR>
0

>  <SCORE.INTRA.POLAR.0>
0

>  <SCORE.INTRA.REPUL>
0

>  <SCORE.INTRA.REPUL.0>
0

>  <SCORE.INTRA.SOLV>
0.00817494

>  <SCORE.INTRA.SOLV.lig_0>
-90.9627

>  <SCORE.INTRA.VDW>
-0.0800035

>  <SCORE.INTRA.VDW.0>
-3.28744

>  <SCORE.INTRA.norm>
-0.082814

>  <SCORE.RESTR>
0

>  <SCORE.RESTR.CAVITY>
0

>  <SCORE.RESTR.norm>
0

>  <SCORE.SYSTEM>
0

>  <SCORE.SYSTEM.CONST>
0

>  <SCORE.SYSTEM.DIHEDRAL>
0

>  <SCORE.SYSTEM.SOLV>
0

>  <SCORE.SYSTEM.norm>
0

>  <SCORE.heavy>
37

>  <SCORE.norm>
-0.564201

>  <RMSD>
9.907

$$$$
2oe8_lig
 OpenBabel11021811463D
libRbt.so/2013.1/901 2013/11/27
 37 40  0  0  0  0  0  0  0  0999 V2000
   20.8294   -1.2329   48.6092 C   0  0  1  0  0  0  0  0  0  0  0  0
   22.3327   -1.2216   49.0818 C   0  0  1  0  0  0  0  0  0  0  0  0
   22.4029   -1.6205   50.5706 C   0  0  0  0  0  0  0  0  0  0  0  0
   21.5571   -0.5605   51.3432 C   0  0  1  0  0  0  0  0  0  0  0  0
   20.0185   -0.5461   50.8550 C   0  0  1  0  0  0  0  0  0  0  0  0
   19.1720    0.5222   51.6076 C   0  0  1  0  0  0  0  0  0  0  0  0
   19.2691    0.1966   53.1540 C   0  0  1  0  0  0  0  0  0  0  0  0
   20.7812    0.1489   53.5679 C   0  0  2  0  0  0  0  0  0  0  0  0
   18.9652    2.6590   54.0147 C   0  0  0  0  0  0  0  0  0  0  0  0
   23.1468   -2.1773   48.2657 N   0  0  0  0  0  0  0  0  0  0  0  0
   18.5041    1.2236   53.9844 N   0  0  0  0  0  0  0  0  0  0  0  0
   20.2480   -2.5379   48.7238 O   0  0  0  0  0  0  0  0  0  0  0  0
   19.9949   -0.2882   49.4085 O   0  0  0  0  0  0  0  0  0  0  0  0
   21.5744   -0.8362   52.7753 O   0  0  0  0  0  0  0  0  0  0  0  0
   19.7237    1.7996   51.2842 O   0  0  0  0  0  0  0  0  0  0  0  0
   20.8701   -0.1962   54.9021 O   0  0  0  0  0  0  0  0  0  0  0  0
   22.2242   -0.3204   55.3689 C   0  0  2  0  0  0  0  0  0  0  0  0
   22.2435   -0.6071   56.8897 C   0  0  1  0  0  0  0  0  0  0  0  0
   21.7000    0.6001   57.7140 C   0  0  2  0  0  0  0  0  0  0  0  0
   22.5594    1.8619   57.4066 C   0  0  1  0  0  0  0  0  0  0  0  0
   22.4282    2.1414   55.8516 C   0  0  1  0  0  0  0  0  0  0  0  0
   23.2456    3.3550   55.4182 C   0  0  0  0  0  0  0  0  0  0  0  0
   22.0419    3.0174   58.1936 N   0  0  0  0  0  0  0  0  0  0  0  0
   22.9529    0.9466   55.1001 O   0  0  0  0  0  0  0  0  0  0  0  0
   21.4691   -1.8018   57.1087 O   0  0  0  0  0  0  0  0  0  0  0  0
   21.7950    0.2813   59.0865 O   0  0  0  0  0  0  0  0  0  0  0  0
   23.0874    3.5563   54.0385 O   0  0  0  0  0  0  0  0  0  0  0  0
   19.1830   -2.7644   47.8237 C   0  0  1  0  0  0  0  0  0  0  0  0
   19.7915   -3.0840   46.4204 C   0  0  1  0  0  0  0  0  0  0  0  0
   18.6277   -3.3049   45.4105 C   0  0  2  0  0  0  0  0  0  0  0  0
   17.7086   -4.4780   45.8719 C   0  0  1  0  0  0  0  0  0  0  0  0
   17.0988   -4.1693   47.2923 C   0  0  0  0  0  0  0  0  0  0  0  0
   18.2868   -3.9512   48.3187 C   0  0  2  0  0  0  0  0  0  0  0  0
   16.6015   -4.6656   44.8937 N   0  0  0  0  0  0  0  0  0  0  0  0
   17.7056   -3.6658   49.6498 N   0  0  0  0  0  0  0  0  0  0  0  0
   20.6063   -1.9870   45.9667 O   0  0  0  0  0  0  0  0  0  0  0  0
   19.2063   -3.5995   44.1498 O   0  0  0  0  0  0  0  0  0  0  0  0
  1  2  1  0  0  0  0
  1 12  1  1  0  0  0
  1 13  1  0  0  0  0
  2  3  1  0  0  0  0
  2 10  1  6  0  0  0
  4  3  1  6  0  0  0
  4  5  1  0  0  0  0
  4 14  1  0  0  0  0
  5  6  1  0  0  0  0
  5 13  1  6  0  0  0
  6  7  1  0  0  0  0
  6 15  1  1  0  0  0
  7  8  1  0  0  0  0
  7 11  1  1  0  0  0
  8 14  1  0  0  0  0
  8 16  1  1  0  0  0
  9 11  1  0  0  0  0
 17 16  1  1  0  0  0
 17 18  1  0  0  0  0
 17 24  1  0  0  0  0
 18 19  1  0  0  0  0
 18 25  1  6  0  0  0
 19 20  1  0  0  0  0
 19 26  1  1  0  0  0
 20 21  1  0  0  0  0
 20 23  1  1  0  0  0
 21 22  1  6  0  0  0
 21 24  1  0  0  0  0
 22 27  1  0  0  0  0
 28 12  1  1  0  0  0
 28 29  1  0  0  0  0
 28 33  1  0  0  0  0
 29 30  1  0  0  0  0
 29 36  1  6  0  0  0
 30 31  1  0  0  0  0
 30 37  1  6  0  0  0
 31 32  1  0  0  0  0
 31 34  1  6  0  0  0
 32 33  1  0  0  0  0
 33 35  1  1  0  0  0
M  END
>  <CHROM.1>
-153.71133645,-65.29072795,177.63560798,175.93532456,-179.76824187,78.84872863
20.55836026,-0.71059770,51.65167574,-1.93594545,0.73986285,1.38887239

>  <Name>
2oe8_lig

>  <RI>
0

>  <Rbt.Current_Directory>
/home/itssahil/PROJECTS/Mol_Feturizer/New_Systems/rnas/2oe8

>  <Rbt.Executable>
rbdock ($Id: //depot/dev/client3/rdock/2013.1/src/exe/rbdock.cxx#4 $)

>  <Rbt.Library>
libRbt.so (2013.1, Build901 2013/11/27)

>  <Rbt.Parameter_File>
/export/apps/rDock/src/rDock_2013.1_src/data/scripts/dock_solv.prm

>  <Rbt.Receptor>
prm/pocket_docking_5.prm

>  <SCORE>
-23.7468

>  <SCORE.INTER>
-18.7804

>  <SCORE.INTER.CONST>
1

>  <SCORE.INTER.POLAR>
-1.98906

>  <SCORE.INTER.ROT>
6

>  <SCORE.INTER.SOLV>
15.5055

>  <SCORE.INTER.VDW>
-18.6586

>  <SCORE.INTER.norm>
-0.507578

>  <SCORE.INTRA>
-4.96639

>  <SCORE.INTRA.DIHEDRAL>
-11.7059

>  <SCORE.INTRA.DIHEDRAL.0>
16.4056

>  <SCORE.INTRA.POLAR>
0

>  <SCORE.INTRA.POLAR.0>
0

>  <SCORE.INTRA.REPUL>
0

>  <SCORE.INTRA.REPUL.0>
0

>  <SCORE.INTRA.SOLV>
-1.7623

>  <SCORE.INTRA.SOLV.lig_0>
-90.9627

>  <SCORE.INTRA.VDW>
1.7677

>  <SCORE.INTRA.VDW.0>
-3.28744

>  <SCORE.INTRA.norm>
-0.134227

>  <SCORE.RESTR>
0

>  <SCORE.RESTR.CAVITY>
0

>  <SCORE.RESTR.norm>
0

>  <SCORE.SYSTEM>
0

>  <SCORE.SYSTEM.CONST>
0

>  <SCORE.SYSTEM.DIHEDRAL>
0

>  <SCORE.SYSTEM.SOLV>
0

>  <SCORE.SYSTEM.norm>
0

>  <SCORE.heavy>
37

>  <SCORE.norm>
-0.641804

>  <RMSD>
9.909

$$$$
2oe8_lig
 OpenBabel11021811463D
libRbt.so/2013.1/901 2013/11/27
 37 40  0  0  0  0  0  0  0  0999 V2000
   22.2343   -2.4534   52.4123 C   0  0  1  0  0  0  0  0  0  0  0  0
   20.7719   -2.2916   51.8479 C   0  0  1  0  0  0  0  0  0  0  0  0
   20.2360   -0.8913   52.2121 C   0  0  0  0  0  0  0  0  0  0  0  0
   20.2548   -0.8124   53.7707 C   0  0  1  0  0  0  0  0  0  0  0  0
   21.7444   -0.9972   54.3649 C   0  0  1  0  0  0  0  0  0  0  0  0
   21.7691   -0.9389   55.9205 C   0  0  1  0  0  0  0  0  0  0  0  0
   21.1611    0.4587   56.3495 C   0  0  1  0  0  0  0  0  0  0  0  0
   19.7364    0.6089   55.7112 C   0  0  2  0  0  0  0  0  0  0  0  0
   22.0151    1.5595   58.5756 C   0  0  0  0  0  0  0  0  0  0  0  0
   20.7611   -2.4635   50.3605 N   0  0  0  0  0  0  0  0  0  0  0  0
   21.0996    0.5920   57.8687 N   0  0  0  0  0  0  0  0  0  0  0  0
   23.1327   -1.4958   51.8378 O   0  0  0  0  0  0  0  0  0  0  0  0
   22.2729   -2.2853   53.8949 O   0  0  0  0  0  0  0  0  0  0  0  0
   19.7437    0.4760   54.2246 O   0  0  0  0  0  0  0  0  0  0  0  0
   20.9918   -2.0397   56.3947 O   0  0  0  0  0  0  0  0  0  0  0  0
   19.2299    1.8527   56.0328 O   0  0  0  0  0  0  0  0  0  0  0  0
   17.8221    1.9794   55.7704 C   0  0  2  0  0  0  0  0  0  0  0  0
   17.4561    3.4602   55.5082 C   0  0  1  0  0  0  0  0  0  0  0  0
   17.6540    4.3400   56.7806 C   0  0  2  0  0  0  0  0  0  0  0  0
   16.7747    3.7785   57.9367 C   0  0  1  0  0  0  0  0  0  0  0  0
   17.2578    2.2923   58.2032 C   0  0  1  0  0  0  0  0  0  0  0  0
   16.4549    1.6209   59.3139 C   0  0  0  0  0  0  0  0  0  0  0  0
   16.9620    4.6182   59.1543 N   0  0  0  0  0  0  0  0  0  0  0  0
   17.0587    1.4869   56.9465 O   0  0  0  0  0  0  0  0  0  0  0  0
   18.2686    3.9125   54.4081 O   0  0  0  0  0  0  0  0  0  0  0  0
   17.2549    5.6600   56.4760 O   0  0  0  0  0  0  0  0  0  0  0  0
   16.9075    0.3040   59.4869 O   0  0  0  0  0  0  0  0  0  0  0  0
   24.4669   -1.9521   51.7509 C   0  0  1  0  0  0  0  0  0  0  0  0
   24.5465   -3.0066   50.6005 C   0  0  1  0  0  0  0  0  0  0  0  0
   26.0058   -3.5415   50.5143 C   0  0  2  0  0  0  0  0  0  0  0  0
   27.0075   -2.3775   50.2397 C   0  0  1  0  0  0  0  0  0  0  0  0
   26.9261   -1.3027   51.3899 C   0  0  0  0  0  0  0  0  0  0  0  0
   25.4405   -0.7563   51.4703 C   0  0  2  0  0  0  0  0  0  0  0  0
   28.3951   -2.9132   50.1671 N   0  0  0  0  0  0  0  0  0  0  0  0
   25.3738    0.2546   52.5496 N   0  0  0  0  0  0  0  0  0  0  0  0
   23.6571   -4.1069   50.8679 O   0  0  0  0  0  0  0  0  0  0  0  0
   26.0517   -4.4893   49.4605 O   0  0  0  0  0  0  0  0  0  0  0  0
  1  2  1  0  0  0  0
  1 12  1  6  0  0  0
  1 13  1  0  0  0  0
  2  3  1  0  0  0  0
  2 10  1  6  0  0  0
  4  3  1  6  0  0  0
  4  5  1  0  0  0  0
  4 14  1  0  0  0  0
  5  6  1  0  0  0  0
  5 13  1  1  0  0  0
  6  7  1  0  0  0  0
  6 15  1  1  0  0  0
  7  8  1  0  0  0  0
  7 11  1  1  0  0  0
  8 14  1  0  0  0  0
  8 16  1  6  0  0  0
  9 11  1  0  0  0  0
 17 16  1  1  0  0  0
 17 18  1  0  0  0  0
 17 24  1  0  0  0  0
 18 19  1  0  0  0  0
 18 25  1  6  0  0  0
 19 20  1  0  0  0  0
 19 26  1  6  0  0  0
 20 21  1  0  0  0  0
 20 23  1  1  0  0  0
 21 22  1  1  0  0  0
 21 24  1  0  0  0  0
 22 27  1  0  0  0  0
 28 12  1  6  0  0  0
 28 29  1  0  0  0  0
 28 33  1  0  0  0  0
 29 30  1  0  0  0  0
 29 36  1  1  0  0  0
 30 31  1  0  0  0  0
 30 37  1  6  0  0  0
 31 32  1  0  0  0  0
 31 34  1  1  0  0  0
 32 33  1  0  0  0  0
 33 35  1  1  0  0  0
M  END
>  <CHROM.1>
-150.29059838,110.25281195,-166.27214106,-153.64237141,178.84973259,73.40357992
21.17887030,-0.04523690,54.37090762,0.76649173,0.40351748,-1.87573489

>  <Name>
2oe8_lig

>  <RI>
0

>  <Rbt.Current_Directory>
/home/itssahil/PROJECTS/Mol_Feturizer/New_Systems/rnas/2oe8

>  <Rbt.Executable>
rbdock ($Id: //depot/dev/client3/rdock/2013.1/src/exe/rbdock.cxx#4 $)

>  <Rbt.Library>
libRbt.so (2013.1, Build901 2013/11/27)

>  <Rbt.Parameter_File>
/export/apps/rDock/src/rDock_2013.1_src/data/scripts/dock_solv.prm

>  <Rbt.Receptor>
prm/pocket_docking_5.prm

>  <SCORE>
-25.446

>  <SCORE.INTER>
-21.7168

>  <SCORE.INTER.CONST>
1

>  <SCORE.INTER.POLAR>
-1.89546

>  <SCORE.INTER.ROT>
6

>  <SCORE.INTER.SOLV>
9.87435

>  <SCORE.INTER.VDW>
-19.0511

>  <SCORE.INTER.norm>
-0.586941

>  <SCORE.INTRA>
-3.72918

>  <SCORE.INTRA.DIHEDRAL>
-7.04057

>  <SCORE.INTRA.DIHEDRAL.0>
16.4056

>  <SCORE.INTRA.POLAR>
0

>  <SCORE.INTRA.POLAR.0>
0

>  <SCORE.INTRA.REPUL>
0

>  <SCORE.INTRA.REPUL.0>
0

>  <SCORE.INTRA.SOLV>
-2.11019

>  <SCORE.INTRA.SOLV.lig_0>
-90.9627

>  <SCORE.INTRA.VDW>
0.846203

>  <SCORE.INTRA.VDW.0>
-3.28744

>  <SCORE.INTRA.norm>
-0.100789

>  <SCORE.RESTR>
0

>  <SCORE.RESTR.CAVITY>
0

>  <SCORE.RESTR.norm>
0

>  <SCORE.SYSTEM>
0

>  <SCORE.SYSTEM.CONST>
0

>  <SCORE.SYSTEM.DIHEDRAL>
0

>  <SCORE.SYSTEM.SOLV>
0

>  <SCORE.SYSTEM.norm>
0

>  <SCORE.heavy>
37

>  <SCORE.norm>
-0.68773

>  <RMSD>
9.910

$$$$
2oe8_lig
 OpenBabel11021811463D
libRbt.so/2013.1/901 2013/11/27
 37 40  0  0  0  0  0  0  0  0999 V2000
   21.4393   -3.7898   49.5772 C   0  0  1  0  0  0  0  0  0  0  0  0
   22.7034   -3.6586   50.5089 C   0  0  1  0  0  0  0  0  0  0  0  0
   22.2438   -3.4374   51.9650 C   0  0  0  0  0  0  0  0  0  0  0  0
   21.4043   -2.1217   51.9589 C   0  0  1  0  0  0  0  0  0  0  0  0
   20.1163   -2.2339   50.9921 C   0  0  1  0  0  0  0  0  0  0  0  0
   19.2838   -0.9185   50.9655 C   0  0  1  0  0  0  0  0  0  0  0  0
   18.8447   -0.6085   52.4548 C   0  0  1  0  0  0  0  0  0  0  0  0
   20.1245   -0.5551   53.3598 C   0  0  2  0  0  0  0  0  0  0  0  0
   18.7547    2.0115   52.2986 C   0  0  0  0  0  0  0  0  0  0  0  0
   23.5451   -4.8945   50.4290 N   0  0  0  0  0  0  0  0  0  0  0  0
   18.0573    0.6963   52.5388 N   0  0  0  0  0  0  0  0  0  0  0  0
   20.6292   -4.9153   49.9390 O   0  0  0  0  0  0  0  0  0  0  0  0
   20.5818   -2.5697   49.6393 O   0  0  0  0  0  0  0  0  0  0  0  0
   20.9343   -1.8076   53.3034 O   0  0  0  0  0  0  0  0  0  0  0  0
   20.1250    0.1003   50.4223 O   0  0  0  0  0  0  0  0  0  0  0  0
   19.7392   -0.3466   54.6694 O   0  0  0  0  0  0  0  0  0  0  0  0
   20.6810    0.4365   55.4221 C   0  0  2  0  0  0  0  0  0  0  0  0
   20.6568    0.0186   56.9122 C   0  0  1  0  0  0  0  0  0  0  0  0
   19.2954    0.3653   57.5893 C   0  0  2  0  0  0  0  0  0  0  0  0
   19.0356    1.8960   57.4689 C   0  0  1  0  0  0  0  0  0  0  0  0
   18.9937    2.2362   55.9211 C   0  0  1  0  0  0  0  0  0  0  0  0
   18.7595    3.7229   55.6689 C   0  0  0  0  0  0  0  0  0  0  0  0
   17.7346    2.2301   58.1157 N   0  0  0  0  0  0  0  0  0  0  0  0
   20.3218    1.8742   55.3108 O   0  0  0  0  0  0  0  0  0  0  0  0
   20.9411   -1.3926   56.9645 O   0  0  0  0  0  0  0  0  0  0  0  0
   19.3694   -0.0000   58.9514 O   0  0  0  0  0  0  0  0  0  0  0  0
   19.8264    4.4613   56.2034 O   0  0  0  0  0  0  0  0  0  0  0  0
   19.6273   -5.2202   48.9908 C   0  0  1  0  0  0  0  0  0  0  0  0
   20.0401   -6.5339   48.2521 C   0  0  1  0  0  0  0  0  0  0  0  0
   18.9596   -6.8648   47.1815 C   0  0  2  0  0  0  0  0  0  0  0  0
   17.5590   -7.0444   47.8446 C   0  0  1  0  0  0  0  0  0  0  0  0
   17.1391   -5.7273   48.6019 C   0  0  0  0  0  0  0  0  0  0  0  0
   18.2384   -5.3974   49.6951 C   0  0  2  0  0  0  0  0  0  0  0  0
   16.5432   -7.3544   46.8007 N   0  0  0  0  0  0  0  0  0  0  0  0
   17.8345   -4.1621   50.4037 N   0  0  0  0  0  0  0  0  0  0  0  0
   21.3121   -6.3625   47.5996 O   0  0  0  0  0  0  0  0  0  0  0  0
   19.3543   -8.0622   46.5324 O   0  0  0  0  0  0  0  0  0  0  0  0
  1  2  1  0  0  0  0
  1 12  1  1  0  0  0
  1 13  1  0  0  0  0
  2  3  1  0  0  0  0
  2 10  1  1  0  0  0
  4  3  1  1  0  0  0
  4  5  1  0  0  0  0
  4 14  1  0  0  0  0
  5  6  1  0  0  0  0
  5 13  1  6  0  0  0
  6  7  1  0  0  0  0
  6 15  1  1  0  0  0
  7  8  1  0  0  0  0
  7 11  1  6  0  0  0
  8 14  1  0  0  0  0
  8 16  1  1  0  0  0
  9 11  1  0  0  0  0
 17 16  1  6  0  0  0
 17 18  1  0  0  0  0
 17 24  1  0  0  0  0
 18 19  1  0  0  0  0
 18 25  1  6  0  0  0
 19 20  1  0  0  0  0
 19 26  1  1  0  0  0
 20 21  1  0  0  0  0
 20 23  1  6  0  0  0
 21 22  1  1  0  0  0
 21 24  1  0  0  0  0
 22 27  1  0  0  0  0
 28 12  1  1  0  0  0
 28 29  1  0  0  0  0
 28 33  1  0  0  0  0
 29 30  1  0  0  0  0
 29 36  1  6  0  0  0
 30 31  1  0  0  0  0
 30 37  1  1  0  0  0
 31 32  1  0  0  0  0
 31 34  1  6  0  0  0
 32 33  1  0  0  0  0
 33 35  1  6  0  0  0
M  END
>  <CHROM.1>
-168.96521570,-69.13970667,-146.79194396,-149.12980379,62.49646584,107.84321381
19.76799400,-2.02102984,52.22619381,-1.57469163,-0.42502474,0.81263183

>  <Name>
2oe8_lig

>  <RI>
0

>  <Rbt.Current_Directory>
/home/itssahil/PROJECTS/Mol_Feturizer/New_Systems/rnas/2oe8

>  <Rbt.Executable>
rbdock ($Id: //depot/dev/client3/rdock/2013.1/src/exe/rbdock.cxx#4 $)

>  <Rbt.Library>
libRbt.so (2013.1, Build901 2013/11/27)

>  <Rbt.Parameter_File>
/export/apps/rDock/src/rDock_2013.1_src/data/scripts/dock_solv.prm

>  <Rbt.Receptor>
prm/pocket_docking_3.prm

>  <SCORE>
-14.908

>  <SCORE.INTER>
-14.6211

>  <SCORE.INTER.CONST>
1

>  <SCORE.INTER.POLAR>
-0.979796

>  <SCORE.INTER.ROT>
6

>  <SCORE.INTER.SOLV>
14.0982

>  <SCORE.INTER.VDW>
-18.7808

>  <SCORE.INTER.norm>
-0.395164

>  <SCORE.INTRA>
-0.286934

>  <SCORE.INTRA.DIHEDRAL>
-1.25464

>  <SCORE.INTRA.DIHEDRAL.0>
16.4056

>  <SCORE.INTRA.POLAR>
0

>  <SCORE.INTRA.POLAR.0>
0

>  <SCORE.INTRA.REPUL>
0

>  <SCORE.INTRA.REPUL.0>
0

>  <SCORE.INTRA.SOLV>
0.815996

>  <SCORE.INTRA.SOLV.lig_0>
-90.9627

>  <SCORE.INTRA.VDW>
-0.0676121

>  <SCORE.INTRA.VDW.0>
-3.28744

>  <SCORE.INTRA.norm>
-0.00775498

>  <SCORE.RESTR>
0

>  <SCORE.RESTR.CAVITY>
0

>  <SCORE.RESTR.norm>
0

>  <SCORE.SYSTEM>
0

>  <SCORE.SYSTEM.CONST>
0

>  <SCORE.SYSTEM.DIHEDRAL>
0

>  <SCORE.SYSTEM.SOLV>
0

>  <SCORE.SYSTEM.norm>
0

>  <SCORE.heavy>
37

>  <SCORE.norm>
-0.402919

>  <RMSD>
9.916

$$$$
2oe8_lig
 OpenBabel11021811463D
libRbt.so/2013.1/901 2013/11/27
 37 40  0  0  0  0  0  0  0  0999 V2000
   20.9259   -2.0548   51.7371 C   0  0  1  0  0  0  0  0  0  0  0  0
   19.6901   -1.1240   51.4374 C   0  0  1  0  0  0  0  0  0  0  0  0
   19.9789    0.2952   51.9696 C   0  0  0  0  0  0  0  0  0  0  0  0
   20.2150    0.1421   53.5047 C   0  0  1  0  0  0  0  0  0  0  0  0
   21.4658   -0.8259   53.8279 C   0  0  1  0  0  0  0  0  0  0  0  0
   21.6963   -0.9993   55.3578 C   0  0  1  0  0  0  0  0  0  0  0  0
   21.9295    0.4439   55.9658 C   0  0  1  0  0  0  0  0  0  0  0  0
   20.7116    1.3565   55.5864 C   0  0  2  0  0  0  0  0  0  0  0  0
   22.9144    1.4548   58.1804 C   0  0  0  0  0  0  0  0  0  0  0  0
   19.4223   -1.0646   49.9653 N   0  0  0  0  0  0  0  0  0  0  0  0
   22.1197    0.3824   57.4789 N   0  0  0  0  0  0  0  0  0  0  0  0
   22.1108   -1.5906   51.0781 O   0  0  0  0  0  0  0  0  0  0  0  0
   21.2150   -2.1304   53.1994 O   0  0  0  0  0  0  0  0  0  0  0  0
   20.4790    1.4405   54.1144 O   0  0  0  0  0  0  0  0  0  0  0  0
   20.5312   -1.6325   55.8892 O   0  0  0  0  0  0  0  0  0  0  0  0
   20.9418    2.6322   56.0624 O   0  0  0  0  0  0  0  0  0  0  0  0
   19.9286    3.5758   55.6751 C   0  0  2  0  0  0  0  0  0  0  0  0
   20.1577    4.9313   56.3862 C   0  0  1  0  0  0  0  0  0  0  0  0
   19.9569    4.8177   57.9286 C   0  0  2  0  0  0  0  0  0  0  0  0
   18.5159    4.3066   58.2240 C   0  0  1  0  0  0  0  0  0  0  0  0
   18.3809    2.8849   57.5357 C   0  0  1  0  0  0  0  0  0  0  0  0
   16.9950    2.2799   57.7410 C   0  0  0  0  0  0  0  0  0  0  0  0
   18.3214    4.1974   59.6980 N   0  0  0  0  0  0  0  0  0  0  0  0
   18.5937    3.0436   56.0535 O   0  0  0  0  0  0  0  0  0  0  0  0
   21.4861    5.3726   56.0464 O   0  0  0  0  0  0  0  0  0  0  0  0
   20.1342    6.0985   58.4965 O   0  0  0  0  0  0  0  0  0  0  0  0
   16.9338    1.0276   57.1109 O   0  0  0  0  0  0  0  0  0  0  0  0
   23.2052   -2.4769   51.1899 C   0  0  1  0  0  0  0  0  0  0  0  0
   22.9504   -3.6878   50.2357 C   0  0  1  0  0  0  0  0  0  0  0  0
   24.1346   -4.6886   50.3725 C   0  0  2  0  0  0  0  0  0  0  0  0
   25.4868   -4.0004   50.0097 C   0  0  1  0  0  0  0  0  0  0  0  0
   25.7471   -2.7703   50.9604 C   0  0  0  0  0  0  0  0  0  0  0  0
   24.5423   -1.7509   50.8135 C   0  0  2  0  0  0  0  0  0  0  0  0
   26.6032   -4.9754   50.1535 N   0  0  0  0  0  0  0  0  0  0  0  0
   24.7966   -0.5977   51.7061 N   0  0  0  0  0  0  0  0  0  0  0  0
   21.7258   -4.3562   50.5918 O   0  0  0  0  0  0  0  0  0  0  0  0
   23.8820   -5.7719   49.4930 O   0  0  0  0  0  0  0  0  0  0  0  0
  1  2  1  0  0  0  0
  1 12  1  6  0  0  0
  1 13  1  0  0  0  0
  2  3  1  0  0  0  0
  2 10  1  6  0  0  0
  4  3  1  6  0  0  0
  4  5  1  0  0  0  0
  4 14  1  0  0  0  0
  5  6  1  0  0  0  0
  5 13  1  1  0  0  0
  6  7  1  0  0  0  0
  6 15  1  1  0  0  0
  7  8  1  0  0  0  0
  7 11  1  1  0  0  0
  8 14  1  0  0  0  0
  8 16  1  6  0  0  0
  9 11  1  0  0  0  0
 17 16  1  1  0  0  0
 17 18  1  0  0  0  0
 17 24  1  0  0  0  0
 18 19  1  0  0  0  0
 18 25  1  1  0  0  0
 19 20  1  0  0  0  0
 19 26  1  1  0  0  0
 20 21  1  0  0  0  0
 20 23  1  1  0  0  0
 21 22  1  6  0  0  0
 21 24  1  0  0  0  0
 22 27  1  0  0  0  0
 28 12  1  6  0  0  0
 28 29  1  0  0  0  0
 28 33  1  0  0  0  0
 29 30  1  0  0  0  0
 29 36  1  1  0  0  0
 30 31  1  0  0  0  0
 30 37  1  6  0  0  0
 31 32  1  0  0  0  0
 31 34  1  1  0  0  0
 32 33  1  0  0  0  0
 33 35  1  1  0  0  0
M  END
>  <CHROM.1>
-173.02498584,153.62842070,175.39777834,172.95186642,179.91785205,74.68678941
21.29530367,0.12872654,54.12889068,1.16440770,0.00705070,-2.37026341

>  <Name>
2oe8_lig

>  <RI>
0

>  <Rbt.Current_Directory>
/home/itssahil/PROJECTS/Mol_Feturizer/New_Systems/rnas/2oe8

>  <Rbt.Executable>
rbdock ($Id: //depot/dev/client3/rdock/2013.1/src/exe/rbdock.cxx#4 $)

>  <Rbt.Library>
libRbt.so (2013.1, Build901 2013/11/27)

>  <Rbt.Parameter_File>
/export/apps/rDock/src/rDock_2013.1_src/data/scripts/dock_solv.prm

>  <Rbt.Receptor>
prm/pocket_docking_5.prm

>  <SCORE>
-22.3454

>  <SCORE.INTER>
-15.4039

>  <SCORE.INTER.CONST>
1

>  <SCORE.INTER.POLAR>
-1.98831

>  <SCORE.INTER.ROT>
6

>  <SCORE.INTER.SOLV>
10.9227

>  <SCORE.INTER.VDW>
-14.8824

>  <SCORE.INTER.norm>
-0.416321

>  <SCORE.INTRA>
-6.94152

>  <SCORE.INTRA.DIHEDRAL>
-14.2536

>  <SCORE.INTRA.DIHEDRAL.0>
16.4056

>  <SCORE.INTRA.POLAR>
0

>  <SCORE.INTRA.POLAR.0>
0

>  <SCORE.INTRA.REPUL>
0

>  <SCORE.INTRA.REPUL.0>
0

>  <SCORE.INTRA.SOLV>
-2.82803

>  <SCORE.INTRA.SOLV.lig_0>
-90.9627

>  <SCORE.INTRA.VDW>
1.59928

>  <SCORE.INTRA.VDW.0>
-3.28744

>  <SCORE.INTRA.norm>
-0.187609

>  <SCORE.RESTR>
0

>  <SCORE.RESTR.CAVITY>
0

>  <SCORE.RESTR.norm>
0

>  <SCORE.SYSTEM>
0

>  <SCORE.SYSTEM.CONST>
0

>  <SCORE.SYSTEM.DIHEDRAL>
0

>  <SCORE.SYSTEM.SOLV>
0

>  <SCORE.SYSTEM.norm>
0

>  <SCORE.heavy>
37

>  <SCORE.norm>
-0.60393

>  <RMSD>
9.924

$$$$
2oe8_lig
 OpenBabel11021811463D
libRbt.so/2013.1/901 2013/11/27
 37 40  0  0  0  0  0  0  0  0999 V2000
   22.7070   -2.4174   50.7977 C   0  0  1  0  0  0  0  0  0  0  0  0
   23.0533   -2.7336   52.3022 C   0  0  1  0  0  0  0  0  0  0  0  0
   21.8869   -2.2749   53.2019 C   0  0  0  0  0  0  0  0  0  0  0  0
   21.7352   -0.7398   52.9650 C   0  0  1  0  0  0  0  0  0  0  0  0
   21.4004   -0.3988   51.4230 C   0  0  1  0  0  0  0  0  0  0  0  0
   21.2664    1.1322   51.1742 C   0  0  1  0  0  0  0  0  0  0  0  0
   20.1229    1.6667   52.1302 C   0  0  1  0  0  0  0  0  0  0  0  0
   20.4713    1.2713   53.6074 C   0  0  2  0  0  0  0  0  0  0  0  0
   18.6929    3.8372   52.5052 C   0  0  0  0  0  0  0  0  0  0  0  0
   23.2871   -4.2007   52.4900 N   0  0  0  0  0  0  0  0  0  0  0  0
   19.9475    3.1765   51.9920 N   0  0  0  0  0  0  0  0  0  0  0  0
   21.5374   -3.1231   50.3639 O   0  0  0  0  0  0  0  0  0  0  0  0
   22.4681   -0.9598   50.5834 O   0  0  0  0  0  0  0  0  0  0  0  0
   20.6623   -0.1975   53.7910 O   0  0  0  0  0  0  0  0  0  0  0  0
   22.5367    1.7179   51.4643 O   0  0  0  0  0  0  0  0  0  0  0  0
   19.4451    1.6819   54.4353 O   0  0  0  0  0  0  0  0  0  0  0  0
   19.8327    1.7805   55.8162 C   0  0  2  0  0  0  0  0  0  0  0  0
   18.5970    2.0747   56.7007 C   0  0  1  0  0  0  0  0  0  0  0  0
   17.9955    3.4831   56.4060 C   0  0  2  0  0  0  0  0  0  0  0  0
   19.0851    4.5691   56.6480 C   0  0  1  0  0  0  0  0  0  0  0  0
   20.2803    4.2521   55.6559 C   0  0  1  0  0  0  0  0  0  0  0  0
   21.4285    5.2456   55.8086 C   0  0  0  0  0  0  0  0  0  0  0  0
   18.5124    5.9166   56.3671 N   0  0  0  0  0  0  0  0  0  0  0  0
   20.8188    2.8815   55.9706 O   0  0  0  0  0  0  0  0  0  0  0  0
   17.6432    1.0211   56.4657 O   0  0  0  0  0  0  0  0  0  0  0  0
   16.9082    3.6953   57.2818 O   0  0  0  0  0  0  0  0  0  0  0  0
   22.4707    4.8926   54.9378 O   0  0  0  0  0  0  0  0  0  0  0  0
   21.3546   -3.1091   48.9631 C   0  0  1  0  0  0  0  0  0  0  0  0
   21.6665   -4.5397   48.4173 C   0  0  1  0  0  0  0  0  0  0  0  0
   21.4994   -4.5306   46.8698 C   0  0  2  0  0  0  0  0  0  0  0  0
   20.0502   -4.1130   46.4711 C   0  0  1  0  0  0  0  0  0  0  0  0
   19.7225   -2.6749   47.0272 C   0  0  0  0  0  0  0  0  0  0  0  0
   19.8877   -2.6901   48.6035 C   0  0  2  0  0  0  0  0  0  0  0  0
   19.9175   -4.1066   44.9878 N   0  0  0  0  0  0  0  0  0  0  0  0
   19.5746   -1.3377   49.1176 N   0  0  0  0  0  0  0  0  0  0  0  0
   23.0178   -4.9157   48.7426 O   0  0  0  0  0  0  0  0  0  0  0  0
   21.7808   -5.8395   46.4022 O   0  0  0  0  0  0  0  0  0  0  0  0
  1  2  1  0  0  0  0
  1 12  1  1  0  0  0
  1 13  1  0  0  0  0
  2  3  1  0  0  0  0
  2 10  1  6  0  0  0
  4  3  1  6  0  0  0
  4  5  1  0  0  0  0
  4 14  1  0  0  0  0
  5  6  1  0  0  0  0
  5 13  1  6  0  0  0
  6  7  1  0  0  0  0
  6 15  1  1  0  0  0
  7  8  1  0  0  0  0
  7 11  1  1  0  0  0
  8 14  1  0  0  0  0
  8 16  1  1  0  0  0
  9 11  1  0  0  0  0
 17 16  1  6  0  0  0
 17 18  1  0  0  0  0
 17 24  1  0  0  0  0
 18 19  1  0  0  0  0
 18 25  1  6  0  0  0
 19 20  1  0  0  0  0
 19 26  1  1  0  0  0
 20 21  1  0  0  0  0
 20 23  1  6  0  0  0
 21 22  1  1  0  0  0
 21 24  1  0  0  0  0
 22 27  1  0  0  0  0
 28 12  1  1  0  0  0
 28 29  1  0  0  0  0
 28 33  1  0  0  0  0
 29 30  1  0  0  0  0
 29 36  1  6  0  0  0
 30 31  1  0  0  0  0
 30 37  1  1  0  0  0
 31 32  1  0  0  0  0
 31 34  1  6  0  0  0
 32 33  1  0  0  0  0
 33 35  1  6  0  0  0
M  END
>  <CHROM.1>
-166.83372740,163.21653159,-160.50561059,-173.08600808,178.21211232,107.98252620
20.63344150,0.00408242,52.16178879,-1.31556646,-0.77874996,0.97723615

>  <Name>
2oe8_lig

>  <RI>
0

>  <Rbt.Current_Directory>
/home/itssahil/PROJECTS/Mol_Feturizer/New_Systems/rnas/2oe8

>  <Rbt.Executable>
rbdock ($Id: //depot/dev/client3/rdock/2013.1/src/exe/rbdock.cxx#4 $)

>  <Rbt.Library>
libRbt.so (2013.1, Build901 2013/11/27)

>  <Rbt.Parameter_File>
/export/apps/rDock/src/rDock_2013.1_src/data/scripts/dock_solv.prm

>  <Rbt.Receptor>
prm/pocket_docking_7.prm

>  <SCORE>
-19.305

>  <SCORE.INTER>
-15.1384

>  <SCORE.INTER.CONST>
1

>  <SCORE.INTER.POLAR>
-1.98702

>  <SCORE.INTER.ROT>
6

>  <SCORE.INTER.SOLV>
15.6696

>  <SCORE.INTER.VDW>
-16.2921

>  <SCORE.INTER.norm>
-0.409147

>  <SCORE.INTRA>
-4.16655

>  <SCORE.INTRA.DIHEDRAL>
-6.85234

>  <SCORE.INTRA.DIHEDRAL.0>
16.4056

>  <SCORE.INTRA.POLAR>
0

>  <SCORE.INTRA.POLAR.0>
0

>  <SCORE.INTRA.REPUL>
0

>  <SCORE.INTRA.REPUL.0>
0

>  <SCORE.INTRA.SOLV>
-0.00322288

>  <SCORE.INTRA.SOLV.lig_0>
-90.9627

>  <SCORE.INTRA.VDW>
-0.738764

>  <SCORE.INTRA.VDW.0>
-3.28744

>  <SCORE.INTRA.norm>
-0.112609

>  <SCORE.RESTR>
0

>  <SCORE.RESTR.CAVITY>
0

>  <SCORE.RESTR.norm>
0

>  <SCORE.SYSTEM>
0

>  <SCORE.SYSTEM.CONST>
0

>  <SCORE.SYSTEM.DIHEDRAL>
0

>  <SCORE.SYSTEM.SOLV>
0

>  <SCORE.SYSTEM.norm>
0

>  <SCORE.heavy>
37

>  <SCORE.norm>
-0.521756

>  <RMSD>
9.924

$$$$
2oe8_lig
 OpenBabel11021811463D
libRbt.so/2013.1/901 2013/11/27
 37 40  0  0  0  0  0  0  0  0999 V2000
   19.5538   -2.5143   49.4702 C   0  0  1  0  0  0  0  0  0  0  0  0
   20.5118   -3.1652   50.5389 C   0  0  1  0  0  0  0  0  0  0  0  0
   19.9540   -2.9007   51.9530 C   0  0  0  0  0  0  0  0  0  0  0  0
   19.8966   -1.3492   52.1125 C   0  0  1  0  0  0  0  0  0  0  0  0
   18.9347   -0.6659   51.0108 C   0  0  1  0  0  0  0  0  0  0  0  0
   18.8869    0.8840   51.1509 C   0  0  1  0  0  0  0  0  0  0  0  0
   18.3843    1.2093   52.6167 C   0  0  1  0  0  0  0  0  0  0  0  0
   19.3220    0.4874   53.6459 C   0  0  2  0  0  0  0  0  0  0  0  0
   17.8030    3.2464   54.1688 C   0  0  0  0  0  0  0  0  0  0  0  0
   20.6270   -4.6407   50.3112 N   0  0  0  0  0  0  0  0  0  0  0  0
   18.3484    2.7144   52.8675 N   0  0  0  0  0  0  0  0  0  0  0  0
   18.2403   -3.0854   49.5188 O   0  0  0  0  0  0  0  0  0  0  0  0
   19.4208   -1.0420   49.6759 O   0  0  0  0  0  0  0  0  0  0  0  0
   19.3974   -0.9882   53.4345 O   0  0  0  0  0  0  0  0  0  0  0  0
   20.2086    1.3688   50.9082 O   0  0  0  0  0  0  0  0  0  0  0  0
   18.8488    0.7188   54.9225 O   0  0  0  0  0  0  0  0  0  0  0  0
   19.7356    0.2492   55.9521 C   0  0  2  0  0  0  0  0  0  0  0  0
   19.3623    0.8850   57.3130 C   0  0  1  0  0  0  0  0  0  0  0  0
   19.6057    2.4254   57.3191 C   0  0  2  0  0  0  0  0  0  0  0  0
   21.1027    2.7113   56.9989 C   0  0  1  0  0  0  0  0  0  0  0  0
   21.3909    2.1047   55.5629 C   0  0  1  0  0  0  0  0  0  0  0  0
   22.8424    2.3078   55.1376 C   0  0  0  0  0  0  0  0  0  0  0  0
   21.3381    4.1834   57.0045 N   0  0  0  0  0  0  0  0  0  0  0  0
   21.1313    0.6220   55.6037 O   0  0  0  0  0  0  0  0  0  0  0  0
   17.9845    0.5558   57.5744 O   0  0  0  0  0  0  0  0  0  0  0  0
   19.2898    2.9213   58.6031 O   0  0  0  0  0  0  0  0  0  0  0  0
   23.0928    3.6783   54.9702 O   0  0  0  0  0  0  0  0  0  0  0  0
   18.0470   -4.1403   48.5992 C   0  0  1  0  0  0  0  0  0  0  0  0
   17.2092   -5.2542   49.3054 C   0  0  1  0  0  0  0  0  0  0  0  0
   17.0154   -6.4376   48.3129 C   0  0  2  0  0  0  0  0  0  0  0  0
   16.2852   -5.9619   47.0190 C   0  0  1  0  0  0  0  0  0  0  0  0
   17.1180   -4.8297   46.3054 C   0  0  0  0  0  0  0  0  0  0  0  0
   17.3076   -3.6244   47.3171 C   0  0  2  0  0  0  0  0  0  0  0  0
   16.1168   -7.1091   46.0845 N   0  0  0  0  0  0  0  0  0  0  0  0
   18.0869   -2.5647   46.6380 N   0  0  0  0  0  0  0  0  0  0  0  0
   17.8971   -5.7307   50.4771 O   0  0  0  0  0  0  0  0  0  0  0  0
   16.2478   -7.4291   48.9751 O   0  0  0  0  0  0  0  0  0  0  0  0
  1  2  1  0  0  0  0
  1 12  1  1  0  0  0
  1 13  1  0  0  0  0
  2  3  1  0  0  0  0
  2 10  1  6  0  0  0
  4  3  1  1  0  0  0
  4  5  1  0  0  0  0
  4 14  1  0  0  0  0
  5  6  1  0  0  0  0
  5 13  1  6  0  0  0
  6  7  1  0  0  0  0
  6 15  1  1  0  0  0
  7  8  1  0  0  0  0
  7 11  1  1  0  0  0
  8 14  1  0  0  0  0
  8 16  1  1  0  0  0
  9 11  1  0  0  0  0
 17 16  1  6  0  0  0
 17 18  1  0  0  0  0
 17 24  1  0  0  0  0
 18 19  1  0  0  0  0
 18 25  1  6  0  0  0
 19 20  1  0  0  0  0
 19 26  1  1  0  0  0
 20 21  1  0  0  0  0
 20 23  1  6  0  0  0
 21 22  1  1  0  0  0
 21 24  1  0  0  0  0
 22 27  1  0  0  0  0
 28 12  1  1  0  0  0
 28 29  1  0  0  0  0
 28 33  1  0  0  0  0
 29 30  1  0  0  0  0
 29 36  1  1  0  0  0
 30 31  1  0  0  0  0
 30 37  1  1  0  0  0
 31 32  1  0  0  0  0
 31 34  1  6  0  0  0
 32 33  1  0  0  0  0
 33 35  1  6  0  0  0
M  END
>  <CHROM.1>
-94.58471317,175.54643096,-172.22361982,163.76698596,-65.84108859,139.91086876
19.10377704,-1.05660474,52.19548290,-2.16634624,1.10769298,1.36857115

>  <Name>
2oe8_lig

>  <RI>
0

>  <Rbt.Current_Directory>
/home/itssahil/PROJECTS/Mol_Feturizer/New_Systems/rnas/2oe8

>  <Rbt.Executable>
rbdock ($Id: //depot/dev/client3/rdock/2013.1/src/exe/rbdock.cxx#4 $)

>  <Rbt.Library>
libRbt.so (2013.1, Build901 2013/11/27)

>  <Rbt.Parameter_File>
/export/apps/rDock/src/rDock_2013.1_src/data/scripts/dock_solv.prm

>  <Rbt.Receptor>
prm/pocket_docking_6.prm

>  <SCORE>
-25.0825

>  <SCORE.INTER>
-24.0476

>  <SCORE.INTER.CONST>
1

>  <SCORE.INTER.POLAR>
-2.63963

>  <SCORE.INTER.ROT>
6

>  <SCORE.INTER.SOLV>
15.8659

>  <SCORE.INTER.VDW>
-20.1216

>  <SCORE.INTER.norm>
-0.649934

>  <SCORE.INTRA>
-1.03498

>  <SCORE.INTRA.DIHEDRAL>
-4.84978

>  <SCORE.INTRA.DIHEDRAL.0>
16.4056

>  <SCORE.INTRA.POLAR>
0

>  <SCORE.INTRA.POLAR.0>
0

>  <SCORE.INTRA.REPUL>
0

>  <SCORE.INTRA.REPUL.0>
0

>  <SCORE.INTRA.SOLV>
0.981363

>  <SCORE.INTRA.SOLV.lig_0>
-90.9627

>  <SCORE.INTRA.VDW>
0.899231

>  <SCORE.INTRA.VDW.0>
-3.28744

>  <SCORE.INTRA.norm>
-0.0279723

>  <SCORE.RESTR>
0

>  <SCORE.RESTR.CAVITY>
0

>  <SCORE.RESTR.norm>
0

>  <SCORE.SYSTEM>
0

>  <SCORE.SYSTEM.CONST>
0

>  <SCORE.SYSTEM.DIHEDRAL>
0

>  <SCORE.SYSTEM.SOLV>
0

>  <SCORE.SYSTEM.norm>
0

>  <SCORE.heavy>
37

>  <SCORE.norm>
-0.677907

>  <RMSD>
9.932

$$$$
2oe8_lig
 OpenBabel11021811463D
libRbt.so/2013.1/901 2013/11/27
 37 40  0  0  0  0  0  0  0  0999 V2000
   21.8140   -2.8720   49.8535 C   0  0  1  0  0  0  0  0  0  0  0  0
   23.0260   -3.2147   50.8006 C   0  0  1  0  0  0  0  0  0  0  0  0
   22.6163   -2.9609   52.2664 C   0  0  0  0  0  0  0  0  0  0  0  0
   22.2370   -1.4495   52.3543 C   0  0  1  0  0  0  0  0  0  0  0  0
   21.0095   -1.0789   51.3735 C   0  0  1  0  0  0  0  0  0  0  0  0
   20.6372    0.4314   51.4410 C   0  0  1  0  0  0  0  0  0  0  0  0
   20.2741    0.7604   52.9466 C   0  0  1  0  0  0  0  0  0  0  0  0
   21.4771    0.3410   53.8613 C   0  0  2  0  0  0  0  0  0  0  0  0
   18.8040    2.6478   54.0297 C   0  0  0  0  0  0  0  0  0  0  0  0
   23.4353   -4.6453   50.6330 N   0  0  0  0  0  0  0  0  0  0  0  0
   19.9380    2.2386   53.1239 N   0  0  0  0  0  0  0  0  0  0  0  0
   20.6788   -3.7040   50.1239 O   0  0  0  0  0  0  0  0  0  0  0  0
   21.3853   -1.4502   50.0022 O   0  0  0  0  0  0  0  0  0  0  0  0
   21.8501   -1.0968   53.7156 O   0  0  0  0  0  0  0  0  0  0  0  0
   21.7736    1.1652   50.9819 O   0  0  0  0  0  0  0  0  0  0  0  0
   21.1383    0.5695   55.1804 O   0  0  0  0  0  0  0  0  0  0  0  0
   22.1651    0.1789   56.1078 C   0  0  2  0  0  0  0  0  0  0  0  0
   21.5782   -0.7492   57.1986 C   0  0  1  0  0  0  0  0  0  0  0  0
   20.5547   -0.0010   58.1067 C   0  0  2  0  0  0  0  0  0  0  0  0
   21.2552    1.2183   58.7758 C   0  0  1  0  0  0  0  0  0  0  0  0
   21.7579    2.1609   57.6046 C   0  0  1  0  0  0  0  0  0  0  0  0
   22.4823    3.3949   58.1352 C   0  0  0  0  0  0  0  0  0  0  0  0
   20.2786    1.9351   59.6448 N   0  0  0  0  0  0  0  0  0  0  0  0
   22.7318    1.3930   56.7506 O   0  0  0  0  0  0  0  0  0  0  0  0
   20.9807   -1.8741   56.5259 O   0  0  0  0  0  0  0  0  0  0  0  0
   20.1036   -0.8965   59.1012 O   0  0  0  0  0  0  0  0  0  0  0  0
   22.5978    4.3458   57.1097 O   0  0  0  0  0  0  0  0  0  0  0  0
   19.8798   -3.9588   48.9871 C   0  0  1  0  0  0  0  0  0  0  0  0
   19.2609   -5.3857   49.1372 C   0  0  1  0  0  0  0  0  0  0  0  0
   18.4024   -5.6925   47.8755 C   0  0  2  0  0  0  0  0  0  0  0  0
   17.2678   -4.6352   47.7066 C   0  0  1  0  0  0  0  0  0  0  0  0
   17.8826   -3.1906   47.5656 C   0  0  0  0  0  0  0  0  0  0  0  0
   18.7506   -2.8798   48.8548 C   0  0  2  0  0  0  0  0  0  0  0  0
   16.4653   -4.9468   46.4915 N   0  0  0  0  0  0  0  0  0  0  0  0
   19.3207   -1.5208   48.7160 N   0  0  0  0  0  0  0  0  0  0  0  0
   20.3024   -6.3736   49.2492 O   0  0  0  0  0  0  0  0  0  0  0  0
   17.8481   -6.9873   48.0405 O   0  0  0  0  0  0  0  0  0  0  0  0
  1  2  1  0  0  0  0
  1 12  1  1  0  0  0
  1 13  1  0  0  0  0
  2  3  1  0  0  0  0
  2 10  1  1  0  0  0
  4  3  1  1  0  0  0
  4  5  1  0  0  0  0
  4 14  1  0  0  0  0
  5  6  1  0  0  0  0
  5 13  1  6  0  0  0
  6  7  1  0  0  0  0
  6 15  1  1  0  0  0
  7  8  1  0  0  0  0
  7 11  1  6  0  0  0
  8 14  1  0  0  0  0
  8 16  1  1  0  0  0
  9 11  1  0  0  0  0
 17 16  1  6  0  0  0
 17 18  1  0  0  0  0
 17 24  1  0  0  0  0
 18 19  1  0  0  0  0
 18 25  1  6  0  0  0
 19 20  1  0  0  0  0
 19 26  1  1  0  0  0
 20 21  1  0  0  0  0
 20 23  1  1  0  0  0
 21 22  1  1  0  0  0
 21 24  1  0  0  0  0
 22 27  1  0  0  0  0
 28 12  1  1  0  0  0
 28 29  1  0  0  0  0
 28 33  1  0  0  0  0
 29 30  1  0  0  0  0
 29 36  1  6  0  0  0
 30 31  1  0  0  0  0
 30 37  1  1  0  0  0
 31 32  1  0  0  0  0
 31 34  1  6  0  0  0
 32 33  1  0  0  0  0
 33 35  1  6  0  0  0
M  END
>  <CHROM.1>
-149.20983197,140.05483475,178.27389748,-127.95710024,-164.93241965,147.85626610
20.65960672,-1.30388199,52.74761826,2.45175916,1.29626606,-3.03466491

>  <Name>
2oe8_lig

>  <RI>
0

>  <Rbt.Current_Directory>
/home/itssahil/PROJECTS/Mol_Feturizer/New_Systems/rnas/2oe8

>  <Rbt.Executable>
rbdock ($Id: //depot/dev/client3/rdock/2013.1/src/exe/rbdock.cxx#4 $)

>  <Rbt.Library>
libRbt.so (2013.1, Build901 2013/11/27)

>  <Rbt.Parameter_File>
/export/apps/rDock/src/rDock_2013.1_src/data/scripts/dock_solv.prm

>  <Rbt.Receptor>
prm/pocket_docking_4.prm

>  <SCORE>
-9.51938

>  <SCORE.INTER>
-9.97946

>  <SCORE.INTER.CONST>
1

>  <SCORE.INTER.POLAR>
-0.704224

>  <SCORE.INTER.ROT>
6

>  <SCORE.INTER.SOLV>
10.9036

>  <SCORE.INTER.VDW>
-15.5401

>  <SCORE.INTER.norm>
-0.269715

>  <SCORE.INTRA>
0.453341

>  <SCORE.INTRA.DIHEDRAL>
-0.035069

>  <SCORE.INTRA.DIHEDRAL.0>
16.4056

>  <SCORE.INTRA.POLAR>
0

>  <SCORE.INTRA.POLAR.0>
0

>  <SCORE.INTRA.REPUL>
0

>  <SCORE.INTRA.REPUL.0>
0

>  <SCORE.INTRA.SOLV>
-0.0760982

>  <SCORE.INTRA.SOLV.lig_0>
-90.9627

>  <SCORE.INTRA.VDW>
0.508924

>  <SCORE.INTRA.VDW.0>
-3.28744

>  <SCORE.INTRA.norm>
0.0122524

>  <SCORE.RESTR>
0.00673922

>  <SCORE.RESTR.CAVITY>
0.00673922

>  <SCORE.RESTR.norm>
0.000182141

>  <SCORE.SYSTEM>
0

>  <SCORE.SYSTEM.CONST>
0

>  <SCORE.SYSTEM.DIHEDRAL>
0

>  <SCORE.SYSTEM.SOLV>
0

>  <SCORE.SYSTEM.norm>
0

>  <SCORE.heavy>
37

>  <SCORE.norm>
-0.257281

>  <RMSD>
9.936

$$$$
2oe8_lig
 OpenBabel11021811463D
libRbt.so/2013.1/901 2013/11/27
 37 40  0  0  0  0  0  0  0  0999 V2000
   21.7069   -3.1332   51.0381 C   0  0  1  0  0  0  0  0  0  0  0  0
   22.7155   -2.9956   52.2412 C   0  0  1  0  0  0  0  0  0  0  0  0
   21.9297   -2.6936   53.5342 C   0  0  0  0  0  0  0  0  0  0  0  0
   21.1685   -1.3559   53.2759 C   0  0  1  0  0  0  0  0  0  0  0  0
   20.1460   -1.4755   52.0323 C   0  0  1  0  0  0  0  0  0  0  0  0
   19.3964   -0.1392   51.7557 C   0  0  1  0  0  0  0  0  0  0  0  0
   18.6261    0.2524   53.0825 C   0  0  1  0  0  0  0  0  0  0  0  0
   19.6532    0.3106   54.2664 C   0  0  2  0  0  0  0  0  0  0  0  0
   18.6398    2.8783   53.1151 C   0  0  0  0  0  0  0  0  0  0  0  0
   23.5025   -4.2577   52.4136 N   0  0  0  0  0  0  0  0  0  0  0  0
   17.8935    1.5819   52.9245 N   0  0  0  0  0  0  0  0  0  0  0  0
   20.7902   -4.2167   51.2369 O   0  0  0  0  0  0  0  0  0  0  0  0
   20.9082   -1.8872   50.8453 O   0  0  0  0  0  0  0  0  0  0  0  0
   20.4030   -0.9661   54.4545 O   0  0  0  0  0  0  0  0  0  0  0  0
   20.3826    0.8284   51.3927 O   0  0  0  0  0  0  0  0  0  0  0  0
   18.9740    0.5909   55.4357 O   0  0  0  0  0  0  0  0  0  0  0  0
   19.8430    0.8963   56.5395 C   0  0  2  0  0  0  0  0  0  0  0  0
   19.2127    0.4138   57.8682 C   0  0  1  0  0  0  0  0  0  0  0  0
   17.9157    1.2068   58.2159 C   0  0  2  0  0  0  0  0  0  0  0  0
   18.2510    2.7244   58.3144 C   0  0  1  0  0  0  0  0  0  0  0  0
   18.8140    3.1648   56.8994 C   0  0  1  0  0  0  0  0  0  0  0  0
   19.1978    4.6416   56.8716 C   0  0  0  0  0  0  0  0  0  0  0  0
   17.0125    3.4848   58.6470 N   0  0  0  0  0  0  0  0  0  0  0  0
   20.0554    2.3657   56.6034 O   0  0  0  0  0  0  0  0  0  0  0  0
   18.9616   -0.9982   57.7336 O   0  0  0  0  0  0  0  0  0  0  0  0
   17.4303    0.7442   59.4588 O   0  0  0  0  0  0  0  0  0  0  0  0
   19.7516    4.9569   55.6214 O   0  0  0  0  0  0  0  0  0  0  0  0
   20.0934   -4.5910   50.0663 C   0  0  1  0  0  0  0  0  0  0  0  0
   20.6917   -5.9407   49.5544 C   0  0  1  0  0  0  0  0  0  0  0  0
   19.9537   -6.3492   48.2462 C   0  0  2  0  0  0  0  0  0  0  0  0
   18.4227   -6.5078   48.4998 C   0  0  1  0  0  0  0  0  0  0  0  0
   17.8122   -5.1536   49.0274 C   0  0  0  0  0  0  0  0  0  0  0  0
   18.5619   -4.7445   50.3626 C   0  0  2  0  0  0  0  0  0  0  0  0
   17.7393   -6.8930   47.2340 N   0  0  0  0  0  0  0  0  0  0  0  0
   17.9803   -3.4747   50.8529 N   0  0  0  0  0  0  0  0  0  0  0  0
   22.0963   -5.7915   49.2754 O   0  0  0  0  0  0  0  0  0  0  0  0
   20.5100   -7.5778   47.8079 O   0  0  0  0  0  0  0  0  0  0  0  0
  1  2  1  0  0  0  0
  1 12  1  1  0  0  0
  1 13  1  0  0  0  0
  2  3  1  0  0  0  0
  2 10  1  1  0  0  0
  4  3  1  1  0  0  0
  4  5  1  0  0  0  0
  4 14  1  0  0  0  0
  5  6  1  0  0  0  0
  5 13  1  6  0  0  0
  6  7  1  0  0  0  0
  6 15  1  1  0  0  0
  7  8  1  0  0  0  0
  7 11  1  6  0  0  0
  8 14  1  0  0  0  0
  8 16  1  1  0  0  0
  9 11  1  0  0  0  0
 17 16  1  6  0  0  0
 17 18  1  0  0  0  0
 17 24  1  0  0  0  0
 18 19  1  0  0  0  0
 18 25  1  6  0  0  0
 19 20  1  0  0  0  0
 19 26  1  1  0  0  0
 20 21  1  0  0  0  0
 20 23  1  6  0  0  0
 21 22  1  1  0  0  0
 21 24  1  0  0  0  0
 22 27  1  0  0  0  0
 28 12  1  1  0  0  0
 28 29  1  0  0  0  0
 28 33  1  0  0  0  0
 29 30  1  0  0  0  0
 29 36  1  6  0  0  0
 30 31  1  0  0  0  0
 30 37  1  1  0  0  0
 31 32  1  0  0  0  0
 31 34  1  6  0  0  0
 32 33  1  0  0  0  0
 33 35  1  6  0  0  0
M  END
>  <CHROM.1>
-165.24226493,-82.69900983,-169.77655538,-147.52241731,176.98840374,105.85405465
19.66402325,-1.32469014,53.17738979,-1.35146643,-0.98527752,0.96081027

>  <Name>
2oe8_lig

>  <RI>
0

>  <Rbt.Current_Directory>
/home/itssahil/PROJECTS/Mol_Feturizer/New_Systems/rnas/2oe8

>  <Rbt.Executable>
rbdock ($Id: //depot/dev/client3/rdock/2013.1/src/exe/rbdock.cxx#4 $)

>  <Rbt.Library>
libRbt.so (2013.1, Build901 2013/11/27)

>  <Rbt.Parameter_File>
/export/apps/rDock/src/rDock_2013.1_src/data/scripts/dock_solv.prm

>  <Rbt.Receptor>
prm/pocket_docking_5.prm

>  <SCORE>
-17.0916

>  <SCORE.INTER>
-15.0902

>  <SCORE.INTER.CONST>
1

>  <SCORE.INTER.POLAR>
-1.59762

>  <SCORE.INTER.ROT>
6

>  <SCORE.INTER.SOLV>
18.5206

>  <SCORE.INTER.VDW>
-18.5083

>  <SCORE.INTER.norm>
-0.407844

>  <SCORE.INTRA>
-2.0014

>  <SCORE.INTRA.DIHEDRAL>
-4.09639

>  <SCORE.INTRA.DIHEDRAL.0>
16.4056

>  <SCORE.INTRA.POLAR>
0

>  <SCORE.INTRA.POLAR.0>
0

>  <SCORE.INTRA.REPUL>
0

>  <SCORE.INTRA.REPUL.0>
0

>  <SCORE.INTRA.SOLV>
-0.408559

>  <SCORE.INTRA.SOLV.lig_0>
-90.9627

>  <SCORE.INTRA.VDW>
0.251072

>  <SCORE.INTRA.VDW.0>
-3.28744

>  <SCORE.INTRA.norm>
-0.0540919

>  <SCORE.RESTR>
0

>  <SCORE.RESTR.CAVITY>
0

>  <SCORE.RESTR.norm>
0

>  <SCORE.SYSTEM>
0

>  <SCORE.SYSTEM.CONST>
0

>  <SCORE.SYSTEM.DIHEDRAL>
0

>  <SCORE.SYSTEM.SOLV>
0

>  <SCORE.SYSTEM.norm>
0

>  <SCORE.heavy>
37

>  <SCORE.norm>
-0.461936

>  <RMSD>
9.938

$$$$
2oe8_lig
 OpenBabel11021811463D
libRbt.so/2013.1/901 2013/11/27
 37 40  0  0  0  0  0  0  0  0999 V2000
   21.8129   -2.9402   49.1743 C   0  0  1  0  0  0  0  0  0  0  0  0
   22.9880   -3.4380   50.0989 C   0  0  1  0  0  0  0  0  0  0  0  0
   22.4884   -3.5277   51.5559 C   0  0  0  0  0  0  0  0  0  0  0  0
   22.0305   -2.0876   51.9460 C   0  0  1  0  0  0  0  0  0  0  0  0
   20.8404   -1.5557   50.9938 C   0  0  1  0  0  0  0  0  0  0  0  0
   20.3906   -0.1119   51.3642 C   0  0  1  0  0  0  0  0  0  0  0  0
   19.9316   -0.1354   52.8794 C   0  0  1  0  0  0  0  0  0  0  0  0
   21.1033   -0.7012   53.7551 C   0  0  2  0  0  0  0  0  0  0  0  0
   18.4580    2.0196   52.5946 C   0  0  0  0  0  0  0  0  0  0  0  0
   23.4760   -4.7808   49.6505 N   0  0  0  0  0  0  0  0  0  0  0  0
   19.5137    1.2543   53.3521 N   0  0  0  0  0  0  0  0  0  0  0  0
   20.7075   -3.8523   49.1854 O   0  0  0  0  0  0  0  0  0  0  0  0
   21.3070   -1.6024   49.6011 O   0  0  0  0  0  0  0  0  0  0  0  0
   21.5544   -2.0572   53.3243 O   0  0  0  0  0  0  0  0  0  0  0  0
   21.5122    0.7460   51.1481 O   0  0  0  0  0  0  0  0  0  0  0  0
   20.6835   -0.7809   55.0683 O   0  0  0  0  0  0  0  0  0  0  0  0
   21.1330    0.3191   55.8774 C   0  0  2  0  0  0  0  0  0  0  0  0
   21.2667   -0.1211   57.3552 C   0  0  1  0  0  0  0  0  0  0  0  0
   19.8829   -0.4726   57.9826 C   0  0  2  0  0  0  0  0  0  0  0  0
   18.9445    0.7664   57.8867 C   0  0  1  0  0  0  0  0  0  0  0  0
   18.7899    1.1095   56.3467 C   0  0  1  0  0  0  0  0  0  0  0  0
   17.8980    2.3266   56.1190 C   0  0  0  0  0  0  0  0  0  0  0  0
   17.6208    0.4329   58.4861 N   0  0  0  0  0  0  0  0  0  0  0  0
   20.1496    1.4294   55.7842 O   0  0  0  0  0  0  0  0  0  0  0  0
   22.1731   -1.2402   57.3870 O   0  0  0  0  0  0  0  0  0  0  0  0
   20.0824   -0.8157   59.3379 O   0  0  0  0  0  0  0  0  0  0  0  0
   18.5491    3.4774   56.5889 O   0  0  0  0  0  0  0  0  0  0  0  0
   19.7647   -3.6120   48.1612 C   0  0  1  0  0  0  0  0  0  0  0  0
   20.3420   -4.1805   46.8251 C   0  0  1  0  0  0  0  0  0  0  0  0
   19.3263   -3.8943   45.6809 C   0  0  2  0  0  0  0  0  0  0  0  0
   17.9459   -4.5531   45.9873 C   0  0  1  0  0  0  0  0  0  0  0  0
   17.3606   -3.9936   47.3398 C   0  0  0  0  0  0  0  0  0  0  0  0
   18.3948   -4.2926   48.5031 C   0  0  2  0  0  0  0  0  0  0  0  0
   16.9913   -4.2607   44.8823 N   0  0  0  0  0  0  0  0  0  0  0  0
   17.8360   -3.7677   49.7693 N   0  0  0  0  0  0  0  0  0  0  0  0
   21.5956   -3.5454   46.5114 O   0  0  0  0  0  0  0  0  0  0  0  0
   19.8705   -4.4255   44.4839 O   0  0  0  0  0  0  0  0  0  0  0  0
  1  2  1  0  0  0  0
  1 12  1  1  0  0  0
  1 13  1  0  0  0  0
  2  3  1  0  0  0  0
  2 10  1  6  0  0  0
  4  3  1  6  0  0  0
  4  5  1  0  0  0  0
  4 14  1  0  0  0  0
  5  6  1  0  0  0  0
  5 13  1  6  0  0  0
  6  7  1  0  0  0  0
  6 15  1  1  0  0  0
  7  8  1  0  0  0  0
  7 11  1  1  0  0  0
  8 14  1  0  0  0  0
  8 16  1  1  0  0  0
  9 11  1  0  0  0  0
 17 16  1  6  0  0  0
 17 18  1  0  0  0  0
 17 24  1  0  0  0  0
 18 19  1  0  0  0  0
 18 25  1  6  0  0  0
 19 20  1  0  0  0  0
 19 26  1  1  0  0  0
 20 21  1  0  0  0  0
 20 23  1  6  0  0  0
 21 22  1  1  0  0  0
 21 24  1  0  0  0  0
 22 27  1  0  0  0  0
 28 12  1  1  0  0  0
 28 29  1  0  0  0  0
 28 33  1  0  0  0  0
 29 30  1  0  0  0  0
 29 36  1  6  0  0  0
 30 31  1  0  0  0  0
 30 37  1  6  0  0  0
 31 32  1  0  0  0  0
 31 34  1  6  0  0  0
 32 33  1  0  0  0  0
 33 35  1  1  0  0  0
M  END
>  <CHROM.1>
-166.74236596,54.80517052,-99.49396728,-152.04203290,68.69236780,77.74064549
20.14472706,-1.50673487,52.00449639,-1.56716625,-0.49212938,1.13382469

>  <Name>
2oe8_lig

>  <RI>
0

>  <Rbt.Current_Directory>
/home/itssahil/PROJECTS/Mol_Feturizer/New_Systems/rnas/2oe8

>  <Rbt.Executable>
rbdock ($Id: //depot/dev/client3/rdock/2013.1/src/exe/rbdock.cxx#4 $)

>  <Rbt.Library>
libRbt.so (2013.1, Build901 2013/11/27)

>  <Rbt.Parameter_File>
/export/apps/rDock/src/rDock_2013.1_src/data/scripts/dock_solv.prm

>  <Rbt.Receptor>
prm/pocket_docking_2.prm

>  <SCORE>
-12.5812

>  <SCORE.INTER>
-13.3737

>  <SCORE.INTER.CONST>
1

>  <SCORE.INTER.POLAR>
-1.52402

>  <SCORE.INTER.ROT>
6

>  <SCORE.INTER.SOLV>
15.1056

>  <SCORE.INTER.VDW>
-16.4709

>  <SCORE.INTER.norm>
-0.36145

>  <SCORE.INTRA>
-1.88081

>  <SCORE.INTRA.DIHEDRAL>
-5.29692

>  <SCORE.INTRA.DIHEDRAL.0>
16.4056

>  <SCORE.INTRA.POLAR>
0

>  <SCORE.INTRA.POLAR.0>
0

>  <SCORE.INTRA.REPUL>
0

>  <SCORE.INTRA.REPUL.0>
0

>  <SCORE.INTRA.SOLV>
-0.0556252

>  <SCORE.INTRA.SOLV.lig_0>
-90.9627

>  <SCORE.INTRA.VDW>
0.795463

>  <SCORE.INTRA.VDW.0>
-3.28744

>  <SCORE.INTRA.norm>
-0.0508328

>  <SCORE.RESTR>
2.67329

>  <SCORE.RESTR.CAVITY>
2.67329

>  <SCORE.RESTR.norm>
0.0722512

>  <SCORE.SYSTEM>
0

>  <SCORE.SYSTEM.CONST>
0

>  <SCORE.SYSTEM.DIHEDRAL>
0

>  <SCORE.SYSTEM.SOLV>
0

>  <SCORE.SYSTEM.norm>
0

>  <SCORE.heavy>
37

>  <SCORE.norm>
-0.340032

>  <RMSD>
9.941

$$$$
2oe8_lig
 OpenBabel11021811463D
libRbt.so/2013.1/901 2013/11/27
 37 40  0  0  0  0  0  0  0  0999 V2000
   21.5020   -3.3438   49.7781 C   0  0  1  0  0  0  0  0  0  0  0  0
   22.6638   -3.2755   50.8407 C   0  0  1  0  0  0  0  0  0  0  0  0
   22.0607   -3.0491   52.2428 C   0  0  0  0  0  0  0  0  0  0  0  0
   21.2816   -1.6990   52.1660 C   0  0  1  0  0  0  0  0  0  0  0  0
   20.1008   -1.7469   51.0663 C   0  0  1  0  0  0  0  0  0  0  0  0
   19.3307   -0.3973   50.9700 C   0  0  1  0  0  0  0  0  0  0  0  0
   18.7482   -0.0833   52.4084 C   0  0  1  0  0  0  0  0  0  0  0  0
   19.9252   -0.0931   53.4450 C   0  0  2  0  0  0  0  0  0  0  0  0
   18.7916    2.5425   52.3915 C   0  0  0  0  0  0  0  0  0  0  0  0
   23.4575   -4.5452   50.8332 N   0  0  0  0  0  0  0  0  0  0  0  0
   18.0108    1.2529   52.4267 N   0  0  0  0  0  0  0  0  0  0  0  0
   20.6122   -4.4374   50.0358 O   0  0  0  0  0  0  0  0  0  0  0  0
   20.6938   -2.0891   49.7661 O   0  0  0  0  0  0  0  0  0  0  0  0
   20.6840   -1.3783   53.4572 O   0  0  0  0  0  0  0  0  0  0  0  0
   20.2664    0.5902   50.5338 O   0  0  0  0  0  0  0  0  0  0  0  0
   19.4110    0.1189   54.7090 O   0  0  0  0  0  0  0  0  0  0  0  0
   20.2018    1.0211   55.5013 C   0  0  2  0  0  0  0  0  0  0  0  0
   21.3986    0.2712   56.1346 C   0  0  1  0  0  0  0  0  0  0  0  0
   20.9311   -0.7901   57.1773 C   0  0  2  0  0  0  0  0  0  0  0  0
   20.1028   -0.0862   58.2925 C   0  0  1  0  0  0  0  0  0  0  0  0
   18.8559    0.5891   57.5837 C   0  0  1  0  0  0  0  0  0  0  0  0
   17.9668    1.3316   58.5773 C   0  0  0  0  0  0  0  0  0  0  0  0
   19.6550   -1.0989   59.2908 N   0  0  0  0  0  0  0  0  0  0  0  0
   19.3564    1.5945   56.5806 O   0  0  0  0  0  0  0  0  0  0  0  0
   22.1475   -0.3242   55.0578 O   0  0  0  0  0  0  0  0  0  0  0  0
   22.0759   -1.3935   57.7427 O   0  0  0  0  0  0  0  0  0  0  0  0
   18.6974    2.3720   59.1713 O   0  0  0  0  0  0  0  0  0  0  0  0
   19.7635   -4.7451   48.9492 C   0  0  1  0  0  0  0  0  0  0  0  0
   20.4969   -5.7800   48.0367 C   0  0  1  0  0  0  0  0  0  0  0  0
   19.5852   -6.1044   46.8175 C   0  0  2  0  0  0  0  0  0  0  0  0
   18.2163   -6.6859   47.2882 C   0  0  1  0  0  0  0  0  0  0  0  0
   17.4738   -5.6527   48.2188 C   0  0  0  0  0  0  0  0  0  0  0  0
   18.4027   -5.3299   49.4619 C   0  0  2  0  0  0  0  0  0  0  0  0
   17.3612   -6.9825   46.1056 N   0  0  0  0  0  0  0  0  0  0  0  0
   17.6967   -4.3626   50.3320 N   0  0  0  0  0  0  0  0  0  0  0  0
   21.7417   -5.2342   47.5614 O   0  0  0  0  0  0  0  0  0  0  0  0
   20.2701   -7.0488   46.0113 O   0  0  0  0  0  0  0  0  0  0  0  0
  1  2  1  0  0  0  0
  1 12  1  1  0  0  0
  1 13  1  0  0  0  0
  2  3  1  0  0  0  0
  2 10  1  1  0  0  0
  4  3  1  1  0  0  0
  4  5  1  0  0  0  0
  4 14  1  0  0  0  0
  5  6  1  0  0  0  0
  5 13  1  6  0  0  0
  6  7  1  0  0  0  0
  6 15  1  1  0  0  0
  7  8  1  0  0  0  0
  7 11  1  6  0  0  0
  8 14  1  0  0  0  0
  8 16  1  1  0  0  0
  9 11  1  0  0  0  0
 17 16  1  1  0  0  0
 17 18  1  0  0  0  0
 17 24  1  0  0  0  0
 18 19  1  0  0  0  0
 18 25  1  6  0  0  0
 19 20  1  0  0  0  0
 19 26  1  1  0  0  0
 20 21  1  0  0  0  0
 20 23  1  1  0  0  0
 21 22  1  1  0  0  0
 21 24  1  0  0  0  0
 22 27  1  0  0  0  0
 28 12  1  1  0  0  0
 28 29  1  0  0  0  0
 28 33  1  0  0  0  0
 29 30  1  0  0  0  0
 29 36  1  6  0  0  0
 30 31  1  0  0  0  0
 30 37  1  6  0  0  0
 31 32  1  0  0  0  0
 31 34  1  6  0  0  0
 32 33  1  0  0  0  0
 33 35  1  1  0  0  0
M  END
>  <CHROM.1>
-165.14640010,-74.01133312,-137.90730222,-81.65799171,62.21825346,88.95420047
20.01566821,-2.02033496,52.37625418,-1.57935617,-0.64948321,0.97047762

>  <Name>
2oe8_lig

>  <RI>
0

>  <Rbt.Current_Directory>
/home/itssahil/PROJECTS/Mol_Feturizer/New_Systems/rnas/2oe8

>  <Rbt.Executable>
rbdock ($Id: //depot/dev/client3/rdock/2013.1/src/exe/rbdock.cxx#4 $)

>  <Rbt.Library>
libRbt.so (2013.1, Build901 2013/11/27)

>  <Rbt.Parameter_File>
/export/apps/rDock/src/rDock_2013.1_src/data/scripts/dock_solv.prm

>  <Rbt.Receptor>
prm/pocket_docking_3.prm

>  <SCORE>
-13.7407

>  <SCORE.INTER>
-13.4611

>  <SCORE.INTER.CONST>
1

>  <SCORE.INTER.POLAR>
-1.25054

>  <SCORE.INTER.ROT>
6

>  <SCORE.INTER.SOLV>
19.8304

>  <SCORE.INTER.VDW>
-19.0157

>  <SCORE.INTER.norm>
-0.363814

>  <SCORE.INTRA>
-0.279624

>  <SCORE.INTRA.DIHEDRAL>
-3.98822

>  <SCORE.INTRA.DIHEDRAL.0>
16.4056

>  <SCORE.INTRA.POLAR>
0

>  <SCORE.INTRA.POLAR.0>
0

>  <SCORE.INTRA.REPUL>
0

>  <SCORE.INTRA.REPUL.0>
0

>  <SCORE.INTRA.SOLV>
-0.340735

>  <SCORE.INTRA.SOLV.lig_0>
-90.9627

>  <SCORE.INTRA.VDW>
1.88485

>  <SCORE.INTRA.VDW.0>
-3.28744

>  <SCORE.INTRA.norm>
-0.00755741

>  <SCORE.RESTR>
0

>  <SCORE.RESTR.CAVITY>
0

>  <SCORE.RESTR.norm>
0

>  <SCORE.SYSTEM>
0

>  <SCORE.SYSTEM.CONST>
0

>  <SCORE.SYSTEM.DIHEDRAL>
0

>  <SCORE.SYSTEM.SOLV>
0

>  <SCORE.SYSTEM.norm>
0

>  <SCORE.heavy>
37

>  <SCORE.norm>
-0.371371

>  <RMSD>
9.942

$$$$
2oe8_lig
 OpenBabel11021811463D
libRbt.so/2013.1/901 2013/11/27
 37 40  0  0  0  0  0  0  0  0999 V2000
   21.6517   -3.5747   50.6456 C   0  0  1  0  0  0  0  0  0  0  0  0
   23.1176   -3.1758   51.0645 C   0  0  1  0  0  0  0  0  0  0  0  0
   23.1424   -2.8283   52.5676 C   0  0  0  0  0  0  0  0  0  0  0  0
   22.1545   -1.6342   52.7523 C   0  0  1  0  0  0  0  0  0  0  0  0
   20.6518   -2.0217   52.3074 C   0  0  1  0  0  0  0  0  0  0  0  0
   19.6636   -0.8298   52.4705 C   0  0  1  0  0  0  0  0  0  0  0  0
   19.7047   -0.3882   53.9904 C   0  0  1  0  0  0  0  0  0  0  0  0
   21.1883   -0.0674   54.3851 C   0  0  2  0  0  0  0  0  0  0  0  0
   18.9133    2.0379   53.3705 C   0  0  0  0  0  0  0  0  0  0  0  0
   24.0663   -4.3020   50.7926 N   0  0  0  0  0  0  0  0  0  0  0  0
   18.7971    0.8129   54.2420 N   0  0  0  0  0  0  0  0  0  0  0  0
   21.1955   -4.7341   51.3537 O   0  0  0  0  0  0  0  0  0  0  0  0
   20.6849   -2.4682   50.9077 O   0  0  0  0  0  0  0  0  0  0  0  0
   22.1178   -1.2108   54.1475 O   0  0  0  0  0  0  0  0  0  0  0  0
   20.1049    0.2054   51.5905 O   0  0  0  0  0  0  0  0  0  0  0  0
   21.2352    0.2579   55.7264 O   0  0  0  0  0  0  0  0  0  0  0  0
   20.7652    1.5873   56.0065 C   0  0  2  0  0  0  0  0  0  0  0  0
   21.8533    2.6280   55.6478 C   0  0  1  0  0  0  0  0  0  0  0  0
   23.1046    2.4992   56.5697 C   0  0  2  0  0  0  0  0  0  0  0  0
   22.6714    2.6828   58.0542 C   0  0  1  0  0  0  0  0  0  0  0  0
   21.6212    1.5387   58.3728 C   0  0  1  0  0  0  0  0  0  0  0  0
   21.1040    1.6209   59.8062 C   0  0  0  0  0  0  0  0  0  0  0  0
   23.8661    2.5603   58.9376 N   0  0  0  0  0  0  0  0  0  0  0  0
   20.4401    1.6972   57.4524 O   0  0  0  0  0  0  0  0  0  0  0  0
   22.1849    2.4376   54.2590 O   0  0  0  0  0  0  0  0  0  0  0  0
   24.0261    3.5084   56.2137 O   0  0  0  0  0  0  0  0  0  0  0  0
   20.2444    0.5400   60.0554 O   0  0  0  0  0  0  0  0  0  0  0  0
   20.2129   -5.4728   50.6575 C   0  0  1  0  0  0  0  0  0  0  0  0
   18.9794   -4.5424   50.4237 C   0  0  1  0  0  0  0  0  0  0  0  0
   17.8756   -5.3536   49.6846 C   0  0  2  0  0  0  0  0  0  0  0  0
   18.4035   -5.8909   48.3185 C   0  0  1  0  0  0  0  0  0  0  0  0
   19.6554   -6.8220   48.5436 C   0  0  0  0  0  0  0  0  0  0  0  0
   20.7791   -5.9905   49.2907 C   0  0  2  0  0  0  0  0  0  0  0  0
   17.3325   -6.6670   47.6342 N   0  0  0  0  0  0  0  0  0  0  0  0
   21.9517   -6.8707   49.4945 N   0  0  0  0  0  0  0  0  0  0  0  0
   18.4580   -4.0771   51.6826 O   0  0  0  0  0  0  0  0  0  0  0  0
   16.7730   -4.4858   49.4793 O   0  0  0  0  0  0  0  0  0  0  0  0
  1  2  1  0  0  0  0
  1 12  1  1  0  0  0
  1 13  1  0  0  0  0
  2  3  1  0  0  0  0
  2 10  1  1  0  0  0
  4  3  1  1  0  0  0
  4  5  1  0  0  0  0
  4 14  1  0  0  0  0
  5  6  1  0  0  0  0
  5 13  1  6  0  0  0
  6  7  1  0  0  0  0
  6 15  1  6  0  0  0
  7  8  1  0  0  0  0
  7 11  1  6  0  0  0
  8 14  1  0  0  0  0
  8 16  1  1  0  0  0
  9 11  1  0  0  0  0
 17 16  1  1  0  0  0
 17 18  1  0  0  0  0
 17 24  1  0  0  0  0
 18 19  1  0  0  0  0
 18 25  1  6  0  0  0
 19 20  1  0  0  0  0
 19 26  1  6  0  0  0
 20 21  1  0  0  0  0
 20 23  1  1  0  0  0
 21 22  1  1  0  0  0
 21 24  1  0  0  0  0
 22 27  1  0  0  0  0
 28 12  1  6  0  0  0
 28 29  1  0  0  0  0
 28 33  1  0  0  0  0
 29 30  1  0  0  0  0
 29 36  1  1  0  0  0
 30 31  1  0  0  0  0
 30 37  1  6  0  0  0
 31 32  1  0  0  0  0
 31 34  1  1  0  0  0
 32 33  1  0  0  0  0
 33 35  1  1  0  0  0
M  END
>  <CHROM.1>
-153.55226851,-51.17151590,-76.71155634,-77.92406121,-176.41226747,-60.46572083
20.81893861,-1.49197742,53.24991690,-1.77637278,-0.07667736,0.79407950

>  <Name>
2oe8_lig

>  <RI>
0

>  <Rbt.Current_Directory>
/home/itssahil/PROJECTS/Mol_Feturizer/New_Systems/rnas/2oe8

>  <Rbt.Executable>
rbdock ($Id: //depot/dev/client3/rdock/2013.1/src/exe/rbdock.cxx#4 $)

>  <Rbt.Library>
libRbt.so (2013.1, Build901 2013/11/27)

>  <Rbt.Parameter_File>
/export/apps/rDock/src/rDock_2013.1_src/data/scripts/dock_solv.prm

>  <Rbt.Receptor>
prm/pocket_docking_8.prm

>  <SCORE>
-19.3157

>  <SCORE.INTER>
-18.585

>  <SCORE.INTER.CONST>
1

>  <SCORE.INTER.POLAR>
-2.31599

>  <SCORE.INTER.ROT>
6

>  <SCORE.INTER.SOLV>
18.2726

>  <SCORE.INTER.VDW>
-18.3609

>  <SCORE.INTER.norm>
-0.502298

>  <SCORE.INTRA>
-0.73067

>  <SCORE.INTRA.DIHEDRAL>
-10.5605

>  <SCORE.INTRA.DIHEDRAL.0>
16.4056

>  <SCORE.INTRA.POLAR>
0

>  <SCORE.INTRA.POLAR.0>
0

>  <SCORE.INTRA.REPUL>
0

>  <SCORE.INTRA.REPUL.0>
0

>  <SCORE.INTRA.SOLV>
0.684432

>  <SCORE.INTRA.SOLV.lig_0>
-90.9627

>  <SCORE.INTRA.VDW>
4.20737

>  <SCORE.INTRA.VDW.0>
-3.28744

>  <SCORE.INTRA.norm>
-0.0197478

>  <SCORE.RESTR>
0

>  <SCORE.RESTR.CAVITY>
0

>  <SCORE.RESTR.norm>
0

>  <SCORE.SYSTEM>
0

>  <SCORE.SYSTEM.CONST>
0

>  <SCORE.SYSTEM.DIHEDRAL>
0

>  <SCORE.SYSTEM.SOLV>
0

>  <SCORE.SYSTEM.norm>
0

>  <SCORE.heavy>
37

>  <SCORE.norm>
-0.522046

>  <RMSD>
9.942

$$$$
2oe8_lig
 OpenBabel11021811463D
libRbt.so/2013.1/901 2013/11/27
 37 40  0  0  0  0  0  0  0  0999 V2000
   22.2125   -2.4656   48.3191 C   0  0  1  0  0  0  0  0  0  0  0  0
   23.3551   -3.0483   49.2348 C   0  0  1  0  0  0  0  0  0  0  0  0
   22.8972   -3.0123   50.7078 C   0  0  0  0  0  0  0  0  0  0  0  0
   22.6151   -1.5130   51.0370 C   0  0  1  0  0  0  0  0  0  0  0  0
   21.4605   -0.8962   50.0924 C   0  0  1  0  0  0  0  0  0  0  0  0
   21.1863    0.6049   50.4015 C   0  0  1  0  0  0  0  0  0  0  0  0
   20.7780    0.7048   51.9280 C   0  0  1  0  0  0  0  0  0  0  0  0
   21.9080    0.0528   52.7985 C   0  0  2  0  0  0  0  0  0  0  0  0
   19.1341    2.7163   52.3127 C   0  0  0  0  0  0  0  0  0  0  0  0
   23.6759   -4.4571   48.8417 N   0  0  0  0  0  0  0  0  0  0  0  0
   20.5328    2.1534   52.3411 N   0  0  0  0  0  0  0  0  0  0  0  0
   21.0137   -3.2461   48.4070 O   0  0  0  0  0  0  0  0  0  0  0  0
   21.8726   -1.0608   48.6914 O   0  0  0  0  0  0  0  0  0  0  0  0
   22.1913   -1.3642   52.4246 O   0  0  0  0  0  0  0  0  0  0  0  0
   22.3884    1.3201   50.1113 O   0  0  0  0  0  0  0  0  0  0  0  0
   21.5257    0.0829   54.1251 O   0  0  0  0  0  0  0  0  0  0  0  0
   22.6166   -0.1304   55.0369 C   0  0  2  0  0  0  0  0  0  0  0  0
   22.0820   -0.5872   56.4158 C   0  0  1  0  0  0  0  0  0  0  0  0
   21.2556    0.5340   57.1173 C   0  0  2  0  0  0  0  0  0  0  0  0
   22.1480    1.7982   57.2925 C   0  0  1  0  0  0  0  0  0  0  0  0
   22.5910    2.2546   55.8404 C   0  0  1  0  0  0  0  0  0  0  0  0
   23.4913    3.4863   55.8783 C   0  0  0  0  0  0  0  0  0  0  0  0
   21.3602    2.8716   57.9632 N   0  0  0  0  0  0  0  0  0  0  0  0
   23.3731    1.1381   55.2006 O   0  0  0  0  0  0  0  0  0  0  0  0
   21.3000   -1.7771   56.1977 O   0  0  0  0  0  0  0  0  0  0  0  0
   20.8464    0.0602   58.3831 O   0  0  0  0  0  0  0  0  0  0  0  0
   22.9722    4.4709   55.0238 O   0  0  0  0  0  0  0  0  0  0  0  0
   19.9835   -2.8003   47.5492 C   0  0  1  0  0  0  0  0  0  0  0  0
   20.4000   -3.1255   46.0786 C   0  0  1  0  0  0  0  0  0  0  0  0
   19.2872   -2.6108   45.1196 C   0  0  2  0  0  0  0  0  0  0  0  0
   17.9185   -3.2841   45.4465 C   0  0  1  0  0  0  0  0  0  0  0  0
   17.4955   -2.9706   46.9323 C   0  0  0  0  0  0  0  0  0  0  0  0
   18.6280   -3.5018   47.9057 C   0  0  2  0  0  0  0  0  0  0  0  0
   16.8708   -2.7719   44.5204 N   0  0  0  0  0  0  0  0  0  0  0  0
   18.2212   -3.2069   49.2981 N   0  0  0  0  0  0  0  0  0  0  0  0
   21.6408   -2.4714   45.7537 O   0  0  0  0  0  0  0  0  0  0  0  0
   19.6862   -2.9242   43.7953 O   0  0  0  0  0  0  0  0  0  0  0  0
  1  2  1  0  0  0  0
  1 12  1  1  0  0  0
  1 13  1  0  0  0  0
  2  3  1  0  0  0  0
  2 10  1  6  0  0  0
  4  3  1  6  0  0  0
  4  5  1  0  0  0  0
  4 14  1  0  0  0  0
  5  6  1  0  0  0  0
  5 13  1  6  0  0  0
  6  7  1  0  0  0  0
  6 15  1  1  0  0  0
  7  8  1  0  0  0  0
  7 11  1  1  0  0  0
  8 14  1  0  0  0  0
  8 16  1  1  0  0  0
  9 11  1  0  0  0  0
 17 16  1  6  0  0  0
 17 18  1  0  0  0  0
 17 24  1  0  0  0  0
 18 19  1  0  0  0  0
 18 25  1  6  0  0  0
 19 20  1  0  0  0  0
 19 26  1  1  0  0  0
 20 21  1  0  0  0  0
 20 23  1  6  0  0  0
 21 22  1  1  0  0  0
 21 24  1  0  0  0  0
 22 27  1  0  0  0  0
 28 12  1  1  0  0  0
 28 29  1  0  0  0  0
 28 33  1  0  0  0  0
 29 30  1  0  0  0  0
 29 36  1  6  0  0  0
 30 31  1  0  0  0  0
 30 37  1  6  0  0  0
 31 32  1  0  0  0  0
 31 34  1  6  0  0  0
 32 33  1  0  0  0  0
 33 35  1  1  0  0  0
M  END
>  <CHROM.1>
-176.90860535,94.54597828,-163.29144759,-159.67999590,-127.45918895,70.39462991
21.17757701,-0.75664127,51.22939135,-1.89487836,-0.85259533,0.89622101

>  <Name>
2oe8_lig

>  <RI>
0

>  <Rbt.Current_Directory>
/home/itssahil/PROJECTS/Mol_Feturizer/New_Systems/rnas/2oe8

>  <Rbt.Executable>
rbdock ($Id: //depot/dev/client3/rdock/2013.1/src/exe/rbdock.cxx#4 $)

>  <Rbt.Library>
libRbt.so (2013.1, Build901 2013/11/27)

>  <Rbt.Parameter_File>
/export/apps/rDock/src/rDock_2013.1_src/data/scripts/dock_solv.prm

>  <Rbt.Receptor>
prm/pocket_docking_8.prm

>  <SCORE>
-20.0965

>  <SCORE.INTER>
-16.6925

>  <SCORE.INTER.CONST>
1

>  <SCORE.INTER.POLAR>
-1.49754

>  <SCORE.INTER.ROT>
6

>  <SCORE.INTER.SOLV>
15.6956

>  <SCORE.INTER.VDW>
-18.9684

>  <SCORE.INTER.norm>
-0.45115

>  <SCORE.INTRA>
-3.40394

>  <SCORE.INTRA.DIHEDRAL>
-6.81647

>  <SCORE.INTRA.DIHEDRAL.0>
16.4056

>  <SCORE.INTRA.POLAR>
0

>  <SCORE.INTRA.POLAR.0>
0

>  <SCORE.INTRA.REPUL>
0

>  <SCORE.INTRA.REPUL.0>
0

>  <SCORE.INTRA.SOLV>
-2.72332

>  <SCORE.INTRA.SOLV.lig_0>
-90.9627

>  <SCORE.INTRA.VDW>
1.36596

>  <SCORE.INTRA.VDW.0>
-3.28744

>  <SCORE.INTRA.norm>
-0.0919983

>  <SCORE.RESTR>
0

>  <SCORE.RESTR.CAVITY>
0

>  <SCORE.RESTR.norm>
0

>  <SCORE.SYSTEM>
0

>  <SCORE.SYSTEM.CONST>
0

>  <SCORE.SYSTEM.DIHEDRAL>
0

>  <SCORE.SYSTEM.SOLV>
0

>  <SCORE.SYSTEM.norm>
0

>  <SCORE.heavy>
37

>  <SCORE.norm>
-0.543148

>  <RMSD>
9.943

$$$$
2oe8_lig
 OpenBabel11021811463D
libRbt.so/2013.1/901 2013/11/27
 37 40  0  0  0  0  0  0  0  0999 V2000
   20.8088   -3.2965   47.3185 C   0  0  1  0  0  0  0  0  0  0  0  0
   19.6235   -3.6656   48.2892 C   0  0  1  0  0  0  0  0  0  0  0  0
   18.9730   -2.3697   48.8166 C   0  0  0  0  0  0  0  0  0  0  0  0
   20.1004   -1.5938   49.5669 C   0  0  1  0  0  0  0  0  0  0  0  0
   21.3316   -1.2266   48.5895 C   0  0  1  0  0  0  0  0  0  0  0  0
   22.4693   -0.4690   49.3347 C   0  0  1  0  0  0  0  0  0  0  0  0
   21.8342    0.8412   49.9569 C   0  0  1  0  0  0  0  0  0  0  0  0
   20.6174    0.4352   50.8594 C   0  0  2  0  0  0  0  0  0  0  0  0
   23.4713    1.0395   52.0008 C   0  0  0  0  0  0  0  0  0  0  0  0
   18.5970   -4.4894   47.5750 N   0  0  0  0  0  0  0  0  0  0  0  0
   22.8685    1.6329   50.7524 N   0  0  0  0  0  0  0  0  0  0  0  0
   20.3495   -2.5609   46.1775 O   0  0  0  0  0  0  0  0  0  0  0  0
   21.8465   -2.4734   48.0065 O   0  0  0  0  0  0  0  0  0  0  0  0
   19.5816   -0.3509   50.1267 O   0  0  0  0  0  0  0  0  0  0  0  0
   22.9796   -1.3540   50.3333 O   0  0  0  0  0  0  0  0  0  0  0  0
   20.0239    1.5801   51.3532 O   0  0  0  0  0  0  0  0  0  0  0  0
   18.9188    1.3141   52.2335 C   0  0  2  0  0  0  0  0  0  0  0  0
   18.5320    2.5950   53.0115 C   0  0  1  0  0  0  0  0  0  0  0  0
   19.6598    3.0399   53.9925 C   0  0  2  0  0  0  0  0  0  0  0  0
   19.9550    1.8855   54.9952 C   0  0  1  0  0  0  0  0  0  0  0  0
   20.4204    0.6368   54.1364 C   0  0  1  0  0  0  0  0  0  0  0  0
   20.7267   -0.5758   55.0108 C   0  0  0  0  0  0  0  0  0  0  0  0
   21.0328    2.3085   55.9343 N   0  0  0  0  0  0  0  0  0  0  0  0
   19.3064    0.2529   53.1990 O   0  0  0  0  0  0  0  0  0  0  0  0
   18.2327    3.6125   52.0369 O   0  0  0  0  0  0  0  0  0  0  0  0
   19.2139    4.1802   54.6963 O   0  0  0  0  0  0  0  0  0  0  0  0
   19.5548   -0.9901   55.6621 O   0  0  0  0  0  0  0  0  0  0  0  0
   19.5419   -3.3202   45.3017 C   0  0  1  0  0  0  0  0  0  0  0  0
   18.2179   -2.5289   45.0514 C   0  0  1  0  0  0  0  0  0  0  0  0
   17.3044   -3.3692   44.1122 C   0  0  2  0  0  0  0  0  0  0  0  0
   18.0183   -3.6552   42.7549 C   0  0  1  0  0  0  0  0  0  0  0  0
   19.3613   -4.4438   42.9985 C   0  0  0  0  0  0  0  0  0  0  0  0
   20.2910   -3.5821   43.9500 C   0  0  2  0  0  0  0  0  0  0  0  0
   17.1276   -4.4639   41.8774 N   0  0  0  0  0  0  0  0  0  0  0  0
   21.5506   -4.3278   44.1703 N   0  0  0  0  0  0  0  0  0  0  0  0
   17.5297   -2.2991   46.2951 O   0  0  0  0  0  0  0  0  0  0  0  0
   16.1157   -2.6268   43.8963 O   0  0  0  0  0  0  0  0  0  0  0  0
  1  2  1  0  0  0  0
  1 12  1  6  0  0  0
  1 13  1  0  0  0  0
  2  3  1  0  0  0  0
  2 10  1  6  0  0  0
  4  3  1  6  0  0  0
  4  5  1  0  0  0  0
  4 14  1  0  0  0  0
  5  6  1  0  0  0  0
  5 13  1  1  0  0  0
  6  7  1  0  0  0  0
  6 15  1  1  0  0  0
  7  8  1  0  0  0  0
  7 11  1  1  0  0  0
  8 14  1  0  0  0  0
  8 16  1  6  0  0  0
  9 11  1  0  0  0  0
 17 16  1  6  0  0  0
 17 18  1  0  0  0  0
 17 24  1  0  0  0  0
 18 19  1  0  0  0  0
 18 25  1  6  0  0  0
 19 20  1  0  0  0  0
 19 26  1  1  0  0  0
 20 21  1  0  0  0  0
 20 23  1  1  0  0  0
 21 22  1  1  0  0  0
 21 24  1  0  0  0  0
 22 27  1  0  0  0  0
 28 12  1  1  0  0  0
 28 29  1  0  0  0  0
 28 33  1  0  0  0  0
 29 30  1  0  0  0  0
 29 36  1  1  0  0  0
 30 31  1  0  0  0  0
 30 37  1  6  0  0  0
 31 32  1  0  0  0  0
 31 34  1  6  0  0  0
 32 33  1  0  0  0  0
 33 35  1  1  0  0  0
M  END
>  <CHROM.1>
-67.76614371,-65.02969390,-178.03918428,166.07905370,63.60091312,127.84827277
19.88670235,-0.90583640,49.35734943,-1.70842771,-0.28604885,1.01965601

>  <Name>
2oe8_lig

>  <RI>
0

>  <Rbt.Current_Directory>
/home/itssahil/PROJECTS/Mol_Feturizer/New_Systems/rnas/2oe8

>  <Rbt.Executable>
rbdock ($Id: //depot/dev/client3/rdock/2013.1/src/exe/rbdock.cxx#4 $)

>  <Rbt.Library>
libRbt.so (2013.1, Build901 2013/11/27)

>  <Rbt.Parameter_File>
/export/apps/rDock/src/rDock_2013.1_src/data/scripts/dock_solv.prm

>  <Rbt.Receptor>
prm/pocket_docking_5.prm

>  <SCORE>
-29.64

>  <SCORE.INTER>
-28.2557

>  <SCORE.INTER.CONST>
1

>  <SCORE.INTER.POLAR>
-2.45223

>  <SCORE.INTER.ROT>
6

>  <SCORE.INTER.SOLV>
16.4913

>  <SCORE.INTER.VDW>
-23.7601

>  <SCORE.INTER.norm>
-0.763667

>  <SCORE.INTRA>
-1.38438

>  <SCORE.INTRA.DIHEDRAL>
-8.14915

>  <SCORE.INTRA.DIHEDRAL.0>
16.4056

>  <SCORE.INTRA.POLAR>
0

>  <SCORE.INTRA.POLAR.0>
0

>  <SCORE.INTRA.REPUL>
0

>  <SCORE.INTRA.REPUL.0>
0

>  <SCORE.INTRA.SOLV>
1.46634

>  <SCORE.INTRA.SOLV.lig_0>
-90.9627

>  <SCORE.INTRA.VDW>
1.95703

>  <SCORE.INTRA.VDW.0>
-3.28744

>  <SCORE.INTRA.norm>
-0.0374155

>  <SCORE.RESTR>
0

>  <SCORE.RESTR.CAVITY>
0

>  <SCORE.RESTR.norm>
0

>  <SCORE.SYSTEM>
0

>  <SCORE.SYSTEM.CONST>
0

>  <SCORE.SYSTEM.DIHEDRAL>
0

>  <SCORE.SYSTEM.SOLV>
0

>  <SCORE.SYSTEM.norm>
0

>  <SCORE.heavy>
37

>  <SCORE.norm>
-0.801082

>  <RMSD>
9.955

$$$$
2oe8_lig
 OpenBabel11021811463D
libRbt.so/2013.1/901 2013/11/27
 37 40  0  0  0  0  0  0  0  0999 V2000
   21.1762   -4.3271   48.3764 C   0  0  1  0  0  0  0  0  0  0  0  0
   22.5112   -4.6194   49.1612 C   0  0  1  0  0  0  0  0  0  0  0  0
   22.2924   -4.3397   50.6627 C   0  0  0  0  0  0  0  0  0  0  0  0
   21.8895   -2.8356   50.7687 C   0  0  1  0  0  0  0  0  0  0  0  0
   20.5341   -2.5165   49.9520 C   0  0  1  0  0  0  0  0  0  0  0  0
   20.1354   -1.0139   50.0368 C   0  0  1  0  0  0  0  0  0  0  0  0
   19.9662   -0.6571   51.5701 C   0  0  1  0  0  0  0  0  0  0  0  0
   21.2899   -1.0270   52.3256 C   0  0  2  0  0  0  0  0  0  0  0  0
   18.1973    1.2213   52.0591 C   0  0  0  0  0  0  0  0  0  0  0  0
   22.9312   -6.0440   48.9705 N   0  0  0  0  0  0  0  0  0  0  0  0
   19.6188    0.8170   51.7596 N   0  0  0  0  0  0  0  0  0  0  0  0
   20.1084   -5.1778   48.8124 O   0  0  0  0  0  0  0  0  0  0  0  0
   20.7347   -2.9121   48.5510 O   0  0  0  0  0  0  0  0  0  0  0  0
   21.6771   -2.4591   52.1617 O   0  0  0  0  0  0  0  0  0  0  0  0
   21.1820   -0.2658   49.4158 O   0  0  0  0  0  0  0  0  0  0  0  0
   21.1227   -0.7746   53.6730 O   0  0  0  0  0  0  0  0  0  0  0  0
   21.6064    0.5183   54.0743 C   0  0  2  0  0  0  0  0  0  0  0  0
   22.4896    0.3921   55.3391 C   0  0  1  0  0  0  0  0  0  0  0  0
   21.6640   -0.0713   56.5784 C   0  0  2  0  0  0  0  0  0  0  0  0
   20.5139    0.9456   56.8403 C   0  0  1  0  0  0  0  0  0  0  0  0
   19.6085    0.9626   55.5391 C   0  0  1  0  0  0  0  0  0  0  0  0
   18.4448    1.9418   55.6655 C   0  0  0  0  0  0  0  0  0  0  0  0
   19.7233    0.5049   58.0249 N   0  0  0  0  0  0  0  0  0  0  0  0
   20.4500    1.4034   54.3707 O   0  0  0  0  0  0  0  0  0  0  0  0
   23.5542   -0.5264   55.0264 O   0  0  0  0  0  0  0  0  0  0  0  0
   22.5255   -0.1150   57.6966 O   0  0  0  0  0  0  0  0  0  0  0  0
   17.3961    1.3326   56.3712 O   0  0  0  0  0  0  0  0  0  0  0  0
   18.9735   -5.1380   47.9720 C   0  0  1  0  0  0  0  0  0  0  0  0
   19.2400   -6.0743   46.7497 C   0  0  1  0  0  0  0  0  0  0  0  0
   18.0091   -6.0155   45.7987 C   0  0  2  0  0  0  0  0  0  0  0  0
   16.7129   -6.4653   46.5411 C   0  0  1  0  0  0  0  0  0  0  0  0
   16.4421   -5.5329   47.7829 C   0  0  0  0  0  0  0  0  0  0  0  0
   17.6948   -5.6004   48.7516 C   0  0  2  0  0  0  0  0  0  0  0  0
   15.5504   -6.3952   45.6131 N   0  0  0  0  0  0  0  0  0  0  0  0
   17.4306   -4.7256   49.9161 N   0  0  0  0  0  0  0  0  0  0  0  0
   20.4102   -5.6396   46.0322 O   0  0  0  0  0  0  0  0  0  0  0  0
   18.2737   -6.8774   44.7041 O   0  0  0  0  0  0  0  0  0  0  0  0
  1  2  1  0  0  0  0
  1 12  1  1  0  0  0
  1 13  1  0  0  0  0
  2  3  1  0  0  0  0
  2 10  1  1  0  0  0
  4  3  1  1  0  0  0
  4  5  1  0  0  0  0
  4 14  1  0  0  0  0
  5  6  1  0  0  0  0
  5 13  1  6  0  0  0
  6  7  1  0  0  0  0
  6 15  1  1  0  0  0
  7  8  1  0  0  0  0
  7 11  1  6  0  0  0
  8 14  1  0  0  0  0
  8 16  1  1  0  0  0
  9 11  1  0  0  0  0
 17 16  1  1  0  0  0
 17 18  1  0  0  0  0
 17 24  1  0  0  0  0
 18 19  1  0  0  0  0
 18 25  1  6  0  0  0
 19 20  1  0  0  0  0
 19 26  1  1  0  0  0
 20 21  1  0  0  0  0
 20 23  1  1  0  0  0
 21 22  1  1  0  0  0
 21 24  1  0  0  0  0
 22 27  1  0  0  0  0
 28 12  1  1  0  0  0
 28 29  1  0  0  0  0
 28 33  1  0  0  0  0
 29 30  1  0  0  0  0
 29 36  1  6  0  0  0
 30 31  1  0  0  0  0
 30 37  1  6  0  0  0
 31 32  1  0  0  0  0
 31 34  1  6  0  0  0
 32 33  1  0  0  0  0
 33 35  1  1  0  0  0
M  END
>  <CHROM.1>
-168.38248394,102.36389613,-95.13886245,-131.96889981,-82.42128640,81.13248290
20.07261813,-2.35257564,51.20285220,-1.75203011,-0.17205246,0.90722399

>  <Name>
2oe8_lig

>  <RI>
0

>  <Rbt.Current_Directory>
/home/itssahil/PROJECTS/Mol_Feturizer/New_Systems/rnas/2oe8

>  <Rbt.Executable>
rbdock ($Id: //depot/dev/client3/rdock/2013.1/src/exe/rbdock.cxx#4 $)

>  <Rbt.Library>
libRbt.so (2013.1, Build901 2013/11/27)

>  <Rbt.Parameter_File>
/export/apps/rDock/src/rDock_2013.1_src/data/scripts/dock_solv.prm

>  <Rbt.Receptor>
prm/pocket_docking_3.prm

>  <SCORE>
-15.45

>  <SCORE.INTER>
-14.9816

>  <SCORE.INTER.CONST>
1

>  <SCORE.INTER.POLAR>
-1.93079

>  <SCORE.INTER.ROT>
6

>  <SCORE.INTER.SOLV>
12.2274

>  <SCORE.INTER.VDW>
-15.2275

>  <SCORE.INTER.norm>
-0.404907

>  <SCORE.INTRA>
-0.470842

>  <SCORE.INTRA.DIHEDRAL>
-0.0983985

>  <SCORE.INTRA.DIHEDRAL.0>
16.4056

>  <SCORE.INTRA.POLAR>
0

>  <SCORE.INTRA.POLAR.0>
0

>  <SCORE.INTRA.REPUL>
0

>  <SCORE.INTRA.REPUL.0>
0

>  <SCORE.INTRA.SOLV>
-0.336396

>  <SCORE.INTRA.SOLV.lig_0>
-90.9627

>  <SCORE.INTRA.VDW>
-0.253445

>  <SCORE.INTRA.VDW.0>
-3.28744

>  <SCORE.INTRA.norm>
-0.0127255

>  <SCORE.RESTR>
0.00244936

>  <SCORE.RESTR.CAVITY>
0.00244936

>  <SCORE.RESTR.norm>
6.6199e-05

>  <SCORE.SYSTEM>
0

>  <SCORE.SYSTEM.CONST>
0

>  <SCORE.SYSTEM.DIHEDRAL>
0

>  <SCORE.SYSTEM.SOLV>
0

>  <SCORE.SYSTEM.norm>
0

>  <SCORE.heavy>
37

>  <SCORE.norm>
-0.417567

>  <RMSD>
9.971

$$$$
2oe8_lig
 OpenBabel11021811463D
libRbt.so/2013.1/901 2013/11/27
 37 40  0  0  0  0  0  0  0  0999 V2000
   20.4569   -3.3992   48.8910 C   0  0  1  0  0  0  0  0  0  0  0  0
   19.2832   -3.2792   49.9359 C   0  0  1  0  0  0  0  0  0  0  0  0
   19.1100   -1.8007   50.3416 C   0  0  0  0  0  0  0  0  0  0  0  0
   20.4716   -1.3602   50.9644 C   0  0  1  0  0  0  0  0  0  0  0  0
   21.6876   -1.4973   49.9116 C   0  0  1  0  0  0  0  0  0  0  0  0
   23.0530   -1.0780   50.5311 C   0  0  1  0  0  0  0  0  0  0  0  0
   22.9051    0.4178   51.0289 C   0  0  1  0  0  0  0  0  0  0  0  0
   21.6854    0.5068   52.0110 C   0  0  2  0  0  0  0  0  0  0  0  0
   24.5372    2.3733   51.6682 C   0  0  0  0  0  0  0  0  0  0  0  0
   18.0046   -3.7937   49.3506 N   0  0  0  0  0  0  0  0  0  0  0  0
   24.1865    0.9070   51.6982 N   0  0  0  0  0  0  0  0  0  0  0  0
   20.1770   -2.6635   47.6934 O   0  0  0  0  0  0  0  0  0  0  0  0
   21.7443   -2.8914   49.4500 O   0  0  0  0  0  0  0  0  0  0  0  0
   20.4084    0.0291   51.4036 O   0  0  0  0  0  0  0  0  0  0  0  0
   23.3246   -1.9840   51.6017 O   0  0  0  0  0  0  0  0  0  0  0  0
   21.5163    1.8216   52.3978 O   0  0  0  0  0  0  0  0  0  0  0  0
   20.4943    1.9950   53.3939 C   0  0  2  0  0  0  0  0  0  0  0  0
   20.1645    3.4971   53.5687 C   0  0  1  0  0  0  0  0  0  0  0  0
   21.3689    4.2894   54.1635 C   0  0  2  0  0  0  0  0  0  0  0  0
   21.7607    3.6742   55.5394 C   0  0  1  0  0  0  0  0  0  0  0  0
   22.1615    2.1639   55.2718 C   0  0  1  0  0  0  0  0  0  0  0  0
   22.5537    1.4404   56.5569 C   0  0  0  0  0  0  0  0  0  0  0  0
   22.9119    4.4301   56.1103 N   0  0  0  0  0  0  0  0  0  0  0  0
   20.9739    1.4450   54.6884 O   0  0  0  0  0  0  0  0  0  0  0  0
   19.7724    4.0012   52.2775 O   0  0  0  0  0  0  0  0  0  0  0  0
   20.9752    5.6344   54.3374 O   0  0  0  0  0  0  0  0  0  0  0  0
   21.4499    1.3933   57.4220 O   0  0  0  0  0  0  0  0  0  0  0  0
   19.4959   -3.4174   46.7118 C   0  0  1  0  0  0  0  0  0  0  0  0
   18.2775   -2.5768   46.2111 C   0  0  1  0  0  0  0  0  0  0  0  0
   17.4991   -3.4091   45.1509 C   0  0  2  0  0  0  0  0  0  0  0  0
   18.4220   -3.7771   43.9483 C   0  0  1  0  0  0  0  0  0  0  0  0
   19.6604   -4.6161   44.4455 C   0  0  0  0  0  0  0  0  0  0  0  0
   20.4537   -3.7627   45.5201 C   0  0  2  0  0  0  0  0  0  0  0  0
   17.6569   -4.5766   42.9518 N   0  0  0  0  0  0  0  0  0  0  0  0
   21.6164   -4.5560   45.9786 N   0  0  0  0  0  0  0  0  0  0  0  0
   17.3967   -2.2702   47.3081 O   0  0  0  0  0  0  0  0  0  0  0  0
   16.4052   -2.6221   44.7092 O   0  0  0  0  0  0  0  0  0  0  0  0
  1  2  1  0  0  0  0
  1 12  1  6  0  0  0
  1 13  1  0  0  0  0
  2  3  1  0  0  0  0
  2 10  1  6  0  0  0
  4  3  1  6  0  0  0
  4  5  1  0  0  0  0
  4 14  1  0  0  0  0
  5  6  1  0  0  0  0
  5 13  1  1  0  0  0
  6  7  1  0  0  0  0
  6 15  1  1  0  0  0
  7  8  1  0  0  0  0
  7 11  1  1  0  0  0
  8 14  1  0  0  0  0
  8 16  1  6  0  0  0
  9 11  1  0  0  0  0
 17 16  1  6  0  0  0
 17 18  1  0  0  0  0
 17 24  1  0  0  0  0
 18 19  1  0  0  0  0
 18 25  1  6  0  0  0
 19 20  1  0  0  0  0
 19 26  1  1  0  0  0
 20 21  1  0  0  0  0
 20 23  1  6  0  0  0
 21 22  1  1  0  0  0
 21 24  1  0  0  0  0
 22 27  1  0  0  0  0
 28 12  1  1  0  0  0
 28 29  1  0  0  0  0
 28 33  1  0  0  0  0
 29 30  1  0  0  0  0
 29 36  1  1  0  0  0
 30 31  1  0  0  0  0
 30 37  1  6  0  0  0
 31 32  1  0  0  0  0
 31 34  1  6  0  0  0
 32 33  1  0  0  0  0
 33 35  1  1  0  0  0
M  END
>  <CHROM.1>
-89.60401599,151.48477714,-174.80712705,-168.65089328,63.09242321,131.01308087
20.64808448,-0.48334562,50.45307525,-1.87678592,-0.48224029,0.79427773

>  <Name>
2oe8_lig

>  <RI>
0

>  <Rbt.Current_Directory>
/home/itssahil/PROJECTS/Mol_Feturizer/New_Systems/rnas/2oe8

>  <Rbt.Executable>
rbdock ($Id: //depot/dev/client3/rdock/2013.1/src/exe/rbdock.cxx#4 $)

>  <Rbt.Library>
libRbt.so (2013.1, Build901 2013/11/27)

>  <Rbt.Parameter_File>
/export/apps/rDock/src/rDock_2013.1_src/data/scripts/dock_solv.prm

>  <Rbt.Receptor>
prm/pocket_docking_7.prm

>  <SCORE>
-20.1635

>  <SCORE.INTER>
-17.9216

>  <SCORE.INTER.CONST>
1

>  <SCORE.INTER.POLAR>
-1.87006

>  <SCORE.INTER.ROT>
6

>  <SCORE.INTER.SOLV>
13.0096

>  <SCORE.INTER.VDW>
-17.6507

>  <SCORE.INTER.norm>
-0.484366

>  <SCORE.INTRA>
-2.24197

>  <SCORE.INTRA.DIHEDRAL>
-4.89165

>  <SCORE.INTRA.DIHEDRAL.0>
16.4056

>  <SCORE.INTRA.POLAR>
0

>  <SCORE.INTRA.POLAR.0>
0

>  <SCORE.INTRA.REPUL>
0

>  <SCORE.INTRA.REPUL.0>
0

>  <SCORE.INTRA.SOLV>
0.583597

>  <SCORE.INTRA.SOLV.lig_0>
-90.9627

>  <SCORE.INTRA.VDW>
-0.0879401

>  <SCORE.INTRA.VDW.0>
-3.28744

>  <SCORE.INTRA.norm>
-0.0605937

>  <SCORE.RESTR>
0

>  <SCORE.RESTR.CAVITY>
0

>  <SCORE.RESTR.norm>
0

>  <SCORE.SYSTEM>
0

>  <SCORE.SYSTEM.CONST>
0

>  <SCORE.SYSTEM.DIHEDRAL>
0

>  <SCORE.SYSTEM.SOLV>
0

>  <SCORE.SYSTEM.norm>
0

>  <SCORE.heavy>
37

>  <SCORE.norm>
-0.54496

>  <RMSD>
9.984

$$$$
2oe8_lig
 OpenBabel11021811463D
libRbt.so/2013.1/901 2013/11/27
 37 40  0  0  0  0  0  0  0  0999 V2000
   20.9601   -4.0947   48.2088 C   0  0  1  0  0  0  0  0  0  0  0  0
   22.3795   -4.2851   48.8664 C   0  0  1  0  0  0  0  0  0  0  0  0
   22.2446   -4.2137   50.4018 C   0  0  0  0  0  0  0  0  0  0  0  0
   21.6564   -2.8034   50.7196 C   0  0  1  0  0  0  0  0  0  0  0  0
   20.2107   -2.5859   50.0350 C   0  0  1  0  0  0  0  0  0  0  0  0
   19.6253   -1.1740   50.3314 C   0  0  1  0  0  0  0  0  0  0  0  0
   19.5318   -1.0234   51.9048 C   0  0  1  0  0  0  0  0  0  0  0  0
   20.9480   -1.2884   52.5243 C   0  0  2  0  0  0  0  0  0  0  0  0
   19.7753    1.5914   51.8992 C   0  0  0  0  0  0  0  0  0  0  0  0
   22.9673   -5.6051   48.4736 N   0  0  0  0  0  0  0  0  0  0  0  0
   19.0090    0.3555   52.2981 N   0  0  0  0  0  0  0  0  0  0  0  0
   20.0514   -5.1314   48.6007 O   0  0  0  0  0  0  0  0  0  0  0  0
   20.3509   -2.7853   48.5858 O   0  0  0  0  0  0  0  0  0  0  0  0
   21.5066   -2.6234   52.1591 O   0  0  0  0  0  0  0  0  0  0  0  0
   20.5120   -0.2199   49.7447 O   0  0  0  0  0  0  0  0  0  0  0  0
   20.8555   -1.2189   53.9005 O   0  0  0  0  0  0  0  0  0  0  0  0
   21.4981   -0.0592   54.4564 C   0  0  2  0  0  0  0  0  0  0  0  0
   22.1983   -0.4205   55.7886 C   0  0  1  0  0  0  0  0  0  0  0  0
   21.1717   -0.8138   56.8947 C   0  0  2  0  0  0  0  0  0  0  0  0
   20.1840    0.3681   57.1242 C   0  0  1  0  0  0  0  0  0  0  0  0
   19.4480    0.6283   55.7444 C   0  0  1  0  0  0  0  0  0  0  0  0
   18.4562    1.7846   55.8350 C   0  0  0  0  0  0  0  0  0  0  0  0
   19.2015   -0.0055   58.1814 N   0  0  0  0  0  0  0  0  0  0  0  0
   20.4784    0.9921   54.7083 O   0  0  0  0  0  0  0  0  0  0  0  0
   23.1245   -1.4875   55.5085 O   0  0  0  0  0  0  0  0  0  0  0  0
   21.8810   -1.0806   58.0864 O   0  0  0  0  0  0  0  0  0  0  0  0
   17.2901    1.3502   56.4835 O   0  0  0  0  0  0  0  0  0  0  0  0
   18.8847   -5.1920   47.8064 C   0  0  1  0  0  0  0  0  0  0  0  0
   19.1536   -6.1737   46.6208 C   0  0  1  0  0  0  0  0  0  0  0  0
   17.8860   -6.2259   45.7190 C   0  0  2  0  0  0  0  0  0  0  0  0
   16.6448   -6.7035   46.5345 C   0  0  1  0  0  0  0  0  0  0  0  0
   16.3725   -5.7249   47.7399 C   0  0  0  0  0  0  0  0  0  0  0  0
   17.6631   -5.6795   48.6589 C   0  0  2  0  0  0  0  0  0  0  0  0
   15.4456   -6.7397   45.6524 N   0  0  0  0  0  0  0  0  0  0  0  0
   17.3975   -4.7618   49.7897 N   0  0  0  0  0  0  0  0  0  0  0  0
   20.2708   -5.7163   45.8361 O   0  0  0  0  0  0  0  0  0  0  0  0
   18.1539   -7.1271   44.6574 O   0  0  0  0  0  0  0  0  0  0  0  0
  1  2  1  0  0  0  0
  1 12  1  1  0  0  0
  1 13  1  0  0  0  0
  2  3  1  0  0  0  0
  2 10  1  1  0  0  0
  4  3  1  1  0  0  0
  4  5  1  0  0  0  0
  4 14  1  0  0  0  0
  5  6  1  0  0  0  0
  5 13  1  6  0  0  0
  6  7  1  0  0  0  0
  6 15  1  1  0  0  0
  7  8  1  0  0  0  0
  7 11  1  6  0  0  0
  8 14  1  0  0  0  0
  8 16  1  1  0  0  0
  9 11  1  0  0  0  0
 17 16  1  1  0  0  0
 17 18  1  0  0  0  0
 17 24  1  0  0  0  0
 18 19  1  0  0  0  0
 18 25  1  6  0  0  0
 19 20  1  0  0  0  0
 19 26  1  1  0  0  0
 20 21  1  0  0  0  0
 20 23  1  1  0  0  0
 21 22  1  1  0  0  0
 21 24  1  0  0  0  0
 22 27  1  0  0  0  0
 28 12  1  1  0  0  0
 28 29  1  0  0  0  0
 28 33  1  0  0  0  0
 29 30  1  0  0  0  0
 29 36  1  6  0  0  0
 30 31  1  0  0  0  0
 30 37  1  6  0  0  0
 31 32  1  0  0  0  0
 31 34  1  6  0  0  0
 32 33  1  0  0  0  0
 33 35  1  1  0  0  0
M  END
>  <CHROM.1>
-165.76618013,-60.70037393,-109.61692829,-141.96293146,-77.31551432,90.85576695
19.89321680,-2.56386049,51.28084638,-1.73351570,-0.14277331,0.96371482

>  <Name>
2oe8_lig

>  <RI>
0

>  <Rbt.Current_Directory>
/home/itssahil/PROJECTS/Mol_Feturizer/New_Systems/rnas/2oe8

>  <Rbt.Executable>
rbdock ($Id: //depot/dev/client3/rdock/2013.1/src/exe/rbdock.cxx#4 $)

>  <Rbt.Library>
libRbt.so (2013.1, Build901 2013/11/27)

>  <Rbt.Parameter_File>
/export/apps/rDock/src/rDock_2013.1_src/data/scripts/dock_solv.prm

>  <Rbt.Receptor>
prm/pocket_docking_3.prm

>  <SCORE>
-15.4438

>  <SCORE.INTER>
-16.9054

>  <SCORE.INTER.CONST>
1

>  <SCORE.INTER.POLAR>
-1.95741

>  <SCORE.INTER.ROT>
6

>  <SCORE.INTER.SOLV>
15.3712

>  <SCORE.INTER.VDW>
-17.4693

>  <SCORE.INTER.norm>
-0.456902

>  <SCORE.INTRA>
1.43

>  <SCORE.INTRA.DIHEDRAL>
1.06827

>  <SCORE.INTRA.DIHEDRAL.0>
16.4056

>  <SCORE.INTRA.POLAR>
0

>  <SCORE.INTRA.POLAR.0>
0

>  <SCORE.INTRA.REPUL>
0

>  <SCORE.INTRA.REPUL.0>
0

>  <SCORE.INTRA.SOLV>
0.641151

>  <SCORE.INTRA.SOLV.lig_0>
-90.9627

>  <SCORE.INTRA.VDW>
0.575287

>  <SCORE.INTRA.VDW.0>
-3.28744

>  <SCORE.INTRA.norm>
0.0386485

>  <SCORE.RESTR>
0.0315528

>  <SCORE.RESTR.CAVITY>
0.0315528

>  <SCORE.RESTR.norm>
0.000852779

>  <SCORE.SYSTEM>
0

>  <SCORE.SYSTEM.CONST>
0

>  <SCORE.SYSTEM.DIHEDRAL>
0

>  <SCORE.SYSTEM.SOLV>
0

>  <SCORE.SYSTEM.norm>
0

>  <SCORE.heavy>
37

>  <SCORE.norm>
-0.4174

>  <RMSD>
9.991

$$$$
2oe8_lig
 OpenBabel11021811463D
libRbt.so/2013.1/901 2013/11/27
 37 40  0  0  0  0  0  0  0  0999 V2000
   19.1149   -5.4260   47.2805 C   0  0  1  0  0  0  0  0  0  0  0  0
   18.5460   -4.7131   48.5656 C   0  0  1  0  0  0  0  0  0  0  0  0
   19.6169   -3.7610   49.1377 C   0  0  0  0  0  0  0  0  0  0  0  0
   20.8499   -4.6535   49.4826 C   0  0  1  0  0  0  0  0  0  0  0  0
   21.4314   -5.4069   48.1787 C   0  0  1  0  0  0  0  0  0  0  0  0
   22.6501   -6.3145   48.5176 C   0  0  1  0  0  0  0  0  0  0  0  0
   23.7563   -5.3920   49.1750 C   0  0  1  0  0  0  0  0  0  0  0  0
   23.1305   -4.6494   50.4065 C   0  0  2  0  0  0  0  0  0  0  0  0
   25.5888   -6.0067   50.9529 C   0  0  0  0  0  0  0  0  0  0  0  0
   17.3095   -3.9374   48.2318 N   0  0  0  0  0  0  0  0  0  0  0  0
   24.9805   -6.2050   49.5874 N   0  0  0  0  0  0  0  0  0  0  0  0
   19.4346   -4.4831   46.2495 O   0  0  0  0  0  0  0  0  0  0  0  0
   20.3500   -6.2063   47.5862 O   0  0  0  0  0  0  0  0  0  0  0  0
   21.9222   -3.8469   50.0543 O   0  0  0  0  0  0  0  0  0  0  0  0
   22.1842   -7.3273   49.4109 O   0  0  0  0  0  0  0  0  0  0  0  0
   24.0752   -3.7974   50.9438 O   0  0  0  0  0  0  0  0  0  0  0  0
   24.5581   -2.8195   50.0071 C   0  0  2  0  0  0  0  0  0  0  0  0
   25.7428   -2.0317   50.6166 C   0  0  1  0  0  0  0  0  0  0  0  0
   25.2961   -1.1606   51.8306 C   0  0  2  0  0  0  0  0  0  0  0  0
   24.1865   -0.1689   51.3720 C   0  0  1  0  0  0  0  0  0  0  0  0
   22.9783   -1.0445   50.8366 C   0  0  1  0  0  0  0  0  0  0  0  0
   21.8232   -0.1805   50.3383 C   0  0  0  0  0  0  0  0  0  0  0  0
   23.7578    0.6653   52.5310 N   0  0  0  0  0  0  0  0  0  0  0  0
   23.4601   -1.8744   49.6762 O   0  0  0  0  0  0  0  0  0  0  0  0
   26.7505   -2.9930   50.9845 O   0  0  0  0  0  0  0  0  0  0  0  0
   26.4167   -0.4393   52.2978 O   0  0  0  0  0  0  0  0  0  0  0  0
   20.7784   -1.0067   49.8969 O   0  0  0  0  0  0  0  0  0  0  0  0
   18.6292   -4.6107   45.0959 C   0  0  1  0  0  0  0  0  0  0  0  0
   19.1433   -3.5919   44.0284 C   0  0  1  0  0  0  0  0  0  0  0  0
   18.2443   -3.6996   42.7623 C   0  0  2  0  0  0  0  0  0  0  0  0
   18.2799   -5.1458   42.1785 C   0  0  1  0  0  0  0  0  0  0  0  0
   17.7733   -6.1823   43.2527 C   0  0  0  0  0  0  0  0  0  0  0  0
   18.6950   -6.0738   44.5375 C   0  0  2  0  0  0  0  0  0  0  0  0
   17.4090   -5.2244   40.9731 N   0  0  0  0  0  0  0  0  0  0  0  0
   18.2150   -7.0524   45.5390 N   0  0  0  0  0  0  0  0  0  0  0  0
   19.0722   -2.2491   44.5432 O   0  0  0  0  0  0  0  0  0  0  0  0
   18.7358   -2.7717   41.8092 O   0  0  0  0  0  0  0  0  0  0  0  0
  1  2  1  0  0  0  0
  1 12  1  6  0  0  0
  1 13  1  0  0  0  0
  2  3  1  0  0  0  0
  2 10  1  6  0  0  0
  4  3  1  6  0  0  0
  4  5  1  0  0  0  0
  4 14  1  0  0  0  0
  5  6  1  0  0  0  0
  5 13  1  1  0  0  0
  6  7  1  0  0  0  0
  6 15  1  1  0  0  0
  7  8  1  0  0  0  0
  7 11  1  1  0  0  0
  8 14  1  0  0  0  0
  8 16  1  6  0  0  0
  9 11  1  0  0  0  0
 17 16  1  1  0  0  0
 17 18  1  0  0  0  0
 17 24  1  0  0  0  0
 18 19  1  0  0  0  0
 18 25  1  1  0  0  0
 19 20  1  0  0  0  0
 19 26  1  6  0  0  0
 20 21  1  0  0  0  0
 20 23  1  1  0  0  0
 21 22  1  6  0  0  0
 21 24  1  0  0  0  0
 22 27  1  0  0  0  0
 28 12  1  1  0  0  0
 28 29  1  0  0  0  0
 28 33  1  0  0  0  0
 29 30  1  0  0  0  0
 29 36  1  1  0  0  0
 30 31  1  0  0  0  0
 30 37  1  6  0  0  0
 31 32  1  0  0  0  0
 31 34  1  6  0  0  0
 32 33  1  0  0  0  0
 33 35  1  1  0  0  0
M  END
>  <CHROM.1>
-114.48729698,-133.27163600,58.63359871,-172.31141167,-179.11920009,-176.41177132
21.51732369,-3.81324968,48.10519485,-2.78202329,-0.82793824,0.12679319

>  <Name>
2oe8_lig

>  <RI>
0

>  <Rbt.Current_Directory>
/home/itssahil/PROJECTS/Mol_Feturizer/New_Systems/rnas/2oe8

>  <Rbt.Executable>
rbdock ($Id: //depot/dev/client3/rdock/2013.1/src/exe/rbdock.cxx#4 $)

>  <Rbt.Library>
libRbt.so (2013.1, Build901 2013/11/27)

>  <Rbt.Parameter_File>
/export/apps/rDock/src/rDock_2013.1_src/data/scripts/dock_solv.prm

>  <Rbt.Receptor>
prm/blind_docking_100.prm

>  <SCORE>
-16.0123

>  <SCORE.INTER>
-19.4563

>  <SCORE.INTER.CONST>
1

>  <SCORE.INTER.POLAR>
-1.91736

>  <SCORE.INTER.ROT>
6

>  <SCORE.INTER.SOLV>
12.5744

>  <SCORE.INTER.VDW>
-18.3711

>  <SCORE.INTER.norm>
-0.525847

>  <SCORE.INTRA>
3.27775

>  <SCORE.INTRA.DIHEDRAL>
-7.91652

>  <SCORE.INTRA.DIHEDRAL.0>
16.4056

>  <SCORE.INTRA.POLAR>
0

>  <SCORE.INTRA.POLAR.0>
0

>  <SCORE.INTRA.REPUL>
0

>  <SCORE.INTRA.REPUL.0>
0

>  <SCORE.INTRA.SOLV>
0.77472

>  <SCORE.INTRA.SOLV.lig_0>
-90.9627

>  <SCORE.INTRA.VDW>
6.84865

>  <SCORE.INTRA.VDW.0>
-3.28744

>  <SCORE.INTRA.norm>
0.0885878

>  <SCORE.RESTR>
0.166313

>  <SCORE.RESTR.CAVITY>
0.166313

>  <SCORE.RESTR.norm>
0.00449494

>  <SCORE.SYSTEM>
0

>  <SCORE.SYSTEM.CONST>
0

>  <SCORE.SYSTEM.DIHEDRAL>
0

>  <SCORE.SYSTEM.SOLV>
0

>  <SCORE.SYSTEM.norm>
0

>  <SCORE.heavy>
37

>  <SCORE.norm>
-0.432764

>  <RMSD>
9.993

$$$$
2oe8_lig
 OpenBabel11021811463D
libRbt.so/2013.1/901 2013/11/27
 37 40  0  0  0  0  0  0  0  0999 V2000
   20.0130   -2.4341   47.7298 C   0  0  1  0  0  0  0  0  0  0  0  0
   20.6361   -3.6105   48.5733 C   0  0  1  0  0  0  0  0  0  0  0  0
   20.1390   -3.5128   50.0307 C   0  0  0  0  0  0  0  0  0  0  0  0
   20.6142   -2.1227   50.5579 C   0  0  1  0  0  0  0  0  0  0  0  0
   20.0002   -0.9078   49.6902 C   0  0  1  0  0  0  0  0  0  0  0  0
   20.4847    0.4820   50.1978 C   0  0  1  0  0  0  0  0  0  0  0  0
   20.0580    0.6035   51.7177 C   0  0  1  0  0  0  0  0  0  0  0  0
   20.6393   -0.6209   52.5068 C   0  0  2  0  0  0  0  0  0  0  0  0
   19.6614    3.1491   52.2270 C   0  0  0  0  0  0  0  0  0  0  0  0
   20.2445   -4.9354   47.9957 N   0  0  0  0  0  0  0  0  0  0  0  0
   20.5330    1.9223   52.3216 N   0  0  0  0  0  0  0  0  0  0  0  0
   18.5823   -2.5088   47.6930 O   0  0  0  0  0  0  0  0  0  0  0  0
   20.3878   -1.1007   48.2859 O   0  0  0  0  0  0  0  0  0  0  0  0
   20.2097   -1.9360   51.9466 O   0  0  0  0  0  0  0  0  0  0  0  0
   21.9022    0.5215   50.0253 O   0  0  0  0  0  0  0  0  0  0  0  0
   20.2165   -0.5499   53.8195 O   0  0  0  0  0  0  0  0  0  0  0  0
   20.9654    0.3899   54.6087 C   0  0  2  0  0  0  0  0  0  0  0  0
   21.2239   -0.1830   56.0232 C   0  0  1  0  0  0  0  0  0  0  0  0
   19.9015   -0.3433   56.8341 C   0  0  2  0  0  0  0  0  0  0  0  0
   19.1969    1.0407   56.9487 C   0  0  1  0  0  0  0  0  0  0  0  0
   18.8919    1.5265   55.4709 C   0  0  1  0  0  0  0  0  0  0  0  0
   18.2102    2.8917   55.4473 C   0  0  0  0  0  0  0  0  0  0  0  0
   17.9323    0.8901   57.7238 N   0  0  0  0  0  0  0  0  0  0  0  0
   20.1943    1.6548   54.7260 O   0  0  0  0  0  0  0  0  0  0  0  0
   21.9098   -1.4386   55.8564 O   0  0  0  0  0  0  0  0  0  0  0  0
   20.2243   -0.8221   58.1228 O   0  0  0  0  0  0  0  0  0  0  0  0
   19.0786    3.8568   55.9797 O   0  0  0  0  0  0  0  0  0  0  0  0
   18.0889   -3.4853   46.7993 C   0  0  1  0  0  0  0  0  0  0  0  0
   16.7392   -4.0288   47.3690 C   0  0  1  0  0  0  0  0  0  0  0  0
   16.1996   -5.1292   46.4094 C   0  0  2  0  0  0  0  0  0  0  0  0
   15.9795   -4.5551   44.9757 C   0  0  1  0  0  0  0  0  0  0  0  0
   17.3341   -3.9940   44.3969 C   0  0  0  0  0  0  0  0  0  0  0  0
   17.8768   -2.8697   45.3735 C   0  0  2  0  0  0  0  0  0  0  0  0
   15.4691   -5.6267   44.0764 N   0  0  0  0  0  0  0  0  0  0  0  0
   19.1462   -2.3459   44.8209 N   0  0  0  0  0  0  0  0  0  0  0  0
   16.9416   -4.6011   48.6747 O   0  0  0  0  0  0  0  0  0  0  0  0
   14.9737   -5.5994   46.9450 O   0  0  0  0  0  0  0  0  0  0  0  0
  1  2  1  0  0  0  0
  1 12  1  1  0  0  0
  1 13  1  0  0  0  0
  2  3  1  0  0  0  0
  2 10  1  6  0  0  0
  4  3  1  6  0  0  0
  4  5  1  0  0  0  0
  4 14  1  0  0  0  0
  5  6  1  0  0  0  0
  5 13  1  6  0  0  0
  6  7  1  0  0  0  0
  6 15  1  1  0  0  0
  7  8  1  0  0  0  0
  7 11  1  1  0  0  0
  8 14  1  0  0  0  0
  8 16  1  1  0  0  0
  9 11  1  0  0  0  0
 17 16  1  6  0  0  0
 17 18  1  0  0  0  0
 17 24  1  0  0  0  0
 18 19  1  0  0  0  0
 18 25  1  6  0  0  0
 19 20  1  0  0  0  0
 19 26  1  1  0  0  0
 20 21  1  0  0  0  0
 20 23  1  1  0  0  0
 21 22  1  1  0  0  0
 21 24  1  0  0  0  0
 22 27  1  0  0  0  0
 28 12  1  1  0  0  0
 28 29  1  0  0  0  0
 28 33  1  0  0  0  0
 29 30  1  0  0  0  0
 29 36  1  1  0  0  0
 30 31  1  0  0  0  0
 30 37  1  1  0  0  0
 31 32  1  0  0  0  0
 31 34  1  6  0  0  0
 32 33  1  0  0  0  0
 33 35  1  6  0  0  0
M  END
>  <CHROM.1>
-77.28061818,88.40759052,-78.73909469,-140.14976644,63.75728753,148.99749919
19.22241527,-1.33638044,50.94472952,-1.94342417,0.91713160,1.37539004

>  <Name>
2oe8_lig

>  <RI>
0

>  <Rbt.Current_Directory>
/home/itssahil/PROJECTS/Mol_Feturizer/New_Systems/rnas/2oe8

>  <Rbt.Executable>
rbdock ($Id: //depot/dev/client3/rdock/2013.1/src/exe/rbdock.cxx#4 $)

>  <Rbt.Library>
libRbt.so (2013.1, Build901 2013/11/27)

>  <Rbt.Parameter_File>
/export/apps/rDock/src/rDock_2013.1_src/data/scripts/dock_solv.prm

>  <Rbt.Receptor>
prm/pocket_docking_4.prm

>  <SCORE>
-14.9629

>  <SCORE.INTER>
-15.4723

>  <SCORE.INTER.CONST>
1

>  <SCORE.INTER.POLAR>
-1.32984

>  <SCORE.INTER.ROT>
6

>  <SCORE.INTER.SOLV>
16.0816

>  <SCORE.INTER.VDW>
-18.8426

>  <SCORE.INTER.norm>
-0.418171

>  <SCORE.INTRA>
0.509392

>  <SCORE.INTRA.DIHEDRAL>
-3.62718

>  <SCORE.INTRA.DIHEDRAL.0>
16.4056

>  <SCORE.INTRA.POLAR>
0

>  <SCORE.INTRA.POLAR.0>
0

>  <SCORE.INTRA.REPUL>
0

>  <SCORE.INTRA.REPUL.0>
0

>  <SCORE.INTRA.SOLV>
2.48701

>  <SCORE.INTRA.SOLV.lig_0>
-90.9627

>  <SCORE.INTRA.VDW>
1.07948

>  <SCORE.INTRA.VDW.0>
-3.28744

>  <SCORE.INTRA.norm>
0.0137673

>  <SCORE.RESTR>
0

>  <SCORE.RESTR.CAVITY>
0

>  <SCORE.RESTR.norm>
0

>  <SCORE.SYSTEM>
0

>  <SCORE.SYSTEM.CONST>
0

>  <SCORE.SYSTEM.DIHEDRAL>
0

>  <SCORE.SYSTEM.SOLV>
0

>  <SCORE.SYSTEM.norm>
0

>  <SCORE.heavy>
37

>  <SCORE.norm>
-0.404403

>  <RMSD>
9.993

$$$$
2oe8_lig
 OpenBabel11021811463D
libRbt.so/2013.1/901 2013/11/27
 37 40  0  0  0  0  0  0  0  0999 V2000
   21.6971   -2.1829   49.5073 C   0  0  1  0  0  0  0  0  0  0  0  0
   23.0331   -2.2152   50.3424 C   0  0  1  0  0  0  0  0  0  0  0  0
   22.6985   -2.1152   51.8453 C   0  0  0  0  0  0  0  0  0  0  0  0
   21.9451   -0.7612   52.0319 C   0  0  1  0  0  0  0  0  0  0  0  0
   20.5839   -0.7052   51.1658 C   0  0  1  0  0  0  0  0  0  0  0  0
   19.8359    0.6501   51.3315 C   0  0  1  0  0  0  0  0  0  0  0  0
   19.5297    0.8339   52.8740 C   0  0  1  0  0  0  0  0  0  0  0  0
   20.8745    0.7261   53.6739 C   0  0  2  0  0  0  0  0  0  0  0  0
   19.4628    3.4513   52.6707 C   0  0  0  0  0  0  0  0  0  0  0  0
   23.7872   -3.4815   50.0778 N   0  0  0  0  0  0  0  0  0  0  0  0
   18.8343    2.1653   53.1448 N   0  0  0  0  0  0  0  0  0  0  0  0
   20.8473   -3.2925   49.8246 O   0  0  0  0  0  0  0  0  0  0  0  0
   20.9250   -0.9297   49.7541 O   0  0  0  0  0  0  0  0  0  0  0  0
   21.5975   -0.5573   53.4336 O   0  0  0  0  0  0  0  0  0  0  0  0
   20.6965    1.6701   50.8217 O   0  0  0  0  0  0  0  0  0  0  0  0
   20.6020    0.8240   55.0242 O   0  0  0  0  0  0  0  0  0  0  0  0
   21.4957    0.0507   55.8428 C   0  0  2  0  0  0  0  0  0  0  0  0
   20.7067   -0.6821   56.9546 C   0  0  1  0  0  0  0  0  0  0  0  0
   20.0775    0.3171   57.9733 C   0  0  2  0  0  0  0  0  0  0  0  0
   21.2056    1.1801   58.6118 C   0  0  1  0  0  0  0  0  0  0  0  0
   21.9151    1.9601   57.4280 C   0  0  1  0  0  0  0  0  0  0  0  0
   23.0603    2.8368   57.9268 C   0  0  0  0  0  0  0  0  0  0  0  0
   20.6066    2.1361   59.5863 N   0  0  0  0  0  0  0  0  0  0  0  0
   22.4951    0.9562   56.4671 O   0  0  0  0  0  0  0  0  0  0  0  0
   19.7073   -1.4918   56.3060 O   0  0  0  0  0  0  0  0  0  0  0  0
   19.4195   -0.4261   58.9779 O   0  0  0  0  0  0  0  0  0  0  0  0
   23.9579    2.0549   58.6698 O   0  0  0  0  0  0  0  0  0  0  0  0
   20.1334   -3.7948   48.7138 C   0  0  1  0  0  0  0  0  0  0  0  0
   20.9531   -4.9762   48.1022 C   0  0  1  0  0  0  0  0  0  0  0  0
   20.1928   -5.5192   46.8573 C   0  0  2  0  0  0  0  0  0  0  0  0
   18.7648   -6.0093   47.2501 C   0  0  1  0  0  0  0  0  0  0  0  0
   17.9339   -4.8264   47.8786 C   0  0  0  0  0  0  0  0  0  0  0  0
   18.7082   -4.2806   49.1493 C   0  0  2  0  0  0  0  0  0  0  0  0
   18.0567   -6.5183   46.0429 N   0  0  0  0  0  0  0  0  0  0  0  0
   17.9196   -3.1734   49.7351 N   0  0  0  0  0  0  0  0  0  0  0  0
   22.2577   -4.5223   47.6958 O   0  0  0  0  0  0  0  0  0  0  0  0
   20.9531   -6.5924   46.3270 O   0  0  0  0  0  0  0  0  0  0  0  0
  1  2  1  0  0  0  0
  1 12  1  1  0  0  0
  1 13  1  0  0  0  0
  2  3  1  0  0  0  0
  2 10  1  1  0  0  0
  4  3  1  1  0  0  0
  4  5  1  0  0  0  0
  4 14  1  0  0  0  0
  5  6  1  0  0  0  0
  5 13  1  6  0  0  0
  6  7  1  0  0  0  0
  6 15  1  1  0  0  0
  7  8  1  0  0  0  0
  7 11  1  6  0  0  0
  8 14  1  0  0  0  0
  8 16  1  1  0  0  0
  9 11  1  0  0  0  0
 17 16  1  1  0  0  0
 17 18  1  0  0  0  0
 17 24  1  0  0  0  0
 18 19  1  0  0  0  0
 18 25  1  6  0  0  0
 19 20  1  0  0  0  0
 19 26  1  1  0  0  0
 20 21  1  0  0  0  0
 20 23  1  1  0  0  0
 21 22  1  1  0  0  0
 21 24  1  0  0  0  0
 22 27  1  0  0  0  0
 28 12  1  1  0  0  0
 28 29  1  0  0  0  0
 28 33  1  0  0  0  0
 29 30  1  0  0  0  0
 29 36  1  6  0  0  0
 30 31  1  0  0  0  0
 30 37  1  1  0  0  0
 31 32  1  0  0  0  0
 31 34  1  6  0  0  0
 32 33  1  0  0  0  0
 33 35  1  6  0  0  0
M  END
>  <CHROM.1>
-144.10959700,-54.57536748,147.41756047,-137.21236027,54.47929527,94.13576309
20.76194365,-1.25394415,52.46499369,-1.68102826,-0.32584717,0.96752178

>  <Name>
2oe8_lig

>  <RI>
0

>  <Rbt.Current_Directory>
/home/itssahil/PROJECTS/Mol_Feturizer/New_Systems/rnas/2oe8

>  <Rbt.Executable>
rbdock ($Id: //depot/dev/client3/rdock/2013.1/src/exe/rbdock.cxx#4 $)

>  <Rbt.Library>
libRbt.so (2013.1, Build901 2013/11/27)

>  <Rbt.Parameter_File>
/export/apps/rDock/src/rDock_2013.1_src/data/scripts/dock_solv.prm

>  <Rbt.Receptor>
prm/pocket_docking_4.prm

>  <SCORE>
-7.89353

>  <SCORE.INTER>
-12.4924

>  <SCORE.INTER.CONST>
1

>  <SCORE.INTER.POLAR>
-1.53881

>  <SCORE.INTER.ROT>
6

>  <SCORE.INTER.SOLV>
13.6289

>  <SCORE.INTER.VDW>
-15.3418

>  <SCORE.INTER.norm>
-0.337631

>  <SCORE.INTRA>
4.59883

>  <SCORE.INTRA.DIHEDRAL>
2.70179

>  <SCORE.INTRA.DIHEDRAL.0>
16.4056

>  <SCORE.INTRA.POLAR>
0

>  <SCORE.INTRA.POLAR.0>
0

>  <SCORE.INTRA.REPUL>
0

>  <SCORE.INTRA.REPUL.0>
0

>  <SCORE.INTRA.SOLV>
-0.231957

>  <SCORE.INTRA.SOLV.lig_0>
-90.9627

>  <SCORE.INTRA.VDW>
3.36391

>  <SCORE.INTRA.VDW.0>
-3.28744

>  <SCORE.INTRA.norm>
0.124293

>  <SCORE.RESTR>
0

>  <SCORE.RESTR.CAVITY>
0

>  <SCORE.RESTR.norm>
0

>  <SCORE.SYSTEM>
0

>  <SCORE.SYSTEM.CONST>
0

>  <SCORE.SYSTEM.DIHEDRAL>
0

>  <SCORE.SYSTEM.SOLV>
0

>  <SCORE.SYSTEM.norm>
0

>  <SCORE.heavy>
37

>  <SCORE.norm>
-0.213339

>  <RMSD>
9.998

$$$$
2oe8_lig
 OpenBabel11021811463D
libRbt.so/2013.1/901 2013/11/27
 37 40  0  0  0  0  0  0  0  0999 V2000
   19.3653   -2.3332   48.8186 C   0  0  1  0  0  0  0  0  0  0  0  0
   20.6587   -3.0992   49.2915 C   0  0  1  0  0  0  0  0  0  0  0  0
   20.6498   -3.2148   50.8301 C   0  0  0  0  0  0  0  0  0  0  0  0
   20.6257   -1.7521   51.3740 C   0  0  1  0  0  0  0  0  0  0  0  0
   19.3159   -0.9478   50.8805 C   0  0  1  0  0  0  0  0  0  0  0  0
   19.2937    0.5186   51.4031 C   0  0  1  0  0  0  0  0  0  0  0  0
   19.3539    0.4563   52.9841 C   0  0  1  0  0  0  0  0  0  0  0  0
   20.6155   -0.3720   53.4110 C   0  0  2  0  0  0  0  0  0  0  0  0
   18.2454    2.8110   53.3356 C   0  0  0  0  0  0  0  0  0  0  0  0
   20.7104   -4.4670   48.6843 N   0  0  0  0  0  0  0  0  0  0  0  0
   19.3840    1.8561   53.5918 N   0  0  0  0  0  0  0  0  0  0  0  0
   18.1706   -3.0368   49.1815 O   0  0  0  0  0  0  0  0  0  0  0  0
   19.2890   -0.9655   49.4113 O   0  0  0  0  0  0  0  0  0  0  0  0
   20.6360   -1.7477   52.8324 O   0  0  0  0  0  0  0  0  0  0  0  0
   20.4268    1.1823   50.8407 O   0  0  0  0  0  0  0  0  0  0  0  0
   20.6359   -0.4803   54.7876 O   0  0  0  0  0  0  0  0  0  0  0  0
   21.4900    0.4865   55.4221 C   0  0  2  0  0  0  0  0  0  0  0  0
   22.0216   -0.0671   56.7662 C   0  0  1  0  0  0  0  0  0  0  0  0
   20.8766   -0.2575   57.8078 C   0  0  2  0  0  0  0  0  0  0  0  0
   20.1655    1.1073   58.0464 C   0  0  1  0  0  0  0  0  0  0  0  0
   19.5792    1.5721   56.6488 C   0  0  1  0  0  0  0  0  0  0  0  0
   18.8656    2.9175   56.7475 C   0  0  0  0  0  0  0  0  0  0  0  0
   19.0706    0.9279   59.0422 N   0  0  0  0  0  0  0  0  0  0  0  0
   20.7175    1.7304   55.6759 O   0  0  0  0  0  0  0  0  0  0  0  0
   22.7010   -1.3045   56.4794 O   0  0  0  0  0  0  0  0  0  0  0  0
   21.4455   -0.7163   59.0162 O   0  0  0  0  0  0  0  0  0  0  0  0
   19.7848    3.9070   57.1283 O   0  0  0  0  0  0  0  0  0  0  0  0
   17.8941   -4.1478   48.3538 C   0  0  1  0  0  0  0  0  0  0  0  0
   17.1163   -5.2048   49.2018 C   0  0  1  0  0  0  0  0  0  0  0  0
   16.8324   -6.4488   48.3102 C   0  0  2  0  0  0  0  0  0  0  0  0
   15.9946   -6.0520   47.0555 C   0  0  1  0  0  0  0  0  0  0  0  0
   16.7669   -4.9771   46.1994 C   0  0  0  0  0  0  0  0  0  0  0  0
   17.0483   -3.7099   47.1089 C   0  0  2  0  0  0  0  0  0  0  0  0
   15.7413   -7.2563   46.2170 N   0  0  0  0  0  0  0  0  0  0  0  0
   17.7700   -2.7046   46.2966 N   0  0  0  0  0  0  0  0  0  0  0  0
   17.9014   -5.6101   50.3387 O   0  0  0  0  0  0  0  0  0  0  0  0
   16.1213   -7.3873   49.1004 O   0  0  0  0  0  0  0  0  0  0  0  0
  1  2  1  0  0  0  0
  1 12  1  1  0  0  0
  1 13  1  0  0  0  0
  2  3  1  0  0  0  0
  2 10  1  6  0  0  0
  4  3  1  1  0  0  0
  4  5  1  0  0  0  0
  4 14  1  0  0  0  0
  5  6  1  0  0  0  0
  5 13  1  6  0  0  0
  6  7  1  0  0  0  0
  6 15  1  6  0  0  0
  7  8  1  0  0  0  0
  7 11  1  1  0  0  0
  8 14  1  0  0  0  0
  8 16  1  1  0  0  0
  9 11  1  0  0  0  0
 17 16  1  1  0  0  0
 17 18  1  0  0  0  0
 17 24  1  0  0  0  0
 18 19  1  0  0  0  0
 18 25  1  6  0  0  0
 19 20  1  0  0  0  0
 19 26  1  1  0  0  0
 20 21  1  0  0  0  0
 20 23  1  1  0  0  0
 21 22  1  1  0  0  0
 21 24  1  0  0  0  0
 22 27  1  0  0  0  0
 28 12  1  1  0  0  0
 28 29  1  0  0  0  0
 28 33  1  0  0  0  0
 29 30  1  0  0  0  0
 29 36  1  1  0  0  0
 30 31  1  0  0  0  0
 30 37  1  1  0  0  0
 31 32  1  0  0  0  0
 31 34  1  6  0  0  0
 32 33  1  0  0  0  0
 33 35  1  6  0  0  0
M  END
>  <CHROM.1>
-76.83074508,60.02815881,-97.56229022,-152.14024450,62.81505258,150.76241592
19.29673914,-1.56254576,52.17665495,2.81915622,1.28277302,2.86640731

>  <Name>
2oe8_lig

>  <RI>
0

>  <Rbt.Current_Directory>
/home/itssahil/PROJECTS/Mol_Feturizer/New_Systems/rnas/2oe8

>  <Rbt.Executable>
rbdock ($Id: //depot/dev/client3/rdock/2013.1/src/exe/rbdock.cxx#4 $)

>  <Rbt.Library>
libRbt.so (2013.1, Build901 2013/11/27)

>  <Rbt.Parameter_File>
/export/apps/rDock/src/rDock_2013.1_src/data/scripts/dock_solv.prm

>  <Rbt.Receptor>
prm/pocket_docking_3.prm

>  <SCORE>
-20.6064

>  <SCORE.INTER>
-20.6371

>  <SCORE.INTER.CONST>
1

>  <SCORE.INTER.POLAR>
-1.98754

>  <SCORE.INTER.ROT>
6

>  <SCORE.INTER.SOLV>
14.3227

>  <SCORE.INTER.VDW>
-19.5072

>  <SCORE.INTER.norm>
-0.557759

>  <SCORE.INTRA>
0.0272123

>  <SCORE.INTRA.DIHEDRAL>
-3.41928

>  <SCORE.INTRA.DIHEDRAL.0>
16.4056

>  <SCORE.INTRA.POLAR>
0

>  <SCORE.INTRA.POLAR.0>
0

>  <SCORE.INTRA.REPUL>
0

>  <SCORE.INTRA.REPUL.0>
0

>  <SCORE.INTRA.SOLV>
2.73878

>  <SCORE.INTRA.SOLV.lig_0>
-90.9627

>  <SCORE.INTRA.VDW>
0.367465

>  <SCORE.INTRA.VDW.0>
-3.28744

>  <SCORE.INTRA.norm>
0.000735467

>  <SCORE.RESTR>
0.00343997

>  <SCORE.RESTR.CAVITY>
0.00343997

>  <SCORE.RESTR.norm>
9.29721e-05

>  <SCORE.SYSTEM>
0

>  <SCORE.SYSTEM.CONST>
0

>  <SCORE.SYSTEM.DIHEDRAL>
0

>  <SCORE.SYSTEM.SOLV>
0

>  <SCORE.SYSTEM.norm>
0

>  <SCORE.heavy>
37

>  <SCORE.norm>
-0.55693

>  <RMSD>
10.002

$$$$
2oe8_lig
 OpenBabel11021811463D
libRbt.so/2013.1/901 2013/11/27
 37 40  0  0  0  0  0  0  0  0999 V2000
   19.4663   -2.4036   49.2978 C   0  0  1  0  0  0  0  0  0  0  0  0
   20.6174   -3.0603   50.1504 C   0  0  1  0  0  0  0  0  0  0  0  0
   20.2624   -2.9625   51.6487 C   0  0  0  0  0  0  0  0  0  0  0  0
   20.1221   -1.4400   51.9619 C   0  0  1  0  0  0  0  0  0  0  0  0
   18.9598   -0.7487   51.0804 C   0  0  1  0  0  0  0  0  0  0  0  0
   18.8261    0.7746   51.3729 C   0  0  1  0  0  0  0  0  0  0  0  0
   18.5291    0.9331   52.9201 C   0  0  1  0  0  0  0  0  0  0  0  0
   19.6593    0.2075   53.7300 C   0  0  2  0  0  0  0  0  0  0  0  0
   17.8929    2.7808   54.6745 C   0  0  0  0  0  0  0  0  0  0  0  0
   20.7992   -4.4969   49.7689 N   0  0  0  0  0  0  0  0  0  0  0  0
   18.4270    2.4037   53.3157 N   0  0  0  0  0  0  0  0  0  0  0  0
   18.2180   -3.0836   49.4804 O   0  0  0  0  0  0  0  0  0  0  0  0
   19.2638   -0.9699   49.6598 O   0  0  0  0  0  0  0  0  0  0  0  0
   19.8043   -1.2338   53.3703 O   0  0  0  0  0  0  0  0  0  0  0  0
   20.0591    1.3859   50.9896 O   0  0  0  0  0  0  0  0  0  0  0  0
   19.3693    0.2909   55.0776 O   0  0  0  0  0  0  0  0  0  0  0  0
   20.4912   -0.0190   55.9215 C   0  0  2  0  0  0  0  0  0  0  0  0
   20.0829    0.0715   57.4118 C   0  0  1  0  0  0  0  0  0  0  0  0
   19.7270    1.5319   57.8274 C   0  0  2  0  0  0  0  0  0  0  0  0
   20.9520    2.4559   57.5615 C   0  0  1  0  0  0  0  0  0  0  0  0
   21.2616    2.3755   56.0088 C   0  0  1  0  0  0  0  0  0  0  0  0
   22.4627    3.2331   55.6205 C   0  0  0  0  0  0  0  0  0  0  0  0
   20.6143    3.8527   57.9584 N   0  0  0  0  0  0  0  0  0  0  0  0
   21.5870    0.9486   55.6543 O   0  0  0  0  0  0  0  0  0  0  0  0
   18.9761   -0.8295   57.6066 O   0  0  0  0  0  0  0  0  0  0  0  0
   19.4142    1.5395   59.2045 O   0  0  0  0  0  0  0  0  0  0  0  0
   23.6250    2.6971   56.1956 O   0  0  0  0  0  0  0  0  0  0  0  0
   18.0240   -4.1610   48.5874 C   0  0  1  0  0  0  0  0  0  0  0  0
   17.2222   -5.2745   49.3351 C   0  0  1  0  0  0  0  0  0  0  0  0
   17.0285   -6.4818   48.3719 C   0  0  2  0  0  0  0  0  0  0  0  0
   16.2617   -6.0468   47.0849 C   0  0  1  0  0  0  0  0  0  0  0  0
   17.0580   -4.9153   46.3297 C   0  0  0  0  0  0  0  0  0  0  0  0
   17.2476   -3.6856   47.3116 C   0  0  2  0  0  0  0  0  0  0  0  0
   16.0940   -7.2164   46.1785 N   0  0  0  0  0  0  0  0  0  0  0  0
   17.9925   -2.6269   46.5935 N   0  0  0  0  0  0  0  0  0  0  0  0
   17.9441   -5.7137   50.5009 O   0  0  0  0  0  0  0  0  0  0  0  0
   16.2937   -7.4726   49.0715 O   0  0  0  0  0  0  0  0  0  0  0  0
  1  2  1  0  0  0  0
  1 12  1  1  0  0  0
  1 13  1  0  0  0  0
  2  3  1  0  0  0  0
  2 10  1  6  0  0  0
  4  3  1  1  0  0  0
  4  5  1  0  0  0  0
  4 14  1  0  0  0  0
  5  6  1  0  0  0  0
  5 13  1  6  0  0  0
  6  7  1  0  0  0  0
  6 15  1  1  0  0  0
  7  8  1  0  0  0  0
  7 11  1  1  0  0  0
  8 14  1  0  0  0  0
  8 16  1  1  0  0  0
  9 11  1  0  0  0  0
 17 16  1  6  0  0  0
 17 18  1  0  0  0  0
 17 24  1  0  0  0  0
 18 19  1  0  0  0  0
 18 25  1  6  0  0  0
 19 20  1  0  0  0  0
 19 26  1  1  0  0  0
 20 21  1  0  0  0  0
 20 23  1  6  0  0  0
 21 22  1  1  0  0  0
 21 24  1  0  0  0  0
 22 27  1  0  0  0  0
 28 12  1  1  0  0  0
 28 29  1  0  0  0  0
 28 33  1  0  0  0  0
 29 30  1  0  0  0  0
 29 36  1  1  0  0  0
 30 31  1  0  0  0  0
 30 37  1  1  0  0  0
 31 32  1  0  0  0  0
 31 34  1  6  0  0  0
 32 33  1  0  0  0  0
 33 35  1  6  0  0  0
M  END
>  <CHROM.1>
-88.40664811,168.34532921,-164.42807392,-179.00465967,66.76464833,145.93559743
19.22020531,-1.25980260,52.34715064,-2.36488779,1.18592520,1.63882910

>  <Name>
2oe8_lig

>  <RI>
0

>  <Rbt.Current_Directory>
/home/itssahil/PROJECTS/Mol_Feturizer/New_Systems/rnas/2oe8

>  <Rbt.Executable>
rbdock ($Id: //depot/dev/client3/rdock/2013.1/src/exe/rbdock.cxx#4 $)

>  <Rbt.Library>
libRbt.so (2013.1, Build901 2013/11/27)

>  <Rbt.Parameter_File>
/export/apps/rDock/src/rDock_2013.1_src/data/scripts/dock_solv.prm

>  <Rbt.Receptor>
prm/pocket_docking_4.prm

>  <SCORE>
-22.8454

>  <SCORE.INTER>
-19.6915

>  <SCORE.INTER.CONST>
1

>  <SCORE.INTER.POLAR>
-2.01323

>  <SCORE.INTER.ROT>
6

>  <SCORE.INTER.SOLV>
15.7105

>  <SCORE.INTER.VDW>
-19.2538

>  <SCORE.INTER.norm>
-0.532203

>  <SCORE.INTRA>
-3.34714

>  <SCORE.INTRA.DIHEDRAL>
-7.30859

>  <SCORE.INTRA.DIHEDRAL.0>
16.4056

>  <SCORE.INTRA.POLAR>
0

>  <SCORE.INTRA.POLAR.0>
0

>  <SCORE.INTRA.REPUL>
0

>  <SCORE.INTRA.REPUL.0>
0

>  <SCORE.INTRA.SOLV>
0.741248

>  <SCORE.INTRA.SOLV.lig_0>
-90.9627

>  <SCORE.INTRA.VDW>
-0.0634693

>  <SCORE.INTRA.VDW.0>
-3.28744

>  <SCORE.INTRA.norm>
-0.0904633

>  <SCORE.RESTR>
0.193272

>  <SCORE.RESTR.CAVITY>
0.193272

>  <SCORE.RESTR.norm>
0.00522358

>  <SCORE.SYSTEM>
0

>  <SCORE.SYSTEM.CONST>
0

>  <SCORE.SYSTEM.DIHEDRAL>
0

>  <SCORE.SYSTEM.SOLV>
0

>  <SCORE.SYSTEM.norm>
0

>  <SCORE.heavy>
37

>  <SCORE.norm>
-0.617443

>  <RMSD>
10.003

$$$$
2oe8_lig
 OpenBabel11021811463D
libRbt.so/2013.1/901 2013/11/27
 37 40  0  0  0  0  0  0  0  0999 V2000
   20.3586   -0.8531   49.4094 C   0  0  1  0  0  0  0  0  0  0  0  0
   21.7890   -0.1924   49.4397 C   0  0  1  0  0  0  0  0  0  0  0  0
   22.2729   -0.0891   50.9012 C   0  0  0  0  0  0  0  0  0  0  0  0
   21.2232    0.7959   51.6433 C   0  0  1  0  0  0  0  0  0  0  0  0
   19.7479    0.1416   51.6028 C   0  0  1  0  0  0  0  0  0  0  0  0
   18.6908    1.0278   52.3246 C   0  0  1  0  0  0  0  0  0  0  0  0
   19.1796    1.2226   53.8179 C   0  0  1  0  0  0  0  0  0  0  0  0
   20.6312    1.8163   53.8026 C   0  0  2  0  0  0  0  0  0  0  0  0
   18.2248    2.0872   56.1065 C   0  0  0  0  0  0  0  0  0  0  0  0
   22.7609   -1.0077   48.6441 N   0  0  0  0  0  0  0  0  0  0  0  0
   18.2259    2.1225   54.5990 N   0  0  0  0  0  0  0  0  0  0  0  0
   20.3784   -2.1835   49.9419 O   0  0  0  0  0  0  0  0  0  0  0  0
   19.3699   -0.0594   50.1970 O   0  0  0  0  0  0  0  0  0  0  0  0
   21.6002    0.9745   53.0408 O   0  0  0  0  0  0  0  0  0  0  0  0
   18.6188    2.2625   51.6096 O   0  0  0  0  0  0  0  0  0  0  0  0
   21.0833    1.9289   55.1026 O   0  0  0  0  0  0  0  0  0  0  0  0
   22.4010    2.4954   55.2000 C   0  0  2  0  0  0  0  0  0  0  0  0
   22.9023    2.4399   56.6634 C   0  0  1  0  0  0  0  0  0  0  0  0
   22.0582    3.3575   57.6002 C   0  0  2  0  0  0  0  0  0  0  0  0
   22.1218    4.8234   57.0787 C   0  0  1  0  0  0  0  0  0  0  0  0
   21.5210    4.8172   55.6116 C   0  0  1  0  0  0  0  0  0  0  0  0
   21.5427    6.2060   54.9793 C   0  0  0  0  0  0  0  0  0  0  0  0
   21.3157    5.7028   57.9729 N   0  0  0  0  0  0  0  0  0  0  0  0
   22.3598    3.9111   54.7498 O   0  0  0  0  0  0  0  0  0  0  0  0
   22.8590    1.0609   57.0774 O   0  0  0  0  0  0  0  0  0  0  0  0
   22.6050    3.2900   58.9006 O   0  0  0  0  0  0  0  0  0  0  0  0
   20.9819    6.1432   53.6945 O   0  0  0  0  0  0  0  0  0  0  0  0
   19.2798   -2.9729   49.5346 C   0  0  1  0  0  0  0  0  0  0  0  0
   19.5460   -3.4606   48.0741 C   0  0  1  0  0  0  0  0  0  0  0  0
   18.3279   -4.3063   47.6008 C   0  0  2  0  0  0  0  0  0  0  0  0
   18.1060   -5.5324   48.5393 C   0  0  1  0  0  0  0  0  0  0  0  0
   17.8478   -5.0503   50.0177 C   0  0  0  0  0  0  0  0  0  0  0  0
   19.0928   -4.1950   50.4979 C   0  0  2  0  0  0  0  0  0  0  0  0
   16.9336   -6.3213   48.0695 N   0  0  0  0  0  0  0  0  0  0  0  0
   18.8438   -3.7498   51.8875 N   0  0  0  0  0  0  0  0  0  0  0  0
   19.7079   -2.3341   47.1921 O   0  0  0  0  0  0  0  0  0  0  0  0
   18.5979   -4.7411   46.2783 O   0  0  0  0  0  0  0  0  0  0  0  0
  1  2  1  0  0  0  0
  1 12  1  1  0  0  0
  1 13  1  0  0  0  0
  2  3  1  0  0  0  0
  2 10  1  6  0  0  0
  4  3  1  1  0  0  0
  4  5  1  0  0  0  0
  4 14  1  0  0  0  0
  5  6  1  0  0  0  0
  5 13  1  6  0  0  0
  6  7  1  0  0  0  0
  6 15  1  6  0  0  0
  7  8  1  0  0  0  0
  7 11  1  1  0  0  0
  8 14  1  0  0  0  0
  8 16  1  1  0  0  0
  9 11  1  0  0  0  0
 17 16  1  1  0  0  0
 17 18  1  0  0  0  0
 17 24  1  0  0  0  0
 18 19  1  0  0  0  0
 18 25  1  1  0  0  0
 19 20  1  0  0  0  0
 19 26  1  1  0  0  0
 20 21  1  0  0  0  0
 20 23  1  1  0  0  0
 21 22  1  6  0  0  0
 21 24  1  0  0  0  0
 22 27  1  0  0  0  0
 28 12  1  1  0  0  0
 28 29  1  0  0  0  0
 28 33  1  0  0  0  0
 29 30  1  0  0  0  0
 29 36  1  6  0  0  0
 30 31  1  0  0  0  0
 30 37  1  6  0  0  0
 31 32  1  0  0  0  0
 31 34  1  6  0  0  0
 32 33  1  0  0  0  0
 33 35  1  1  0  0  0
M  END
>  <CHROM.1>
-159.51647852,159.97350021,-178.64425764,-173.52164638,-179.09515310,78.06914541
20.36451205,0.34962186,52.43303566,-2.12474210,1.10252212,1.29183756

>  <Name>
2oe8_lig

>  <RI>
0

>  <Rbt.Current_Directory>
/home/itssahil/PROJECTS/Mol_Feturizer/New_Systems/rnas/2oe8

>  <Rbt.Executable>
rbdock ($Id: //depot/dev/client3/rdock/2013.1/src/exe/rbdock.cxx#4 $)

>  <Rbt.Library>
libRbt.so (2013.1, Build901 2013/11/27)

>  <Rbt.Parameter_File>
/export/apps/rDock/src/rDock_2013.1_src/data/scripts/dock_solv.prm

>  <Rbt.Receptor>
prm/pocket_docking_6.prm

>  <SCORE>
-24.2212

>  <SCORE.INTER>
-17.7494

>  <SCORE.INTER.CONST>
1

>  <SCORE.INTER.POLAR>
-2.04853

>  <SCORE.INTER.ROT>
6

>  <SCORE.INTER.SOLV>
17.8485

>  <SCORE.INTER.VDW>
-18.554

>  <SCORE.INTER.norm>
-0.479714

>  <SCORE.INTRA>
-6.47175

>  <SCORE.INTRA.DIHEDRAL>
-12.458

>  <SCORE.INTRA.DIHEDRAL.0>
16.4056

>  <SCORE.INTRA.POLAR>
0

>  <SCORE.INTRA.POLAR.0>
0

>  <SCORE.INTRA.REPUL>
0

>  <SCORE.INTRA.REPUL.0>
0

>  <SCORE.INTRA.SOLV>
-2.3249

>  <SCORE.INTRA.SOLV.lig_0>
-90.9627

>  <SCORE.INTRA.VDW>
0.919715

>  <SCORE.INTRA.VDW.0>
-3.28744

>  <SCORE.INTRA.norm>
-0.174912

>  <SCORE.RESTR>
0

>  <SCORE.RESTR.CAVITY>
0

>  <SCORE.RESTR.norm>
0

>  <SCORE.SYSTEM>
0

>  <SCORE.SYSTEM.CONST>
0

>  <SCORE.SYSTEM.DIHEDRAL>
0

>  <SCORE.SYSTEM.SOLV>
0

>  <SCORE.SYSTEM.norm>
0

>  <SCORE.heavy>
37

>  <SCORE.norm>
-0.654626

>  <RMSD>
10.003

$$$$
2oe8_lig
 OpenBabel11021811463D
libRbt.so/2013.1/901 2013/11/27
 37 40  0  0  0  0  0  0  0  0999 V2000
   20.4163   -3.6064   47.6957 C   0  0  1  0  0  0  0  0  0  0  0  0
   19.0516   -3.7834   48.4636 C   0  0  1  0  0  0  0  0  0  0  0  0
   18.5443   -2.4023   48.9283 C   0  0  0  0  0  0  0  0  0  0  0  0
   19.6522   -1.8269   49.8650 C   0  0  1  0  0  0  0  0  0  0  0  0
   21.0623   -1.6593   49.0973 C   0  0  1  0  0  0  0  0  0  0  0  0
   22.1782   -1.1036   50.0301 C   0  0  1  0  0  0  0  0  0  0  0  0
   21.6736    0.2883   50.5912 C   0  0  1  0  0  0  0  0  0  0  0  0
   20.2827    0.0806   51.2857 C   0  0  2  0  0  0  0  0  0  0  0  0
   23.7719    1.8024   51.0393 C   0  0  0  0  0  0  0  0  0  0  0  0
   18.0289   -4.4228   47.5762 N   0  0  0  0  0  0  0  0  0  0  0  0
   22.6862    0.8942   51.5591 N   0  0  0  0  0  0  0  0  0  0  0  0
   20.2629   -2.7972   46.5228 O   0  0  0  0  0  0  0  0  0  0  0  0
   21.4540   -2.9693   48.5589 O   0  0  0  0  0  0  0  0  0  0  0  0
   19.2597   -0.5200   50.3799 O   0  0  0  0  0  0  0  0  0  0  0  0
   22.3792   -2.0675   51.0651 O   0  0  0  0  0  0  0  0  0  0  0  0
   19.8119    1.3036   51.7210 O   0  0  0  0  0  0  0  0  0  0  0  0
   18.6339    1.2018   52.5389 C   0  0  2  0  0  0  0  0  0  0  0  0
   18.3161    2.5674   53.1945 C   0  0  1  0  0  0  0  0  0  0  0  0
   19.4153    2.9890   54.2173 C   0  0  2  0  0  0  0  0  0  0  0  0
   19.5412    1.8946   55.3181 C   0  0  1  0  0  0  0  0  0  0  0  0
   19.9452    0.5481   54.5854 C   0  0  1  0  0  0  0  0  0  0  0  0
   20.0850   -0.6150   55.5634 C   0  0  0  0  0  0  0  0  0  0  0  0
   20.5913    2.2955   56.2974 N   0  0  0  0  0  0  0  0  0  0  0  0
   18.8624    0.1893   53.6024 O   0  0  0  0  0  0  0  0  0  0  0  0
   18.1720    3.5282   52.1311 O   0  0  0  0  0  0  0  0  0  0  0  0
   19.0306    4.2142   54.8050 O   0  0  0  0  0  0  0  0  0  0  0  0
   21.2230   -0.4205   56.3610 O   0  0  0  0  0  0  0  0  0  0  0  0
   19.5742   -3.4456   45.4735 C   0  0  1  0  0  0  0  0  0  0  0  0
   18.3771   -2.5382   45.0431 C   0  0  1  0  0  0  0  0  0  0  0  0
   17.5901   -3.2557   43.9079 C   0  0  2  0  0  0  0  0  0  0  0  0
   18.5147   -3.5337   42.6826 C   0  0  1  0  0  0  0  0  0  0  0  0
   19.7318   -4.4397   43.1098 C   0  0  0  0  0  0  0  0  0  0  0  0
   20.5340   -3.7028   44.2613 C   0  0  2  0  0  0  0  0  0  0  0  0
   17.7412   -4.2245   41.6139 N   0  0  0  0  0  0  0  0  0  0  0  0
   21.6766   -4.5582   44.6536 N   0  0  0  0  0  0  0  0  0  0  0  0
   17.4942   -2.3127   46.1579 O   0  0  0  0  0  0  0  0  0  0  0  0
   16.5160   -2.4095   43.5322 O   0  0  0  0  0  0  0  0  0  0  0  0
  1  2  1  0  0  0  0
  1 12  1  6  0  0  0
  1 13  1  0  0  0  0
  2  3  1  0  0  0  0
  2 10  1  6  0  0  0
  4  3  1  6  0  0  0
  4  5  1  0  0  0  0
  4 14  1  0  0  0  0
  5  6  1  0  0  0  0
  5 13  1  1  0  0  0
  6  7  1  0  0  0  0
  6 15  1  1  0  0  0
  7  8  1  0  0  0  0
  7 11  1  1  0  0  0
  8 14  1  0  0  0  0
  8 16  1  6  0  0  0
  9 11  1  0  0  0  0
 17 16  1  1  0  0  0
 17 18  1  0  0  0  0
 17 24  1  0  0  0  0
 18 19  1  0  0  0  0
 18 25  1  6  0  0  0
 19 20  1  0  0  0  0
 19 26  1  1  0  0  0
 20 21  1  0  0  0  0
 20 23  1  1  0  0  0
 21 22  1  1  0  0  0
 21 24  1  0  0  0  0
 22 27  1  0  0  0  0
 28 12  1  1  0  0  0
 28 29  1  0  0  0  0
 28 33  1  0  0  0  0
 29 30  1  0  0  0  0
 29 36  1  1  0  0  0
 30 31  1  0  0  0  0
 30 37  1  6  0  0  0
 31 32  1  0  0  0  0
 31 34  1  6  0  0  0
 32 33  1  0  0  0  0
 33 35  1  1  0  0  0
M  END
>  <CHROM.1>
-72.22287135,89.81479194,-171.65344022,169.77870285,-70.04773915,125.89499957
19.78470810,-1.01405333,49.59991326,-1.68731257,-0.48817932,1.02452541

>  <Name>
2oe8_lig

>  <RI>
0

>  <Rbt.Current_Directory>
/home/itssahil/PROJECTS/Mol_Feturizer/New_Systems/rnas/2oe8

>  <Rbt.Executable>
rbdock ($Id: //depot/dev/client3/rdock/2013.1/src/exe/rbdock.cxx#4 $)

>  <Rbt.Library>
libRbt.so (2013.1, Build901 2013/11/27)

>  <Rbt.Parameter_File>
/export/apps/rDock/src/rDock_2013.1_src/data/scripts/dock_solv.prm

>  <Rbt.Receptor>
prm/pocket_docking_5.prm

>  <SCORE>
-22.3623

>  <SCORE.INTER>
-20.7202

>  <SCORE.INTER.CONST>
1

>  <SCORE.INTER.POLAR>
-1.57325

>  <SCORE.INTER.ROT>
6

>  <SCORE.INTER.SOLV>
15.3254

>  <SCORE.INTER.VDW>
-21.2778

>  <SCORE.INTER.norm>
-0.560006

>  <SCORE.INTRA>
-1.64208

>  <SCORE.INTRA.DIHEDRAL>
-6.81456

>  <SCORE.INTRA.DIHEDRAL.0>
16.4056

>  <SCORE.INTRA.POLAR>
0

>  <SCORE.INTRA.POLAR.0>
0

>  <SCORE.INTRA.REPUL>
0

>  <SCORE.INTRA.REPUL.0>
0

>  <SCORE.INTRA.SOLV>
1.5865

>  <SCORE.INTRA.SOLV.lig_0>
-90.9627

>  <SCORE.INTRA.VDW>
0.971953

>  <SCORE.INTRA.VDW.0>
-3.28744

>  <SCORE.INTRA.norm>
-0.0443804

>  <SCORE.RESTR>
0

>  <SCORE.RESTR.CAVITY>
0

>  <SCORE.RESTR.norm>
0

>  <SCORE.SYSTEM>
0

>  <SCORE.SYSTEM.CONST>
0

>  <SCORE.SYSTEM.DIHEDRAL>
0

>  <SCORE.SYSTEM.SOLV>
0

>  <SCORE.SYSTEM.norm>
0

>  <SCORE.heavy>
37

>  <SCORE.norm>
-0.604387

>  <RMSD>
10.004

$$$$
2oe8_lig
 OpenBabel11021811463D
libRbt.so/2013.1/901 2013/11/27
 37 40  0  0  0  0  0  0  0  0999 V2000
   20.9342   -1.5666   51.8895 C   0  0  1  0  0  0  0  0  0  0  0  0
   19.6560   -0.8071   51.3672 C   0  0  1  0  0  0  0  0  0  0  0  0
   19.6490    0.6288   51.9318 C   0  0  0  0  0  0  0  0  0  0  0  0
   19.6272    0.4830   53.4855 C   0  0  1  0  0  0  0  0  0  0  0  0
   20.9210   -0.3117   54.0338 C   0  0  1  0  0  0  0  0  0  0  0  0
   20.8974   -0.4783   55.5816 C   0  0  1  0  0  0  0  0  0  0  0  0
   20.8194    0.9726   56.2106 C   0  0  1  0  0  0  0  0  0  0  0  0
   19.5753    1.7178   55.6132 C   0  0  2  0  0  0  0  0  0  0  0  0
   21.7650    0.1133   58.5050 C   0  0  0  0  0  0  0  0  0  0  0  0
   19.6486   -0.7595   49.8705 N   0  0  0  0  0  0  0  0  0  0  0  0
   20.7442    0.9116   57.7338 N   0  0  0  0  0  0  0  0  0  0  0  0
   22.1428   -0.9346   51.4490 O   0  0  0  0  0  0  0  0  0  0  0  0
   20.9665   -1.6272   53.3804 O   0  0  0  0  0  0  0  0  0  0  0  0
   19.5988    1.7945   54.1228 O   0  0  0  0  0  0  0  0  0  0  0  0
   19.7540   -1.2727   55.9013 O   0  0  0  0  0  0  0  0  0  0  0  0
   19.5408    3.0046   56.1131 O   0  0  0  0  0  0  0  0  0  0  0  0
   18.2559    3.6347   55.9750 C   0  0  2  0  0  0  0  0  0  0  0  0
   18.2209    4.9622   56.7702 C   0  0  1  0  0  0  0  0  0  0  0  0
   18.3271    4.7200   58.3071 C   0  0  2  0  0  0  0  0  0  0  0  0
   17.1556    3.8021   58.7657 C   0  0  1  0  0  0  0  0  0  0  0  0
   17.3017    2.4373   57.9726 C   0  0  1  0  0  0  0  0  0  0  0  0
   16.1929    1.4498   58.3253 C   0  0  0  0  0  0  0  0  0  0  0  0
   17.2547    3.5692   60.2349 N   0  0  0  0  0  0  0  0  0  0  0  0
   17.2049    2.7231   56.4973 O   0  0  0  0  0  0  0  0  0  0  0  0
   19.2974    5.7831   56.2781 O   0  0  0  0  0  0  0  0  0  0  0  0
   18.2392    5.9681   58.9619 O   0  0  0  0  0  0  0  0  0  0  0  0
   16.6500    0.5687   59.3171 O   0  0  0  0  0  0  0  0  0  0  0  0
   23.2808   -1.7673   51.5342 C   0  0  1  0  0  0  0  0  0  0  0  0
   23.0648   -2.9859   50.5803 C   0  0  1  0  0  0  0  0  0  0  0  0
   24.2987   -3.9287   50.6880 C   0  0  2  0  0  0  0  0  0  0  0  0
   25.6081   -3.1746   50.3002 C   0  0  1  0  0  0  0  0  0  0  0  0
   25.8285   -1.9365   51.2505 C   0  0  0  0  0  0  0  0  0  0  0  0
   24.5731   -0.9761   51.1331 C   0  0  2  0  0  0  0  0  0  0  0  0
   26.7731   -4.0949   50.4164 N   0  0  0  0  0  0  0  0  0  0  0  0
   24.7900    0.1850   52.0253 N   0  0  0  0  0  0  0  0  0  0  0  0
   21.8817   -3.7140   50.9588 O   0  0  0  0  0  0  0  0  0  0  0  0
   24.0803   -5.0200   49.8092 O   0  0  0  0  0  0  0  0  0  0  0  0
  1  2  1  0  0  0  0
  1 12  1  1  0  0  0
  1 13  1  0  0  0  0
  2  3  1  0  0  0  0
  2 10  1  6  0  0  0
  4  3  1  6  0  0  0
  4  5  1  0  0  0  0
  4 14  1  0  0  0  0
  5  6  1  0  0  0  0
  5 13  1  6  0  0  0
  6  7  1  0  0  0  0
  6 15  1  6  0  0  0
  7  8  1  0  0  0  0
  7 11  1  1  0  0  0
  8 14  1  0  0  0  0
  8 16  1  1  0  0  0
  9 11  1  0  0  0  0
 17 16  1  1  0  0  0
 17 18  1  0  0  0  0
 17 24  1  0  0  0  0
 18 19  1  0  0  0  0
 18 25  1  6  0  0  0
 19 20  1  0  0  0  0
 19 26  1  1  0  0  0
 20 21  1  0  0  0  0
 20 23  1  1  0  0  0
 21 22  1  1  0  0  0
 21 24  1  0  0  0  0
 22 27  1  0  0  0  0
 28 12  1  6  0  0  0
 28 29  1  0  0  0  0
 28 33  1  0  0  0  0
 29 30  1  0  0  0  0
 29 36  1  1  0  0  0
 30 31  1  0  0  0  0
 30 37  1  6  0  0  0
 31 32  1  0  0  0  0
 31 34  1  1  0  0  0
 32 33  1  0  0  0  0
 33 35  1  1  0  0  0
M  END
>  <CHROM.1>
-161.93588473,52.15706334,-161.81318278,170.08537477,-96.06507235,62.81991469
20.63233044,0.39104792,54.44640406,0.48980721,0.93078290,-1.29498340

>  <Name>
2oe8_lig

>  <RI>
0

>  <Rbt.Current_Directory>
/home/itssahil/PROJECTS/Mol_Feturizer/New_Systems/rnas/2oe8

>  <Rbt.Executable>
rbdock ($Id: //depot/dev/client3/rdock/2013.1/src/exe/rbdock.cxx#4 $)

>  <Rbt.Library>
libRbt.so (2013.1, Build901 2013/11/27)

>  <Rbt.Parameter_File>
/export/apps/rDock/src/rDock_2013.1_src/data/scripts/dock_solv.prm

>  <Rbt.Receptor>
prm/pocket_docking_8.prm

>  <SCORE>
-19.1672

>  <SCORE.INTER>
-16.7067

>  <SCORE.INTER.CONST>
1

>  <SCORE.INTER.POLAR>
-2.24866

>  <SCORE.INTER.ROT>
6

>  <SCORE.INTER.SOLV>
12.1626

>  <SCORE.INTER.VDW>
-15.2965

>  <SCORE.INTER.norm>
-0.451533

>  <SCORE.INTRA>
-2.46053

>  <SCORE.INTRA.DIHEDRAL>
-9.32364

>  <SCORE.INTRA.DIHEDRAL.0>
16.4056

>  <SCORE.INTRA.POLAR>
0

>  <SCORE.INTRA.POLAR.0>
0

>  <SCORE.INTRA.REPUL>
0

>  <SCORE.INTRA.REPUL.0>
0

>  <SCORE.INTRA.SOLV>
-1.85231

>  <SCORE.INTRA.SOLV.lig_0>
-90.9627

>  <SCORE.INTRA.VDW>
3.12744

>  <SCORE.INTRA.VDW.0>
-3.28744

>  <SCORE.INTRA.norm>
-0.0665009

>  <SCORE.RESTR>
0

>  <SCORE.RESTR.CAVITY>
0

>  <SCORE.RESTR.norm>
0

>  <SCORE.SYSTEM>
0

>  <SCORE.SYSTEM.CONST>
0

>  <SCORE.SYSTEM.DIHEDRAL>
0

>  <SCORE.SYSTEM.SOLV>
0

>  <SCORE.SYSTEM.norm>
0

>  <SCORE.heavy>
37

>  <SCORE.norm>
-0.518034

>  <RMSD>
10.005

$$$$
2oe8_lig
 OpenBabel11021811463D
libRbt.so/2013.1/901 2013/11/27
 37 40  0  0  0  0  0  0  0  0999 V2000
   19.1167   -4.5216   47.2317 C   0  0  1  0  0  0  0  0  0  0  0  0
   18.9865   -5.3414   48.5713 C   0  0  1  0  0  0  0  0  0  0  0  0
   18.7351   -4.3691   49.7426 C   0  0  0  0  0  0  0  0  0  0  0  0
   19.9660   -3.4104   49.7812 C   0  0  1  0  0  0  0  0  0  0  0  0
   20.1245   -2.5784   48.4069 C   0  0  1  0  0  0  0  0  0  0  0  0
   21.3616   -1.6334   48.4300 C   0  0  1  0  0  0  0  0  0  0  0  0
   21.1849   -0.6558   49.6629 C   0  0  1  0  0  0  0  0  0  0  0  0
   20.9894   -1.5105   50.9634 C   0  0  2  0  0  0  0  0  0  0  0  0
   22.1527    1.7563   50.0395 C   0  0  0  0  0  0  0  0  0  0  0  0
   17.8581   -6.3214   48.4795 N   0  0  0  0  0  0  0  0  0  0  0  0
   22.3790    0.2851   49.7980 N   0  0  0  0  0  0  0  0  0  0  0  0
   17.9138   -3.8026   46.9317 O   0  0  0  0  0  0  0  0  0  0  0  0
   20.2352   -3.5356   47.2974 O   0  0  0  0  0  0  0  0  0  0  0  0
   19.8370   -2.4550   50.8757 O   0  0  0  0  0  0  0  0  0  0  0  0
   22.5199   -2.4605   48.5524 O   0  0  0  0  0  0  0  0  0  0  0  0
   20.7731   -0.6606   52.0301 O   0  0  0  0  0  0  0  0  0  0  0  0
   21.1690   -1.2207   53.2936 C   0  0  2  0  0  0  0  0  0  0  0  0
   20.6915   -0.3158   54.4550 C   0  0  1  0  0  0  0  0  0  0  0  0
   21.4118    1.0673   54.4459 C   0  0  2  0  0  0  0  0  0  0  0  0
   22.9500    0.8473   54.5498 C   0  0  1  0  0  0  0  0  0  0  0  0
   23.3785   -0.0153   53.2907 C   0  0  1  0  0  0  0  0  0  0  0  0
   24.8748   -0.3150   53.2856 C   0  0  0  0  0  0  0  0  0  0  0  0
   23.6410    2.1683   54.5415 N   0  0  0  0  0  0  0  0  0  0  0  0
   22.6502   -1.3325   53.3370 O   0  0  0  0  0  0  0  0  0  0  0  0
   19.2627   -0.1805   54.3311 O   0  0  0  0  0  0  0  0  0  0  0  0
   20.9606    1.8121   55.5576 O   0  0  0  0  0  0  0  0  0  0  0  0
   25.5903    0.8814   53.1249 O   0  0  0  0  0  0  0  0  0  0  0  0
   17.4268   -4.0334   45.6258 C   0  0  1  0  0  0  0  0  0  0  0  0
   15.8924   -4.3133   45.7211 C   0  0  1  0  0  0  0  0  0  0  0  0
   15.3481   -4.6007   44.2914 C   0  0  2  0  0  0  0  0  0  0  0  0
   15.6103   -3.3890   43.3445 C   0  0  1  0  0  0  0  0  0  0  0  0
   17.1556   -3.0919   43.2510 C   0  0  0  0  0  0  0  0  0  0  0  0
   17.7046   -2.7938   44.7077 C   0  0  2  0  0  0  0  0  0  0  0  0
   15.0861   -3.6901   41.9835 N   0  0  0  0  0  0  0  0  0  0  0  0
   19.1546   -2.5123   44.6103 N   0  0  0  0  0  0  0  0  0  0  0  0
   15.6437   -5.4581   46.5582 O   0  0  0  0  0  0  0  0  0  0  0  0
   13.9557   -4.8440   44.4054 O   0  0  0  0  0  0  0  0  0  0  0  0
  1  2  1  0  0  0  0
  1 12  1  1  0  0  0
  1 13  1  0  0  0  0
  2  3  1  0  0  0  0
  2 10  1  6  0  0  0
  4  3  1  6  0  0  0
  4  5  1  0  0  0  0
  4 14  1  0  0  0  0
  5  6  1  0  0  0  0
  5 13  1  6  0  0  0
  6  7  1  0  0  0  0
  6 15  1  1  0  0  0
  7  8  1  0  0  0  0
  7 11  1  1  0  0  0
  8 14  1  0  0  0  0
  8 16  1  1  0  0  0
  9 11  1  0  0  0  0
 17 16  1  6  0  0  0
 17 18  1  0  0  0  0
 17 24  1  0  0  0  0
 18 19  1  0  0  0  0
 18 25  1  6  0  0  0
 19 20  1  0  0  0  0
 19 26  1  1  0  0  0
 20 21  1  0  0  0  0
 20 23  1  6  0  0  0
 21 22  1  1  0  0  0
 21 24  1  0  0  0  0
 22 27  1  0  0  0  0
 28 12  1  1  0  0  0
 28 29  1  0  0  0  0
 28 33  1  0  0  0  0
 29 30  1  0  0  0  0
 29 36  1  1  0  0  0
 30 31  1  0  0  0  0
 30 37  1  1  0  0  0
 31 32  1  0  0  0  0
 31 34  1  6  0  0  0
 32 33  1  0  0  0  0
 33 35  1  6  0  0  0
M  END
>  <CHROM.1>
-128.00653052,134.19139199,-153.62861761,-170.89758524,-65.70024175,133.26725227
19.84587442,-2.05248150,49.38210150,-2.25334863,0.58201555,1.50085217

>  <Name>
2oe8_lig

>  <RI>
0

>  <Rbt.Current_Directory>
/home/itssahil/PROJECTS/Mol_Feturizer/New_Systems/rnas/2oe8

>  <Rbt.Executable>
rbdock ($Id: //depot/dev/client3/rdock/2013.1/src/exe/rbdock.cxx#4 $)

>  <Rbt.Library>
libRbt.so (2013.1, Build901 2013/11/27)

>  <Rbt.Parameter_File>
/export/apps/rDock/src/rDock_2013.1_src/data/scripts/dock_solv.prm

>  <Rbt.Receptor>
prm/pocket_docking_6.prm

>  <SCORE>
-11.7589

>  <SCORE.INTER>
-12.3531

>  <SCORE.INTER.CONST>
1

>  <SCORE.INTER.POLAR>
-0.649413

>  <SCORE.INTER.ROT>
6

>  <SCORE.INTER.SOLV>
12.3992

>  <SCORE.INTER.VDW>
-17.8037

>  <SCORE.INTER.norm>
-0.333866

>  <SCORE.INTRA>
0.275016

>  <SCORE.INTRA.DIHEDRAL>
1.3061

>  <SCORE.INTRA.DIHEDRAL.0>
16.4056

>  <SCORE.INTRA.POLAR>
0

>  <SCORE.INTRA.POLAR.0>
0

>  <SCORE.INTRA.REPUL>
0

>  <SCORE.INTRA.REPUL.0>
0

>  <SCORE.INTRA.SOLV>
1.07949

>  <SCORE.INTRA.SOLV.lig_0>
-90.9627

>  <SCORE.INTRA.VDW>
-0.91778

>  <SCORE.INTRA.VDW.0>
-3.28744

>  <SCORE.INTRA.norm>
0.00743287

>  <SCORE.RESTR>
0.319127

>  <SCORE.RESTR.CAVITY>
0.319127

>  <SCORE.RESTR.norm>
0.00862505

>  <SCORE.SYSTEM>
0

>  <SCORE.SYSTEM.CONST>
0

>  <SCORE.SYSTEM.DIHEDRAL>
0

>  <SCORE.SYSTEM.SOLV>
0

>  <SCORE.SYSTEM.norm>
0

>  <SCORE.heavy>
37

>  <SCORE.norm>
-0.317809

>  <RMSD>
10.007

$$$$
2oe8_lig
 OpenBabel11021811463D
libRbt.so/2013.1/901 2013/11/27
 37 40  0  0  0  0  0  0  0  0999 V2000
   19.4409   -2.3147   49.3097 C   0  0  1  0  0  0  0  0  0  0  0  0
   20.6446   -2.9323   50.1178 C   0  0  1  0  0  0  0  0  0  0  0  0
   20.3245   -2.8850   51.6264 C   0  0  0  0  0  0  0  0  0  0  0  0
   20.1184   -1.3785   51.9782 C   0  0  1  0  0  0  0  0  0  0  0  0
   18.9011   -0.7262   51.1423 C   0  0  1  0  0  0  0  0  0  0  0  0
   18.7010    0.7819   51.4733 C   0  0  1  0  0  0  0  0  0  0  0  0
   18.4372    0.8916   53.0307 C   0  0  1  0  0  0  0  0  0  0  0  0
   19.6222    0.2050   53.7950 C   0  0  2  0  0  0  0  0  0  0  0  0
   19.3946    3.3285   53.2329 C   0  0  0  0  0  0  0  0  0  0  0  0
   20.8862   -4.3494   49.6987 N   0  0  0  0  0  0  0  0  0  0  0  0
   18.2739    2.3462   53.4627 N   0  0  0  0  0  0  0  0  0  0  0  0
   18.2324   -3.0593   49.5077 O   0  0  0  0  0  0  0  0  0  0  0  0
   19.1783   -0.9009   49.7097 O   0  0  0  0  0  0  0  0  0  0  0  0
   19.8278   -1.2192   53.3985 O   0  0  0  0  0  0  0  0  0  0  0  0
   19.8922    1.4615   51.0735 O   0  0  0  0  0  0  0  0  0  0  0  0
   19.3638    0.2445   55.1510 O   0  0  0  0  0  0  0  0  0  0  0  0
   20.5021   -0.1024   55.9577 C   0  0  2  0  0  0  0  0  0  0  0  0
   20.1181   -0.0998   57.4571 C   0  0  1  0  0  0  0  0  0  0  0  0
   19.7574    1.3315   57.9604 C   0  0  2  0  0  0  0  0  0  0  0  0
   20.9702    2.2801   57.7273 C   0  0  1  0  0  0  0  0  0  0  0  0
   21.2545    2.2902   56.1677 C   0  0  1  0  0  0  0  0  0  0  0  0
   22.4418    3.1792   55.8090 C   0  0  0  0  0  0  0  0  0  0  0  0
   20.6279    3.6492   58.2079 N   0  0  0  0  0  0  0  0  0  0  0  0
   21.5854    0.8886   55.7278 O   0  0  0  0  0  0  0  0  0  0  0  0
   19.0221   -1.0203   57.6187 O   0  0  0  0  0  0  0  0  0  0  0  0
   19.4676    1.2586   59.3407 O   0  0  0  0  0  0  0  0  0  0  0  0
   22.0948    4.5245   56.0066 O   0  0  0  0  0  0  0  0  0  0  0  0
   18.0530   -4.1059   48.5760 C   0  0  1  0  0  0  0  0  0  0  0  0
   17.2327   -5.2403   49.2703 C   0  0  1  0  0  0  0  0  0  0  0  0
   17.0545   -6.4145   48.2641 C   0  0  2  0  0  0  0  0  0  0  0  0
   16.3152   -5.9343   46.9771 C   0  0  1  0  0  0  0  0  0  0  0  0
   17.1302   -4.7817   46.2757 C   0  0  0  0  0  0  0  0  0  0  0  0
   17.3040   -3.5858   47.3012 C   0  0  2  0  0  0  0  0  0  0  0  0
   16.1620   -7.0728   46.0294 N   0  0  0  0  0  0  0  0  0  0  0  0
   18.0665   -2.5069   46.6335 N   0  0  0  0  0  0  0  0  0  0  0  0
   17.9296   -5.7204   50.4352 O   0  0  0  0  0  0  0  0  0  0  0  0
   16.3027   -7.4249   48.9158 O   0  0  0  0  0  0  0  0  0  0  0  0
  1  2  1  0  0  0  0
  1 12  1  1  0  0  0
  1 13  1  0  0  0  0
  2  3  1  0  0  0  0
  2 10  1  6  0  0  0
  4  3  1  1  0  0  0
  4  5  1  0  0  0  0
  4 14  1  0  0  0  0
  5  6  1  0  0  0  0
  5 13  1  6  0  0  0
  6  7  1  0  0  0  0
  6 15  1  1  0  0  0
  7  8  1  0  0  0  0
  7 11  1  1  0  0  0
  8 14  1  0  0  0  0
  8 16  1  1  0  0  0
  9 11  1  0  0  0  0
 17 16  1  6  0  0  0
 17 18  1  0  0  0  0
 17 24  1  0  0  0  0
 18 19  1  0  0  0  0
 18 25  1  6  0  0  0
 19 20  1  0  0  0  0
 19 26  1  1  0  0  0
 20 21  1  0  0  0  0
 20 23  1  6  0  0  0
 21 22  1  1  0  0  0
 21 24  1  0  0  0  0
 22 27  1  0  0  0  0
 28 12  1  1  0  0  0
 28 29  1  0  0  0  0
 28 33  1  0  0  0  0
 29 30  1  0  0  0  0
 29 36  1  1  0  0  0
 30 31  1  0  0  0  0
 30 37  1  1  0  0  0
 31 32  1  0  0  0  0
 31 34  1  6  0  0  0
 32 33  1  0  0  0  0
 33 35  1  6  0  0  0
M  END
>  <CHROM.1>
-89.77733585,-59.58803595,-167.75575298,-177.37205910,-69.83646750,150.32091544
19.21681398,-1.19298444,52.33104690,-2.53083803,1.24764381,1.81985965

>  <Name>
2oe8_lig

>  <RI>
0

>  <Rbt.Current_Directory>
/home/itssahil/PROJECTS/Mol_Feturizer/New_Systems/rnas/2oe8

>  <Rbt.Executable>
rbdock ($Id: //depot/dev/client3/rdock/2013.1/src/exe/rbdock.cxx#4 $)

>  <Rbt.Library>
libRbt.so (2013.1, Build901 2013/11/27)

>  <Rbt.Parameter_File>
/export/apps/rDock/src/rDock_2013.1_src/data/scripts/dock_solv.prm

>  <Rbt.Receptor>
prm/pocket_docking_4.prm

>  <SCORE>
-23.5437

>  <SCORE.INTER>
-20.7429

>  <SCORE.INTER.CONST>
1

>  <SCORE.INTER.POLAR>
-2.11511

>  <SCORE.INTER.ROT>
6

>  <SCORE.INTER.SOLV>
15.6004

>  <SCORE.INTER.VDW>
-19.5783

>  <SCORE.INTER.norm>
-0.560618

>  <SCORE.INTRA>
-2.81614

>  <SCORE.INTRA.DIHEDRAL>
-8.18223

>  <SCORE.INTRA.DIHEDRAL.0>
16.4056

>  <SCORE.INTRA.POLAR>
0

>  <SCORE.INTRA.POLAR.0>
0

>  <SCORE.INTRA.REPUL>
0

>  <SCORE.INTRA.REPUL.0>
0

>  <SCORE.INTRA.SOLV>
0.936103

>  <SCORE.INTRA.SOLV.lig_0>
-90.9627

>  <SCORE.INTRA.VDW>
0.80692

>  <SCORE.INTRA.VDW.0>
-3.28744

>  <SCORE.INTRA.norm>
-0.0761119

>  <SCORE.RESTR>
0.0153321

>  <SCORE.RESTR.CAVITY>
0.0153321

>  <SCORE.RESTR.norm>
0.000414381

>  <SCORE.SYSTEM>
0

>  <SCORE.SYSTEM.CONST>
0

>  <SCORE.SYSTEM.DIHEDRAL>
0

>  <SCORE.SYSTEM.SOLV>
0

>  <SCORE.SYSTEM.norm>
0

>  <SCORE.heavy>
37

>  <SCORE.norm>
-0.636315

>  <RMSD>
10.021

$$$$
2oe8_lig
 OpenBabel11021811463D
libRbt.so/2013.1/901 2013/11/27
 37 40  0  0  0  0  0  0  0  0999 V2000
   21.7356   -1.7940   50.2815 C   0  0  1  0  0  0  0  0  0  0  0  0
   22.7477   -1.9240   51.4825 C   0  0  1  0  0  0  0  0  0  0  0  0
   21.9627   -1.9574   52.8104 C   0  0  0  0  0  0  0  0  0  0  0  0
   21.1704   -0.6145   52.8788 C   0  0  1  0  0  0  0  0  0  0  0  0
   20.1438   -0.4576   51.6429 C   0  0  1  0  0  0  0  0  0  0  0  0
   19.3630    0.8884   51.6932 C   0  0  1  0  0  0  0  0  0  0  0  0
   18.5917    0.9345   53.0752 C   0  0  1  0  0  0  0  0  0  0  0  0
   19.6240    0.7324   54.2386 C   0  0  2  0  0  0  0  0  0  0  0  0
   18.5820    3.5509   53.3007 C   0  0  0  0  0  0  0  0  0  0  0  0
   23.5636   -3.1724   51.3486 N   0  0  0  0  0  0  0  0  0  0  0  0
   17.8287    2.2461   53.2391 N   0  0  0  0  0  0  0  0  0  0  0  0
   20.8444   -2.9145   50.2163 O   0  0  0  0  0  0  0  0  0  0  0  0
   20.9082   -0.5567   50.3917 O   0  0  0  0  0  0  0  0  0  0  0  0
   20.4031   -0.5348   54.1166 O   0  0  0  0  0  0  0  0  0  0  0  0
   20.3252    1.9372   51.5713 O   0  0  0  0  0  0  0  0  0  0  0  0
   18.9454    0.7100   55.4411 O   0  0  0  0  0  0  0  0  0  0  0  0
   19.0877    1.9241   56.1978 C   0  0  2  0  0  0  0  0  0  0  0  0
   20.2949    1.8181   57.1606 C   0  0  1  0  0  0  0  0  0  0  0  0
   20.0614    0.7436   58.2665 C   0  0  2  0  0  0  0  0  0  0  0  0
   18.7778    1.1037   59.0714 C   0  0  1  0  0  0  0  0  0  0  0  0
   17.5746    1.1152   58.0392 C   0  0  1  0  0  0  0  0  0  0  0  0
   16.2510    1.4742   58.7085 C   0  0  0  0  0  0  0  0  0  0  0  0
   18.5526    0.0779   60.1295 N   0  0  0  0  0  0  0  0  0  0  0  0
   17.8505    2.1568   56.9873 O   0  0  0  0  0  0  0  0  0  0  0  0
   21.4554    1.5240   56.3595 O   0  0  0  0  0  0  0  0  0  0  0  0
   21.1798    0.7414   59.1288 O   0  0  0  0  0  0  0  0  0  0  0  0
   15.8996    0.4662   59.6194 O   0  0  0  0  0  0  0  0  0  0  0  0
   21.4128   -4.0556   49.6075 C   0  0  1  0  0  0  0  0  0  0  0  0
   20.6664   -5.3178   50.1472 C   0  0  1  0  0  0  0  0  0  0  0  0
   21.3041   -6.5858   49.5080 C   0  0  2  0  0  0  0  0  0  0  0  0
   21.2037   -6.5326   47.9522 C   0  0  1  0  0  0  0  0  0  0  0  0
   21.9447   -5.2558   47.3993 C   0  0  0  0  0  0  0  0  0  0  0  0
   21.2884   -3.9670   48.0476 C   0  0  2  0  0  0  0  0  0  0  0  0
   21.8246   -7.7521   47.3649 N   0  0  0  0  0  0  0  0  0  0  0  0
   21.9872   -2.7733   47.5204 N   0  0  0  0  0  0  0  0  0  0  0  0
   20.7917   -5.3990   51.5793 O   0  0  0  0  0  0  0  0  0  0  0  0
   20.6052   -7.7137   50.0082 O   0  0  0  0  0  0  0  0  0  0  0  0
  1  2  1  0  0  0  0
  1 12  1  1  0  0  0
  1 13  1  0  0  0  0
  2  3  1  0  0  0  0
  2 10  1  6  0  0  0
  4  3  1  6  0  0  0
  4  5  1  0  0  0  0
  4 14  1  0  0  0  0
  5  6  1  0  0  0  0
  5 13  1  6  0  0  0
  6  7  1  0  0  0  0
  6 15  1  1  0  0  0
  7  8  1  0  0  0  0
  7 11  1  1  0  0  0
  8 14  1  0  0  0  0
  8 16  1  1  0  0  0
  9 11  1  0  0  0  0
 17 16  1  1  0  0  0
 17 18  1  0  0  0  0
 17 24  1  0  0  0  0
 18 19  1  0  0  0  0
 18 25  1  6  0  0  0
 19 20  1  0  0  0  0
 19 26  1  1  0  0  0
 20 21  1  0  0  0  0
 20 23  1  1  0  0  0
 21 22  1  1  0  0  0
 21 24  1  0  0  0  0
 22 27  1  0  0  0  0
 28 12  1  1  0  0  0
 28 29  1  0  0  0  0
 28 33  1  0  0  0  0
 29 30  1  0  0  0  0
 29 36  1  1  0  0  0
 30 31  1  0  0  0  0
 30 37  1  1  0  0  0
 31 32  1  0  0  0  0
 31 34  1  6  0  0  0
 32 33  1  0  0  0  0
 33 35  1  6  0  0  0
M  END
>  <CHROM.1>
-80.20447980,-63.30518641,-104.54796128,-91.48333720,-65.50498872,154.85028774
20.16506980,-1.19364238,53.19873726,-0.20839324,1.29655554,-0.42529408

>  <Name>
2oe8_lig

>  <RI>
0

>  <Rbt.Current_Directory>
/home/itssahil/PROJECTS/Mol_Feturizer/New_Systems/rnas/2oe8

>  <Rbt.Executable>
rbdock ($Id: //depot/dev/client3/rdock/2013.1/src/exe/rbdock.cxx#4 $)

>  <Rbt.Library>
libRbt.so (2013.1, Build901 2013/11/27)

>  <Rbt.Parameter_File>
/export/apps/rDock/src/rDock_2013.1_src/data/scripts/dock_solv.prm

>  <Rbt.Receptor>
prm/pocket_docking_5.prm

>  <SCORE>
-12.461

>  <SCORE.INTER>
-13.7515

>  <SCORE.INTER.CONST>
1

>  <SCORE.INTER.POLAR>
-1.27311

>  <SCORE.INTER.ROT>
6

>  <SCORE.INTER.SOLV>
16.0606

>  <SCORE.INTER.VDW>
-17.8775

>  <SCORE.INTER.norm>
-0.371663

>  <SCORE.INTRA>
1.29053

>  <SCORE.INTRA.DIHEDRAL>
-1.8023

>  <SCORE.INTRA.DIHEDRAL.0>
16.4056

>  <SCORE.INTRA.POLAR>
0

>  <SCORE.INTRA.POLAR.0>
0

>  <SCORE.INTRA.REPUL>
0

>  <SCORE.INTRA.REPUL.0>
0

>  <SCORE.INTRA.SOLV>
2.02126

>  <SCORE.INTRA.SOLV.lig_0>
-90.9627

>  <SCORE.INTRA.VDW>
1.18105

>  <SCORE.INTRA.VDW.0>
-3.28744

>  <SCORE.INTRA.norm>
0.0348791

>  <SCORE.RESTR>
0

>  <SCORE.RESTR.CAVITY>
0

>  <SCORE.RESTR.norm>
0

>  <SCORE.SYSTEM>
0

>  <SCORE.SYSTEM.CONST>
0

>  <SCORE.SYSTEM.DIHEDRAL>
0

>  <SCORE.SYSTEM.SOLV>
0

>  <SCORE.SYSTEM.norm>
0

>  <SCORE.heavy>
37

>  <SCORE.norm>
-0.336784

>  <RMSD>
10.023

$$$$
2oe8_lig
 OpenBabel11021811463D
libRbt.so/2013.1/901 2013/11/27
 37 40  0  0  0  0  0  0  0  0999 V2000
   19.3950   -2.4281   48.8557 C   0  0  1  0  0  0  0  0  0  0  0  0
   20.5755   -3.2460   49.5044 C   0  0  1  0  0  0  0  0  0  0  0  0
   20.3632   -3.3256   51.0306 C   0  0  0  0  0  0  0  0  0  0  0  0
   20.3455   -1.8514   51.5427 C   0  0  1  0  0  0  0  0  0  0  0  0
   19.1534   -0.9950   50.8709 C   0  0  1  0  0  0  0  0  0  0  0  0
   19.1405    0.4823   51.3621 C   0  0  1  0  0  0  0  0  0  0  0  0
   18.9940    0.4535   52.9384 C   0  0  1  0  0  0  0  0  0  0  0  0
   20.1456   -0.4260   53.5384 C   0  0  2  0  0  0  0  0  0  0  0  0
   18.6220    3.0387   52.6639 C   0  0  0  0  0  0  0  0  0  0  0  0
   20.6336   -4.6282   48.9315 N   0  0  0  0  0  0  0  0  0  0  0  0
   19.0185    1.8637   53.5218 N   0  0  0  0  0  0  0  0  0  0  0  0
   18.1287   -3.0633   49.0725 O   0  0  0  0  0  0  0  0  0  0  0  0
   19.3144   -1.0451   49.4110 O   0  0  0  0  0  0  0  0  0  0  0  0
   20.1688   -1.8140   52.9900 O   0  0  0  0  0  0  0  0  0  0  0  0
   20.3693    1.0762   50.9401 O   0  0  0  0  0  0  0  0  0  0  0  0
   19.9835   -0.5036   54.9076 O   0  0  0  0  0  0  0  0  0  0  0  0
   20.9583    0.2580   55.6403 C   0  0  2  0  0  0  0  0  0  0  0  0
   21.0943   -0.2896   57.0816 C   0  0  1  0  0  0  0  0  0  0  0  0
   19.7900   -0.0740   57.9089 C   0  0  2  0  0  0  0  0  0  0  0  0
   19.4544    1.4461   57.9540 C   0  0  1  0  0  0  0  0  0  0  0  0
   19.2505    1.9179   56.4544 C   0  0  1  0  0  0  0  0  0  0  0  0
   18.9296    3.4070   56.3624 C   0  0  0  0  0  0  0  0  0  0  0  0
   18.2078    1.6548   58.7447 N   0  0  0  0  0  0  0  0  0  0  0  0
   20.5287    1.6795   55.6949 O   0  0  0  0  0  0  0  0  0  0  0  0
   21.4427   -1.6834   56.9777 O   0  0  0  0  0  0  0  0  0  0  0  0
   20.0092   -0.5529   59.2192 O   0  0  0  0  0  0  0  0  0  0  0  0
   20.0024    4.1490   56.8797 O   0  0  0  0  0  0  0  0  0  0  0  0
   17.9234   -4.2063   48.2680 C   0  0  1  0  0  0  0  0  0  0  0  0
   17.1466   -5.2647   49.1154 C   0  0  1  0  0  0  0  0  0  0  0  0
   16.9410   -6.5427   48.2509 C   0  0  2  0  0  0  0  0  0  0  0  0
   16.1429   -6.2108   46.9522 C   0  0  1  0  0  0  0  0  0  0  0  0
   16.9139   -5.1351   46.0959 C   0  0  0  0  0  0  0  0  0  0  0  0
   17.1156   -3.8335   46.9776 C   0  0  2  0  0  0  0  0  0  0  0  0
   15.9643   -7.4466   46.1407 N   0  0  0  0  0  0  0  0  0  0  0  0
   17.8365   -2.8278   46.1651 N   0  0  0  0  0  0  0  0  0  0  0  0
   17.8972   -5.6101   50.2946 O   0  0  0  0  0  0  0  0  0  0  0  0
   16.2293   -7.4820   49.0396 O   0  0  0  0  0  0  0  0  0  0  0  0
  1  2  1  0  0  0  0
  1 12  1  1  0  0  0
  1 13  1  0  0  0  0
  2  3  1  0  0  0  0
  2 10  1  6  0  0  0
  4  3  1  6  0  0  0
  4  5  1  0  0  0  0
  4 14  1  0  0  0  0
  5  6  1  0  0  0  0
  5 13  1  6  0  0  0
  6  7  1  0  0  0  0
  6 15  1  1  0  0  0
  7  8  1  0  0  0  0
  7 11  1  1  0  0  0
  8 14  1  0  0  0  0
  8 16  1  1  0  0  0
  9 11  1  0  0  0  0
 17 16  1  6  0  0  0
 17 18  1  0  0  0  0
 17 24  1  0  0  0  0
 18 19  1  0  0  0  0
 18 25  1  6  0  0  0
 19 20  1  0  0  0  0
 19 26  1  1  0  0  0
 20 21  1  0  0  0  0
 20 23  1  1  0  0  0
 21 22  1  1  0  0  0
 21 24  1  0  0  0  0
 22 27  1  0  0  0  0
 28 12  1  1  0  0  0
 28 29  1  0  0  0  0
 28 33  1  0  0  0  0
 29 30  1  0  0  0  0
 29 36  1  1  0  0  0
 30 31  1  0  0  0  0
 30 37  1  1  0  0  0
 31 32  1  0  0  0  0
 31 34  1  6  0  0  0
 32 33  1  0  0  0  0
 33 35  1  6  0  0  0
M  END
>  <CHROM.1>
-74.68922824,24.26921304,-107.91689585,-157.46626877,61.71358407,143.15057049
19.04762877,-1.56990072,52.16852648,-2.98777797,1.35643095,2.35216788

>  <Name>
2oe8_lig

>  <RI>
0

>  <Rbt.Current_Directory>
/home/itssahil/PROJECTS/Mol_Feturizer/New_Systems/rnas/2oe8

>  <Rbt.Executable>
rbdock ($Id: //depot/dev/client3/rdock/2013.1/src/exe/rbdock.cxx#4 $)

>  <Rbt.Library>
libRbt.so (2013.1, Build901 2013/11/27)

>  <Rbt.Parameter_File>
/export/apps/rDock/src/rDock_2013.1_src/data/scripts/dock_solv.prm

>  <Rbt.Receptor>
prm/pocket_docking_3.prm

>  <SCORE>
-20.8882

>  <SCORE.INTER>
-22.7618

>  <SCORE.INTER.CONST>
1

>  <SCORE.INTER.POLAR>
-1.996

>  <SCORE.INTER.ROT>
6

>  <SCORE.INTER.SOLV>
14.7947

>  <SCORE.INTER.VDW>
-21.0528

>  <SCORE.INTER.norm>
-0.615185

>  <SCORE.INTRA>
1.87281

>  <SCORE.INTRA.DIHEDRAL>
-1.02012

>  <SCORE.INTRA.DIHEDRAL.0>
16.4056

>  <SCORE.INTRA.POLAR>
0

>  <SCORE.INTRA.POLAR.0>
0

>  <SCORE.INTRA.REPUL>
0

>  <SCORE.INTRA.REPUL.0>
0

>  <SCORE.INTRA.SOLV>
2.69646

>  <SCORE.INTRA.SOLV.lig_0>
-90.9627

>  <SCORE.INTRA.VDW>
1.03464

>  <SCORE.INTRA.VDW.0>
-3.28744

>  <SCORE.INTRA.norm>
0.0506165

>  <SCORE.RESTR>
0.000822086

>  <SCORE.RESTR.CAVITY>
0.000822086

>  <SCORE.RESTR.norm>
2.22185e-05

>  <SCORE.SYSTEM>
0

>  <SCORE.SYSTEM.CONST>
0

>  <SCORE.SYSTEM.DIHEDRAL>
0

>  <SCORE.SYSTEM.SOLV>
0

>  <SCORE.SYSTEM.norm>
0

>  <SCORE.heavy>
37

>  <SCORE.norm>
-0.564546

>  <RMSD>
10.024

$$$$
2oe8_lig
 OpenBabel11021811463D
libRbt.so/2013.1/901 2013/11/27
 37 40  0  0  0  0  0  0  0  0999 V2000
   22.2303   -1.9555   48.5823 C   0  0  1  0  0  0  0  0  0  0  0  0
   23.4716   -2.4687   49.4064 C   0  0  1  0  0  0  0  0  0  0  0  0
   23.1245   -2.4622   50.9097 C   0  0  0  0  0  0  0  0  0  0  0  0
   22.7778   -0.9832   51.2677 C   0  0  1  0  0  0  0  0  0  0  0  0
   21.5202   -0.4366   50.4158 C   0  0  1  0  0  0  0  0  0  0  0  0
   21.1797    1.0447   50.7531 C   0  0  1  0  0  0  0  0  0  0  0  0
   20.8821    1.1179   52.3065 C   0  0  1  0  0  0  0  0  0  0  0  0
   22.1118    0.5348   53.0861 C   0  0  2  0  0  0  0  0  0  0  0  0
   19.2188    3.1418   52.4903 C   0  0  0  0  0  0  0  0  0  0  0  0
   23.8466   -3.8550   48.9823 N   0  0  0  0  0  0  0  0  0  0  0  0
   20.5815    2.5486   52.7451 N   0  0  0  0  0  0  0  0  0  0  0  0
   21.0908   -2.8074   48.7554 O   0  0  0  0  0  0  0  0  0  0  0  0
   21.8349   -0.5743   48.9870 O   0  0  0  0  0  0  0  0  0  0  0  0
   22.4513   -0.8619   52.6839 O   0  0  0  0  0  0  0  0  0  0  0  0
   22.3111    1.8319   50.3776 O   0  0  0  0  0  0  0  0  0  0  0  0
   21.8292    0.5402   54.4378 O   0  0  0  0  0  0  0  0  0  0  0  0
   22.9807    0.2890   55.2611 C   0  0  2  0  0  0  0  0  0  0  0  0
   22.7400   -0.9499   56.1571 C   0  0  1  0  0  0  0  0  0  0  0  0
   21.6116   -0.6978   57.2036 C   0  0  2  0  0  0  0  0  0  0  0  0
   21.9947    0.5244   58.0894 C   0  0  1  0  0  0  0  0  0  0  0  0
   22.1456    1.7683   57.1183 C   0  0  1  0  0  0  0  0  0  0  0  0
   22.5389    3.0364   57.8708 C   0  0  0  0  0  0  0  0  0  0  0  0
   20.9175    0.7674   59.0910 N   0  0  0  0  0  0  0  0  0  0  0  0
   23.2352    1.4737   56.1215 O   0  0  0  0  0  0  0  0  0  0  0  0
   22.4297   -2.0536   55.2850 O   0  0  0  0  0  0  0  0  0  0  0  0
   21.4861   -1.8503   58.0100 O   0  0  0  0  0  0  0  0  0  0  0  0
   23.7644    2.8316   58.5229 O   0  0  0  0  0  0  0  0  0  0  0  0
   20.0765   -2.5988   47.7944 C   0  0  1  0  0  0  0  0  0  0  0  0
   20.6388   -3.0109   46.3960 C   0  0  1  0  0  0  0  0  0  0  0  0
   19.5412   -2.7562   45.3221 C   0  0  2  0  0  0  0  0  0  0  0  0
   18.2531   -3.5764   45.6407 C   0  0  1  0  0  0  0  0  0  0  0  0
   17.6847   -3.1752   47.0552 C   0  0  0  0  0  0  0  0  0  0  0  0
   18.8030   -3.4419   48.1463 C   0  0  2  0  0  0  0  0  0  0  0  0
   17.2176   -3.3118   44.6036 N   0  0  0  0  0  0  0  0  0  0  0  0
   18.2599   -3.0664   49.4711 N   0  0  0  0  0  0  0  0  0  0  0  0
   21.8030   -2.2271   46.0740 O   0  0  0  0  0  0  0  0  0  0  0  0
   20.0739   -3.1442   44.0665 O   0  0  0  0  0  0  0  0  0  0  0  0
  1  2  1  0  0  0  0
  1 12  1  1  0  0  0
  1 13  1  0  0  0  0
  2  3  1  0  0  0  0
  2 10  1  6  0  0  0
  4  3  1  6  0  0  0
  4  5  1  0  0  0  0
  4 14  1  0  0  0  0
  5  6  1  0  0  0  0
  5 13  1  6  0  0  0
  6  7  1  0  0  0  0
  6 15  1  1  0  0  0
  7  8  1  0  0  0  0
  7 11  1  1  0  0  0
  8 14  1  0  0  0  0
  8 16  1  1  0  0  0
  9 11  1  0  0  0  0
 17 16  1  1  0  0  0
 17 18  1  0  0  0  0
 17 24  1  0  0  0  0
 18 19  1  0  0  0  0
 18 25  1  6  0  0  0
 19 20  1  0  0  0  0
 19 26  1  1  0  0  0
 20 21  1  0  0  0  0
 20 23  1  1  0  0  0
 21 22  1  1  0  0  0
 21 24  1  0  0  0  0
 22 27  1  0  0  0  0
 28 12  1  1  0  0  0
 28 29  1  0  0  0  0
 28 33  1  0  0  0  0
 29 30  1  0  0  0  0
 29 36  1  6  0  0  0
 30 31  1  0  0  0  0
 30 37  1  6  0  0  0
 31 32  1  0  0  0  0
 31 34  1  6  0  0  0
 32 33  1  0  0  0  0
 33 35  1  1  0  0  0
M  END
>  <CHROM.1>
-164.72978780,78.71309115,-167.83560891,-122.12500345,59.73080398,65.41132542
21.33962950,-0.80975504,51.63921911,-2.00275663,-1.04931841,0.83801207

>  <Name>
2oe8_lig

>  <RI>
0

>  <Rbt.Current_Directory>
/home/itssahil/PROJECTS/Mol_Feturizer/New_Systems/rnas/2oe8

>  <Rbt.Executable>
rbdock ($Id: //depot/dev/client3/rdock/2013.1/src/exe/rbdock.cxx#4 $)

>  <Rbt.Library>
libRbt.so (2013.1, Build901 2013/11/27)

>  <Rbt.Parameter_File>
/export/apps/rDock/src/rDock_2013.1_src/data/scripts/dock_solv.prm

>  <Rbt.Receptor>
prm/pocket_docking_7.prm

>  <SCORE>
-20.6333

>  <SCORE.INTER>
-18.2348

>  <SCORE.INTER.CONST>
1

>  <SCORE.INTER.POLAR>
-1.05946

>  <SCORE.INTER.ROT>
6

>  <SCORE.INTER.SOLV>
17.2488

>  <SCORE.INTER.VDW>
-21.9746

>  <SCORE.INTER.norm>
-0.492833

>  <SCORE.INTRA>
-2.39845

>  <SCORE.INTRA.DIHEDRAL>
-6.96505

>  <SCORE.INTRA.DIHEDRAL.0>
16.4056

>  <SCORE.INTRA.POLAR>
0

>  <SCORE.INTRA.POLAR.0>
0

>  <SCORE.INTRA.REPUL>
0

>  <SCORE.INTRA.REPUL.0>
0

>  <SCORE.INTRA.SOLV>
-2.05336

>  <SCORE.INTRA.SOLV.lig_0>
-90.9627

>  <SCORE.INTRA.VDW>
2.11075

>  <SCORE.INTRA.VDW.0>
-3.28744

>  <SCORE.INTRA.norm>
-0.0648231

>  <SCORE.RESTR>
0

>  <SCORE.RESTR.CAVITY>
0

>  <SCORE.RESTR.norm>
0

>  <SCORE.SYSTEM>
0

>  <SCORE.SYSTEM.CONST>
0

>  <SCORE.SYSTEM.DIHEDRAL>
0

>  <SCORE.SYSTEM.SOLV>
0

>  <SCORE.SYSTEM.norm>
0

>  <SCORE.heavy>
37

>  <SCORE.norm>
-0.557656

>  <RMSD>
10.029

$$$$
2oe8_lig
 OpenBabel11021811463D
libRbt.so/2013.1/901 2013/11/27
 37 40  0  0  0  0  0  0  0  0999 V2000
   19.3715   -2.3612   48.9199 C   0  0  1  0  0  0  0  0  0  0  0  0
   20.5396   -3.1426   49.6329 C   0  0  1  0  0  0  0  0  0  0  0  0
   20.2532   -3.2189   51.1471 C   0  0  0  0  0  0  0  0  0  0  0  0
   20.1699   -1.7427   51.6468 C   0  0  1  0  0  0  0  0  0  0  0  0
   18.9903   -0.9233   50.9099 C   0  0  1  0  0  0  0  0  0  0  0  0
   18.9127    0.5560   51.3890 C   0  0  1  0  0  0  0  0  0  0  0  0
   18.6880    0.5326   52.9561 C   0  0  1  0  0  0  0  0  0  0  0  0
   19.8314   -0.3114   53.6195 C   0  0  2  0  0  0  0  0  0  0  0  0
   18.7068    3.1350   52.6038 C   0  0  0  0  0  0  0  0  0  0  0  0
   20.6638   -4.5261   49.0737 N   0  0  0  0  0  0  0  0  0  0  0  0
   18.6450    1.9464   53.5297 N   0  0  0  0  0  0  0  0  0  0  0  0
   18.1136   -3.0297   49.0777 O   0  0  0  0  0  0  0  0  0  0  0  0
   19.2257   -0.9776   49.4603 O   0  0  0  0  0  0  0  0  0  0  0  0
   19.9197   -1.7015   53.0831 O   0  0  0  0  0  0  0  0  0  0  0  0
   20.1446    1.1808   51.0247 O   0  0  0  0  0  0  0  0  0  0  0  0
   19.6029   -0.3852   54.9794 O   0  0  0  0  0  0  0  0  0  0  0  0
   20.3729    0.5624   55.7383 C   0  0  2  0  0  0  0  0  0  0  0  0
   20.8383   -0.0697   57.0723 C   0  0  1  0  0  0  0  0  0  0  0  0
   19.6368   -0.3789   58.0172 C   0  0  2  0  0  0  0  0  0  0  0  0
   18.8556    0.9373   58.3042 C   0  0  1  0  0  0  0  0  0  0  0  0
   18.3428    1.4830   56.9069 C   0  0  1  0  0  0  0  0  0  0  0  0
   17.5690    2.7902   57.0530 C   0  0  0  0  0  0  0  0  0  0  0  0
   17.7064    0.6444   59.2077 N   0  0  0  0  0  0  0  0  0  0  0  0
   19.5345    1.7548   56.0275 O   0  0  0  0  0  0  0  0  0  0  0  0
   21.5857   -1.2566   56.7444 O   0  0  0  0  0  0  0  0  0  0  0  0
   20.1442   -0.9052   59.2255 O   0  0  0  0  0  0  0  0  0  0  0  0
   17.1827    3.2488   55.7843 O   0  0  0  0  0  0  0  0  0  0  0  0
   17.9703   -4.1687   48.2544 C   0  0  1  0  0  0  0  0  0  0  0  0
   17.1810   -5.2528   49.0565 C   0  0  1  0  0  0  0  0  0  0  0  0
   17.0432   -6.5261   48.1718 C   0  0  2  0  0  0  0  0  0  0  0  0
   16.2962   -6.1989   46.8420 C   0  0  1  0  0  0  0  0  0  0  0  0
   17.0797   -5.0975   46.0309 C   0  0  0  0  0  0  0  0  0  0  0  0
   17.2124   -3.8008   46.9327 C   0  0  2  0  0  0  0  0  0  0  0  0
   16.1820   -7.4301   46.0119 N   0  0  0  0  0  0  0  0  0  0  0  0
   17.9455   -2.7710   46.1625 N   0  0  0  0  0  0  0  0  0  0  0  0
   17.8862   -5.5933   50.2648 O   0  0  0  0  0  0  0  0  0  0  0  0
   16.3187   -7.4891   48.9193 O   0  0  0  0  0  0  0  0  0  0  0  0
  1  2  1  0  0  0  0
  1 12  1  1  0  0  0
  1 13  1  0  0  0  0
  2  3  1  0  0  0  0
  2 10  1  6  0  0  0
  4  3  1  6  0  0  0
  4  5  1  0  0  0  0
  4 14  1  0  0  0  0
  5  6  1  0  0  0  0
  5 13  1  6  0  0  0
  6  7  1  0  0  0  0
  6 15  1  1  0  0  0
  7  8  1  0  0  0  0
  7 11  1  1  0  0  0
  8 14  1  0  0  0  0
  8 16  1  1  0  0  0
  9 11  1  0  0  0  0
 17 16  1  1  0  0  0
 17 18  1  0  0  0  0
 17 24  1  0  0  0  0
 18 19  1  0  0  0  0
 18 25  1  6  0  0  0
 19 20  1  0  0  0  0
 19 26  1  1  0  0  0
 20 21  1  0  0  0  0
 20 23  1  1  0  0  0
 21 22  1  1  0  0  0
 21 24  1  0  0  0  0
 22 27  1  0  0  0  0
 28 12  1  1  0  0  0
 28 29  1  0  0  0  0
 28 33  1  0  0  0  0
 29 30  1  0  0  0  0
 29 36  1  1  0  0  0
 30 31  1  0  0  0  0
 30 37  1  1  0  0  0
 31 32  1  0  0  0  0
 31 34  1  6  0  0  0
 32 33  1  0  0  0  0
 33 35  1  6  0  0  0
M  END
>  <CHROM.1>
-75.78481747,4.48650692,-98.63865303,-142.52085853,177.90353978,143.36710512
18.78435907,-1.60904244,52.20267518,3.10309489,1.42255903,2.58473441

>  <Name>
2oe8_lig

>  <RI>
0

>  <Rbt.Current_Directory>
/home/itssahil/PROJECTS/Mol_Feturizer/New_Systems/rnas/2oe8

>  <Rbt.Executable>
rbdock ($Id: //depot/dev/client3/rdock/2013.1/src/exe/rbdock.cxx#4 $)

>  <Rbt.Library>
libRbt.so (2013.1, Build901 2013/11/27)

>  <Rbt.Parameter_File>
/export/apps/rDock/src/rDock_2013.1_src/data/scripts/dock_solv.prm

>  <Rbt.Receptor>
prm/pocket_docking_3.prm

>  <SCORE>
-23.7437

>  <SCORE.INTER>
-27.2287

>  <SCORE.INTER.CONST>
1

>  <SCORE.INTER.POLAR>
-2.75201

>  <SCORE.INTER.ROT>
6

>  <SCORE.INTER.SOLV>
18.5192

>  <SCORE.INTER.VDW>
-22.7522

>  <SCORE.INTER.norm>
-0.735911

>  <SCORE.INTRA>
3.46293

>  <SCORE.INTRA.DIHEDRAL>
0.929537

>  <SCORE.INTRA.DIHEDRAL.0>
16.4056

>  <SCORE.INTRA.POLAR>
0

>  <SCORE.INTRA.POLAR.0>
0

>  <SCORE.INTRA.REPUL>
0

>  <SCORE.INTRA.REPUL.0>
0

>  <SCORE.INTRA.SOLV>
2.36399

>  <SCORE.INTRA.SOLV.lig_0>
-90.9627

>  <SCORE.INTRA.VDW>
1.81617

>  <SCORE.INTRA.VDW.0>
-3.28744

>  <SCORE.INTRA.norm>
0.0935928

>  <SCORE.RESTR>
0.0220716

>  <SCORE.RESTR.CAVITY>
0.0220716

>  <SCORE.RESTR.norm>
0.000596531

>  <SCORE.SYSTEM>
0

>  <SCORE.SYSTEM.CONST>
0

>  <SCORE.SYSTEM.DIHEDRAL>
0

>  <SCORE.SYSTEM.SOLV>
0

>  <SCORE.SYSTEM.norm>
0

>  <SCORE.heavy>
37

>  <SCORE.norm>
-0.641722

>  <RMSD>
10.037

$$$$
2oe8_lig
 OpenBabel11021811463D
libRbt.so/2013.1/901 2013/11/27
 37 40  0  0  0  0  0  0  0  0999 V2000
   22.1500   -2.0265   50.4429 C   0  0  1  0  0  0  0  0  0  0  0  0
   22.8168   -2.6858   51.7095 C   0  0  1  0  0  0  0  0  0  0  0  0
   21.8160   -2.6628   52.8836 C   0  0  0  0  0  0  0  0  0  0  0  0
   21.4800   -1.1599   53.1366 C   0  0  1  0  0  0  0  0  0  0  0  0
   20.8148   -0.4651   51.8401 C   0  0  1  0  0  0  0  0  0  0  0  0
   20.4940    1.0397   52.0779 C   0  0  1  0  0  0  0  0  0  0  0  0
   19.5199    1.1228   53.3233 C   0  0  1  0  0  0  0  0  0  0  0  0
   20.1905    0.3960   54.5406 C   0  0  2  0  0  0  0  0  0  0  0  0
   18.6729    3.4984   52.5914 C   0  0  0  0  0  0  0  0  0  0  0  0
   23.2168   -4.0988   51.4167 N   0  0  0  0  0  0  0  0  0  0  0  0
   19.1828    2.5714   53.6659 N   0  0  0  0  0  0  0  0  0  0  0  0
   20.9872   -2.7496   50.0197 O   0  0  0  0  0  0  0  0  0  0  0  0
   21.7406   -0.6161   50.7089 O   0  0  0  0  0  0  0  0  0  0  0  0
   20.5482   -1.0238   54.2503 O   0  0  0  0  0  0  0  0  0  0  0  0
   21.7375    1.7022   52.3138 O   0  0  0  0  0  0  0  0  0  0  0  0
   19.3167    0.4130   55.6098 O   0  0  0  0  0  0  0  0  0  0  0  0
   19.9089    0.9117   56.8212 C   0  0  2  0  0  0  0  0  0  0  0  0
   19.0732    0.4722   58.0476 C   0  0  1  0  0  0  0  0  0  0  0  0
   17.6604    1.1326   58.0529 C   0  0  2  0  0  0  0  0  0  0  0  0
   17.8163    2.6820   58.0516 C   0  0  1  0  0  0  0  0  0  0  0  0
   18.6081    3.0646   56.7325 C   0  0  1  0  0  0  0  0  0  0  0  0
   18.8411    4.5687   56.6217 C   0  0  0  0  0  0  0  0  0  0  0  0
   16.4669    3.3157   58.0568 N   0  0  0  0  0  0  0  0  0  0  0  0
   19.9570    2.3960   56.7676 O   0  0  0  0  0  0  0  0  0  0  0  0
   18.9962   -0.9659   58.0186 O   0  0  0  0  0  0  0  0  0  0  0  0
   16.9814    0.7228   59.2213 O   0  0  0  0  0  0  0  0  0  0  0  0
   17.6139    5.2176   56.4166 O   0  0  0  0  0  0  0  0  0  0  0  0
   20.5040   -2.3534   48.7527 C   0  0  1  0  0  0  0  0  0  0  0  0
   21.5344   -2.8155   47.6727 C   0  0  1  0  0  0  0  0  0  0  0  0
   21.0297   -2.3574   46.2733 C   0  0  2  0  0  0  0  0  0  0  0  0
   19.6263   -2.9644   45.9642 C   0  0  1  0  0  0  0  0  0  0  0  0
   18.5822   -2.5126   47.0553 C   0  0  0  0  0  0  0  0  0  0  0  0
   19.0967   -2.9863   48.4777 C   0  0  2  0  0  0  0  0  0  0  0  0
   19.1634   -2.5077   44.6245 N   0  0  0  0  0  0  0  0  0  0  0  0
   18.1092   -2.5616   49.4953 N   0  0  0  0  0  0  0  0  0  0  0  0
   22.8228   -2.2240   47.9249 O   0  0  0  0  0  0  0  0  0  0  0  0
   21.9774   -2.7945   45.3133 O   0  0  0  0  0  0  0  0  0  0  0  0
  1  2  1  0  0  0  0
  1 12  1  1  0  0  0
  1 13  1  0  0  0  0
  2  3  1  0  0  0  0
  2 10  1  6  0  0  0
  4  3  1  6  0  0  0
  4  5  1  0  0  0  0
  4 14  1  0  0  0  0
  5  6  1  0  0  0  0
  5 13  1  6  0  0  0
  6  7  1  0  0  0  0
  6 15  1  1  0  0  0
  7  8  1  0  0  0  0
  7 11  1  1  0  0  0
  8 14  1  0  0  0  0
  8 16  1  1  0  0  0
  9 11  1  0  0  0  0
 17 16  1  6  0  0  0
 17 18  1  0  0  0  0
 17 24  1  0  0  0  0
 18 19  1  0  0  0  0
 18 25  1  6  0  0  0
 19 20  1  0  0  0  0
 19 26  1  1  0  0  0
 20 21  1  0  0  0  0
 20 23  1  6  0  0  0
 21 22  1  1  0  0  0
 21 24  1  0  0  0  0
 22 27  1  0  0  0  0
 28 12  1  1  0  0  0
 28 29  1  0  0  0  0
 28 33  1  0  0  0  0
 29 30  1  0  0  0  0
 29 36  1  1  0  0  0
 30 31  1  0  0  0  0
 30 37  1  6  0  0  0
 31 32  1  0  0  0  0
 31 34  1  6  0  0  0
 32 33  1  0  0  0  0
 33 35  1  1  0  0  0
M  END
>  <CHROM.1>
-168.67994699,51.71892364,-128.51132142,-160.99411871,-67.94951064,69.37674371
19.97790728,-0.22442275,52.59960100,-1.15107421,-0.98226717,1.45886537

>  <Name>
2oe8_lig

>  <RI>
0

>  <Rbt.Current_Directory>
/home/itssahil/PROJECTS/Mol_Feturizer/New_Systems/rnas/2oe8

>  <Rbt.Executable>
rbdock ($Id: //depot/dev/client3/rdock/2013.1/src/exe/rbdock.cxx#4 $)

>  <Rbt.Library>
libRbt.so (2013.1, Build901 2013/11/27)

>  <Rbt.Parameter_File>
/export/apps/rDock/src/rDock_2013.1_src/data/scripts/dock_solv.prm

>  <Rbt.Receptor>
prm/pocket_docking_4.prm

>  <SCORE>
-18.5465

>  <SCORE.INTER>
-16.3788

>  <SCORE.INTER.CONST>
1

>  <SCORE.INTER.POLAR>
-2.34108

>  <SCORE.INTER.ROT>
6

>  <SCORE.INTER.SOLV>
19.2339

>  <SCORE.INTER.VDW>
-17.1269

>  <SCORE.INTER.norm>
-0.442671

>  <SCORE.INTRA>
-2.16762

>  <SCORE.INTRA.DIHEDRAL>
-6.5991

>  <SCORE.INTRA.DIHEDRAL.0>
16.4056

>  <SCORE.INTRA.POLAR>
0

>  <SCORE.INTRA.POLAR.0>
0

>  <SCORE.INTRA.REPUL>
0

>  <SCORE.INTRA.REPUL.0>
0

>  <SCORE.INTRA.SOLV>
-0.520166

>  <SCORE.INTRA.SOLV.lig_0>
-90.9627

>  <SCORE.INTRA.VDW>
1.39201

>  <SCORE.INTRA.VDW.0>
-3.28744

>  <SCORE.INTRA.norm>
-0.0585845

>  <SCORE.RESTR>
0

>  <SCORE.RESTR.CAVITY>
0

>  <SCORE.RESTR.norm>
0

>  <SCORE.SYSTEM>
0

>  <SCORE.SYSTEM.CONST>
0

>  <SCORE.SYSTEM.DIHEDRAL>
0

>  <SCORE.SYSTEM.SOLV>
0

>  <SCORE.SYSTEM.norm>
0

>  <SCORE.heavy>
37

>  <SCORE.norm>
-0.501256

>  <RMSD>
10.037

$$$$
2oe8_lig
 OpenBabel11021811463D
libRbt.so/2013.1/901 2013/11/27
 37 40  0  0  0  0  0  0  0  0999 V2000
   20.8366   -1.3421   48.5482 C   0  0  1  0  0  0  0  0  0  0  0  0
   22.3440   -1.2550   48.9993 C   0  0  1  0  0  0  0  0  0  0  0  0
   22.4546   -1.6434   50.4885 C   0  0  0  0  0  0  0  0  0  0  0  0
   21.5688   -0.6227   51.2691 C   0  0  1  0  0  0  0  0  0  0  0  0
   20.0245   -0.6859   50.8028 C   0  0  1  0  0  0  0  0  0  0  0  0
   19.1373    0.3428   51.5633 C   0  0  1  0  0  0  0  0  0  0  0  0
   19.2719    0.0292   53.1094 C   0  0  1  0  0  0  0  0  0  0  0  0
   20.7902    0.0575   53.5019 C   0  0  2  0  0  0  0  0  0  0  0  0
   18.4905    2.4882   53.5986 C   0  0  0  0  0  0  0  0  0  0  0  0
   23.1926   -2.1733   48.1753 N   0  0  0  0  0  0  0  0  0  0  0  0
   18.4692    1.0212   53.9468 N   0  0  0  0  0  0  0  0  0  0  0  0
   20.3216   -2.6734   48.6759 O   0  0  0  0  0  0  0  0  0  0  0  0
   19.9681   -0.4359   49.3558 O   0  0  0  0  0  0  0  0  0  0  0  0
   21.6196   -0.8910   52.7017 O   0  0  0  0  0  0  0  0  0  0  0  0
   19.6211    1.6443   51.2274 O   0  0  0  0  0  0  0  0  0  0  0  0
   20.9147   -0.2769   54.8360 O   0  0  0  0  0  0  0  0  0  0  0  0
   22.0905    0.2737   55.4535 C   0  0  2  0  0  0  0  0  0  0  0  0
   22.3298   -0.3843   56.8339 C   0  0  1  0  0  0  0  0  0  0  0  0
   21.2022   -0.0260   57.8499 C   0  0  2  0  0  0  0  0  0  0  0  0
   21.1274    1.5211   58.0115 C   0  0  1  0  0  0  0  0  0  0  0  0
   20.8015    2.1189   56.5798 C   0  0  1  0  0  0  0  0  0  0  0  0
   20.7175    3.6424   56.6023 C   0  0  0  0  0  0  0  0  0  0  0  0
   20.0502    1.8662   58.9826 N   0  0  0  0  0  0  0  0  0  0  0  0
   21.9091    1.7376   55.6335 O   0  0  0  0  0  0  0  0  0  0  0  0
   22.4296   -1.8050   56.6180 O   0  0  0  0  0  0  0  0  0  0  0  0
   21.5162   -0.6204   59.0919 O   0  0  0  0  0  0  0  0  0  0  0  0
   20.2757    4.1045   55.3532 O   0  0  0  0  0  0  0  0  0  0  0  0
   19.3028   -2.9782   47.7459 C   0  0  1  0  0  0  0  0  0  0  0  0
   19.9802   -3.3824   46.3970 C   0  0  1  0  0  0  0  0  0  0  0  0
   18.8677   -3.6906   45.3528 C   0  0  2  0  0  0  0  0  0  0  0  0
   17.9439   -4.8446   45.8513 C   0  0  1  0  0  0  0  0  0  0  0  0
   17.2646   -4.4501   47.2179 C   0  0  0  0  0  0  0  0  0  0  0  0
   18.4004   -4.1432   48.2799 C   0  0  2  0  0  0  0  0  0  0  0  0
   16.8862   -5.1165   44.8389 N   0  0  0  0  0  0  0  0  0  0  0  0
   17.7542   -3.7776   49.5605 N   0  0  0  0  0  0  0  0  0  0  0  0
   20.8005   -2.3054   45.9067 O   0  0  0  0  0  0  0  0  0  0  0  0
   19.5083   -4.0606   44.1430 O   0  0  0  0  0  0  0  0  0  0  0  0
  1  2  1  0  0  0  0
  1 12  1  1  0  0  0
  1 13  1  0  0  0  0
  2  3  1  0  0  0  0
  2 10  1  6  0  0  0
  4  3  1  6  0  0  0
  4  5  1  0  0  0  0
  4 14  1  0  0  0  0
  5  6  1  0  0  0  0
  5 13  1  6  0  0  0
  6  7  1  0  0  0  0
  6 15  1  1  0  0  0
  7  8  1  0  0  0  0
  7 11  1  1  0  0  0
  8 14  1  0  0  0  0
  8 16  1  1  0  0  0
  9 11  1  0  0  0  0
 17 16  1  1  0  0  0
 17 18  1  0  0  0  0
 17 24  1  0  0  0  0
 18 19  1  0  0  0  0
 18 25  1  6  0  0  0
 19 20  1  0  0  0  0
 19 26  1  1  0  0  0
 20 21  1  0  0  0  0
 20 23  1  1  0  0  0
 21 22  1  1  0  0  0
 21 24  1  0  0  0  0
 22 27  1  0  0  0  0
 28 12  1  1  0  0  0
 28 29  1  0  0  0  0
 28 33  1  0  0  0  0
 29 30  1  0  0  0  0
 29 36  1  6  0  0  0
 30 31  1  0  0  0  0
 30 37  1  6  0  0  0
 31 32  1  0  0  0  0
 31 34  1  6  0  0  0
 32 33  1  0  0  0  0
 33 35  1  1  0  0  0
M  END
>  <CHROM.1>
-150.65861951,-42.33117286,-153.53772600,-167.57600825,-173.16597860,82.26199040
20.29145949,-0.85490872,51.73272258,1.80794185,0.83798411,-2.18428828

>  <Name>
2oe8_lig

>  <RI>
0

>  <Rbt.Current_Directory>
/home/itssahil/PROJECTS/Mol_Feturizer/New_Systems/rnas/2oe8

>  <Rbt.Executable>
rbdock ($Id: //depot/dev/client3/rdock/2013.1/src/exe/rbdock.cxx#4 $)

>  <Rbt.Library>
libRbt.so (2013.1, Build901 2013/11/27)

>  <Rbt.Parameter_File>
/export/apps/rDock/src/rDock_2013.1_src/data/scripts/dock_solv.prm

>  <Rbt.Receptor>
prm/pocket_docking_3.prm

>  <SCORE>
-17.3385

>  <SCORE.INTER>
-15.8071

>  <SCORE.INTER.CONST>
1

>  <SCORE.INTER.POLAR>
-1.9996

>  <SCORE.INTER.ROT>
6

>  <SCORE.INTER.SOLV>
14.0277

>  <SCORE.INTER.VDW>
-16.1487

>  <SCORE.INTER.norm>
-0.42722

>  <SCORE.INTRA>
-1.68889

>  <SCORE.INTRA.DIHEDRAL>
-6.66033

>  <SCORE.INTRA.DIHEDRAL.0>
16.4056

>  <SCORE.INTRA.POLAR>
0

>  <SCORE.INTRA.POLAR.0>
0

>  <SCORE.INTRA.REPUL>
0

>  <SCORE.INTRA.REPUL.0>
0

>  <SCORE.INTRA.SOLV>
-0.675139

>  <SCORE.INTRA.SOLV.lig_0>
-90.9627

>  <SCORE.INTRA.VDW>
1.97884

>  <SCORE.INTRA.VDW.0>
-3.28744

>  <SCORE.INTRA.norm>
-0.0456457

>  <SCORE.RESTR>
0.157484

>  <SCORE.RESTR.CAVITY>
0.157484

>  <SCORE.RESTR.norm>
0.00425634

>  <SCORE.SYSTEM>
0

>  <SCORE.SYSTEM.CONST>
0

>  <SCORE.SYSTEM.DIHEDRAL>
0

>  <SCORE.SYSTEM.SOLV>
0

>  <SCORE.SYSTEM.norm>
0

>  <SCORE.heavy>
37

>  <SCORE.norm>
-0.468609

>  <RMSD>
10.041

$$$$
2oe8_lig
 OpenBabel11021811463D
libRbt.so/2013.1/901 2013/11/27
 37 40  0  0  0  0  0  0  0  0999 V2000
   22.8810   -2.0838   48.3993 C   0  0  1  0  0  0  0  0  0  0  0  0
   24.1379   -2.2961   49.3260 C   0  0  1  0  0  0  0  0  0  0  0  0
   23.7213   -2.1156   50.8007 C   0  0  0  0  0  0  0  0  0  0  0  0
   23.1680   -0.6611   50.9192 C   0  0  1  0  0  0  0  0  0  0  0  0
   21.8920   -0.4223   49.9596 C   0  0  1  0  0  0  0  0  0  0  0  0
   21.3455    1.0323   50.0576 C   0  0  1  0  0  0  0  0  0  0  0  0
   20.9670    1.2923   51.5728 C   0  0  1  0  0  0  0  0  0  0  0  0
   22.2235    1.0033   52.4659 C   0  0  2  0  0  0  0  0  0  0  0  0
   19.3035    2.9765   52.7099 C   0  0  0  0  0  0  0  0  0  0  0  0
   24.7103   -3.6657   49.1288 N   0  0  0  0  0  0  0  0  0  0  0  0
   20.4617    2.7176   51.7797 N   0  0  0  0  0  0  0  0  0  0  0  0
   21.8555   -3.0480   48.6687 O   0  0  0  0  0  0  0  0  0  0  0  0
   22.2901   -0.7249   48.5777 O   0  0  0  0  0  0  0  0  0  0  0  0
   22.7611   -0.3780   52.2909 O   0  0  0  0  0  0  0  0  0  0  0  0
   22.3813    1.9021   49.5979 O   0  0  0  0  0  0  0  0  0  0  0  0
   21.8783    1.1693   53.7927 O   0  0  0  0  0  0  0  0  0  0  0  0
   22.9910    1.0295   54.6922 C   0  0  2  0  0  0  0  0  0  0  0  0
   22.5169    1.1723   56.1587 C   0  0  1  0  0  0  0  0  0  0  0  0
   22.0012    2.6122   56.4633 C   0  0  2  0  0  0  0  0  0  0  0  0
   23.1378    3.6375   56.1767 C   0  0  1  0  0  0  0  0  0  0  0  0
   23.5153    3.4907   54.6440 C   0  0  1  0  0  0  0  0  0  0  0  0
   24.6395    4.4399   54.2389 C   0  0  0  0  0  0  0  0  0  0  0  0
   22.6473    5.0149   56.4675 N   0  0  0  0  0  0  0  0  0  0  0  0
   23.9948    2.0848   54.3970 O   0  0  0  0  0  0  0  0  0  0  0  0
   21.4984    0.1773   56.3768 O   0  0  0  0  0  0  0  0  0  0  0  0
   21.6348    2.6752   57.8257 O   0  0  0  0  0  0  0  0  0  0  0  0
   24.1931    5.7658   54.3470 O   0  0  0  0  0  0  0  0  0  0  0  0
   20.8216   -3.0591   47.7060 C   0  0  1  0  0  0  0  0  0  0  0  0
   20.7299   -4.4993   47.1069 C   0  0  1  0  0  0  0  0  0  0  0  0
   19.6147   -4.5180   46.0211 C   0  0  2  0  0  0  0  0  0  0  0  0
   18.2394   -4.1070   46.6320 C   0  0  1  0  0  0  0  0  0  0  0  0
   18.3254   -2.6591   47.2491 C   0  0  0  0  0  0  0  0  0  0  0  0
   19.4575   -2.6460   48.3583 C   0  0  2  0  0  0  0  0  0  0  0  0
   17.1917   -4.1272   45.5739 N   0  0  0  0  0  0  0  0  0  0  0  0
   19.5289   -1.2846   48.9349 N   0  0  0  0  0  0  0  0  0  0  0  0
   21.9826   -4.8699   46.5012 O   0  0  0  0  0  0  0  0  0  0  0  0
   19.5481   -5.8351   45.4999 O   0  0  0  0  0  0  0  0  0  0  0  0
  1  2  1  0  0  0  0
  1 12  1  1  0  0  0
  1 13  1  0  0  0  0
  2  3  1  0  0  0  0
  2 10  1  1  0  0  0
  4  3  1  1  0  0  0
  4  5  1  0  0  0  0
  4 14  1  0  0  0  0
  5  6  1  0  0  0  0
  5 13  1  6  0  0  0
  6  7  1  0  0  0  0
  6 15  1  1  0  0  0
  7  8  1  0  0  0  0
  7 11  1  6  0  0  0
  8 14  1  0  0  0  0
  8 16  1  1  0  0  0
  9 11  1  0  0  0  0
 17 16  1  6  0  0  0
 17 18  1  0  0  0  0
 17 24  1  0  0  0  0
 18 19  1  0  0  0  0
 18 25  1  6  0  0  0
 19 20  1  0  0  0  0
 19 26  1  1  0  0  0
 20 21  1  0  0  0  0
 20 23  1  6  0  0  0
 21 22  1  1  0  0  0
 21 24  1  0  0  0  0
 22 27  1  0  0  0  0
 28 12  1  1  0  0  0
 28 29  1  0  0  0  0
 28 33  1  0  0  0  0
 29 30  1  0  0  0  0
 29 36  1  6  0  0  0
 30 31  1  0  0  0  0
 30 37  1  1  0  0  0
 31 32  1  0  0  0  0
 31 34  1  6  0  0  0
 32 33  1  0  0  0  0
 33 35  1  6  0  0  0
M  END
>  <CHROM.1>
-168.83650912,140.29219543,-175.38621386,-177.75497024,-65.51382478,122.29770164
21.74857446,-0.21650111,51.14809618,-1.80237166,-0.20270453,0.82912927

>  <Name>
2oe8_lig

>  <RI>
0

>  <Rbt.Current_Directory>
/home/itssahil/PROJECTS/Mol_Feturizer/New_Systems/rnas/2oe8

>  <Rbt.Executable>
rbdock ($Id: //depot/dev/client3/rdock/2013.1/src/exe/rbdock.cxx#4 $)

>  <Rbt.Library>
libRbt.so (2013.1, Build901 2013/11/27)

>  <Rbt.Parameter_File>
/export/apps/rDock/src/rDock_2013.1_src/data/scripts/dock_solv.prm

>  <Rbt.Receptor>
prm/pocket_docking_8.prm

>  <SCORE>
-18.7054

>  <SCORE.INTER>
-15.9229

>  <SCORE.INTER.CONST>
1

>  <SCORE.INTER.POLAR>
-0.982846

>  <SCORE.INTER.ROT>
6

>  <SCORE.INTER.SOLV>
13.2156

>  <SCORE.INTER.VDW>
-19.3443

>  <SCORE.INTER.norm>
-0.430348

>  <SCORE.INTRA>
-2.78252

>  <SCORE.INTRA.DIHEDRAL>
-7.44552

>  <SCORE.INTRA.DIHEDRAL.0>
16.4056

>  <SCORE.INTRA.POLAR>
0

>  <SCORE.INTRA.POLAR.0>
0

>  <SCORE.INTRA.REPUL>
0

>  <SCORE.INTRA.REPUL.0>
0

>  <SCORE.INTRA.SOLV>
1.30567

>  <SCORE.INTRA.SOLV.lig_0>
-90.9627

>  <SCORE.INTRA.VDW>
0.287403

>  <SCORE.INTRA.VDW.0>
-3.28744

>  <SCORE.INTRA.norm>
-0.0752033

>  <SCORE.RESTR>
0

>  <SCORE.RESTR.CAVITY>
0

>  <SCORE.RESTR.norm>
0

>  <SCORE.SYSTEM>
0

>  <SCORE.SYSTEM.CONST>
0

>  <SCORE.SYSTEM.DIHEDRAL>
0

>  <SCORE.SYSTEM.SOLV>
0

>  <SCORE.SYSTEM.norm>
0

>  <SCORE.heavy>
37

>  <SCORE.norm>
-0.505552

>  <RMSD>
10.042

$$$$
2oe8_lig
 OpenBabel11021811463D
libRbt.so/2013.1/901 2013/11/27
 37 40  0  0  0  0  0  0  0  0999 V2000
   19.5281   -2.4477   49.2780 C   0  0  1  0  0  0  0  0  0  0  0  0
   20.5421   -3.1522   50.2573 C   0  0  1  0  0  0  0  0  0  0  0  0
   20.0663   -2.9570   51.7120 C   0  0  0  0  0  0  0  0  0  0  0  0
   20.0249   -1.4152   51.9508 C   0  0  1  0  0  0  0  0  0  0  0  0
   19.0052   -0.6768   50.9404 C   0  0  1  0  0  0  0  0  0  0  0  0
   18.9722    0.8643   51.1592 C   0  0  1  0  0  0  0  0  0  0  0  0
   18.5547    1.1176   52.6654 C   0  0  1  0  0  0  0  0  0  0  0  0
   19.5459    0.3441   53.6030 C   0  0  2  0  0  0  0  0  0  0  0  0
   17.7621    3.1090   54.1828 C   0  0  0  0  0  0  0  0  0  0  0  0
   20.6378   -4.6148   49.9509 N   0  0  0  0  0  0  0  0  0  0  0  0
   18.5397    2.6084   52.9918 N   0  0  0  0  0  0  0  0  0  0  0  0
   18.2169   -3.0184   49.3728 O   0  0  0  0  0  0  0  0  0  0  0  0
   19.4134   -0.9872   49.5632 O   0  0  0  0  0  0  0  0  0  0  0  0
   19.6028   -1.1193   53.3151 O   0  0  0  0  0  0  0  0  0  0  0  0
   20.2801    1.3584   50.8662 O   0  0  0  0  0  0  0  0  0  0  0  0
   19.1467    0.5128   54.9142 O   0  0  0  0  0  0  0  0  0  0  0  0
   20.0862    1.2621   55.7033 C   0  0  2  0  0  0  0  0  0  0  0  0
   21.2446    0.3477   56.1702 C   0  0  1  0  0  0  0  0  0  0  0  0
   20.7524   -0.7497   57.1630 C   0  0  2  0  0  0  0  0  0  0  0  0
   20.0913   -0.0681   58.3973 C   0  0  1  0  0  0  0  0  0  0  0  0
   18.8696    0.7837   57.8541 C   0  0  1  0  0  0  0  0  0  0  0  0
   18.1426    1.5199   58.9759 C   0  0  0  0  0  0  0  0  0  0  0  0
   19.6201   -1.1153   59.3481 N   0  0  0  0  0  0  0  0  0  0  0  0
   19.3918    1.8190   56.8933 O   0  0  0  0  0  0  0  0  0  0  0  0
   21.8413   -0.2219   54.9894 O   0  0  0  0  0  0  0  0  0  0  0  0
   21.8692   -1.5078   57.5784 O   0  0  0  0  0  0  0  0  0  0  0  0
   19.0209    2.4302   59.5833 O   0  0  0  0  0  0  0  0  0  0  0  0
   18.0143   -4.1182   48.5095 C   0  0  1  0  0  0  0  0  0  0  0  0
   17.2114   -5.2081   49.2900 C   0  0  1  0  0  0  0  0  0  0  0  0
   17.0081   -6.4397   48.3601 C   0  0  2  0  0  0  0  0  0  0  0  0
   16.2370   -6.0355   47.0656 C   0  0  1  0  0  0  0  0  0  0  0  0
   17.0344   -4.9278   46.2770 C   0  0  0  0  0  0  0  0  0  0  0  0
   17.2338   -3.6734   47.2251 C   0  0  2  0  0  0  0  0  0  0  0  0
   16.0602   -7.2279   46.1912 N   0  0  0  0  0  0  0  0  0  0  0  0
   17.9796   -2.6373   46.4759 N   0  0  0  0  0  0  0  0  0  0  0  0
   17.9370   -5.6194   50.4637 O   0  0  0  0  0  0  0  0  0  0  0  0
   16.2726   -7.4085   49.0890 O   0  0  0  0  0  0  0  0  0  0  0  0
  1  2  1  0  0  0  0
  1 12  1  1  0  0  0
  1 13  1  0  0  0  0
  2  3  1  0  0  0  0
  2 10  1  6  0  0  0
  4  3  1  6  0  0  0
  4  5  1  0  0  0  0
  4 14  1  0  0  0  0
  5  6  1  0  0  0  0
  5 13  1  6  0  0  0
  6  7  1  0  0  0  0
  6 15  1  1  0  0  0
  7  8  1  0  0  0  0
  7 11  1  1  0  0  0
  8 14  1  0  0  0  0
  8 16  1  1  0  0  0
  9 11  1  0  0  0  0
 17 16  1  1  0  0  0
 17 18  1  0  0  0  0
 17 24  1  0  0  0  0
 18 19  1  0  0  0  0
 18 25  1  6  0  0  0
 19 20  1  0  0  0  0
 19 26  1  1  0  0  0
 20 21  1  0  0  0  0
 20 23  1  1  0  0  0
 21 22  1  1  0  0  0
 21 24  1  0  0  0  0
 22 27  1  0  0  0  0
 28 12  1  1  0  0  0
 28 29  1  0  0  0  0
 28 33  1  0  0  0  0
 29 30  1  0  0  0  0
 29 36  1  1  0  0  0
 30 31  1  0  0  0  0
 30 37  1  1  0  0  0
 31 32  1  0  0  0  0
 31 34  1  6  0  0  0
 32 33  1  0  0  0  0
 33 35  1  6  0  0  0
M  END
>  <CHROM.1>
-88.37445733,160.11305952,-114.16904562,-80.68395604,62.27746677,138.90108289
18.97963636,-1.57421852,52.43950808,-3.11943184,1.37027889,2.54422986

>  <Name>
2oe8_lig

>  <RI>
0

>  <Rbt.Current_Directory>
/home/itssahil/PROJECTS/Mol_Feturizer/New_Systems/rnas/2oe8

>  <Rbt.Executable>
rbdock ($Id: //depot/dev/client3/rdock/2013.1/src/exe/rbdock.cxx#4 $)

>  <Rbt.Library>
libRbt.so (2013.1, Build901 2013/11/27)

>  <Rbt.Parameter_File>
/export/apps/rDock/src/rDock_2013.1_src/data/scripts/dock_solv.prm

>  <Rbt.Receptor>
prm/pocket_docking_3.prm

>  <SCORE>
-21.4596

>  <SCORE.INTER>
-23.051

>  <SCORE.INTER.CONST>
1

>  <SCORE.INTER.POLAR>
-2.24155

>  <SCORE.INTER.ROT>
6

>  <SCORE.INTER.SOLV>
21.6341

>  <SCORE.INTER.VDW>
-22.7069

>  <SCORE.INTER.norm>
-0.623001

>  <SCORE.INTRA>
1.57319

>  <SCORE.INTRA.DIHEDRAL>
1.69155

>  <SCORE.INTRA.DIHEDRAL.0>
16.4056

>  <SCORE.INTRA.POLAR>
0

>  <SCORE.INTRA.POLAR.0>
0

>  <SCORE.INTRA.REPUL>
0

>  <SCORE.INTRA.REPUL.0>
0

>  <SCORE.INTRA.SOLV>
1.16688

>  <SCORE.INTRA.SOLV.lig_0>
-90.9627

>  <SCORE.INTRA.VDW>
0.143981

>  <SCORE.INTRA.VDW.0>
-3.28744

>  <SCORE.INTRA.norm>
0.0425188

>  <SCORE.RESTR>
0.0182801

>  <SCORE.RESTR.CAVITY>
0.0182801

>  <SCORE.RESTR.norm>
0.000494058

>  <SCORE.SYSTEM>
0

>  <SCORE.SYSTEM.CONST>
0

>  <SCORE.SYSTEM.DIHEDRAL>
0

>  <SCORE.SYSTEM.SOLV>
0

>  <SCORE.SYSTEM.norm>
0

>  <SCORE.heavy>
37

>  <SCORE.norm>
-0.579988

>  <RMSD>
10.043

$$$$
2oe8_lig
 OpenBabel11021811463D
libRbt.so/2013.1/901 2013/11/27
 37 40  0  0  0  0  0  0  0  0999 V2000
   19.3889   -2.4207   48.9269 C   0  0  1  0  0  0  0  0  0  0  0  0
   20.5562   -3.1555   49.6892 C   0  0  1  0  0  0  0  0  0  0  0  0
   20.2518   -3.1647   51.2018 C   0  0  0  0  0  0  0  0  0  0  0  0
   20.1471   -1.6680   51.6315 C   0  0  1  0  0  0  0  0  0  0  0  0
   18.9683   -0.8965   50.8433 C   0  0  1  0  0  0  0  0  0  0  0  0
   18.8696    0.6025   51.2523 C   0  0  1  0  0  0  0  0  0  0  0  0
   18.6257    0.6492   52.8161 C   0  0  1  0  0  0  0  0  0  0  0  0
   19.7695   -0.1507   53.5314 C   0  0  2  0  0  0  0  0  0  0  0  0
   19.5774    3.0966   52.8514 C   0  0  0  0  0  0  0  0  0  0  0  0
   20.7016   -4.5620   49.1964 N   0  0  0  0  0  0  0  0  0  0  0  0
   18.5610    2.0874   53.3228 N   0  0  0  0  0  0  0  0  0  0  0  0
   18.1362   -3.0948   49.1006 O   0  0  0  0  0  0  0  0  0  0  0  0
   19.2222   -1.0153   49.4008 O   0  0  0  0  0  0  0  0  0  0  0  0
   19.8787   -1.5631   53.0612 O   0  0  0  0  0  0  0  0  0  0  0  0
   20.0994    1.2232   50.8741 O   0  0  0  0  0  0  0  0  0  0  0  0
   19.5249   -0.1640   54.8905 O   0  0  0  0  0  0  0  0  0  0  0  0
   20.4264    0.6689   55.6393 C   0  0  2  0  0  0  0  0  0  0  0  0
   20.4792    0.2101   57.1165 C   0  0  1  0  0  0  0  0  0  0  0  0
   19.1162    0.4320   57.8413 C   0  0  2  0  0  0  0  0  0  0  0  0
   18.7367    1.9408   57.7732 C   0  0  1  0  0  0  0  0  0  0  0  0
   18.6223    2.3186   56.2378 C   0  0  1  0  0  0  0  0  0  0  0  0
   18.2675    3.7891   56.0360 C   0  0  0  0  0  0  0  0  0  0  0  0
   17.4340    2.1557   58.4657 N   0  0  0  0  0  0  0  0  0  0  0  0
   19.9552    2.0770   55.5802 O   0  0  0  0  0  0  0  0  0  0  0  0
   20.8720   -1.1758   57.1194 O   0  0  0  0  0  0  0  0  0  0  0  0
   19.2590    0.0367   59.1895 O   0  0  0  0  0  0  0  0  0  0  0  0
   16.9670    4.0249   56.5072 O   0  0  0  0  0  0  0  0  0  0  0  0
   18.0164   -4.2743   48.3323 C   0  0  1  0  0  0  0  0  0  0  0  0
   17.1627   -5.2999   49.1452 C   0  0  1  0  0  0  0  0  0  0  0  0
   17.0491   -6.6169   48.3233 C   0  0  2  0  0  0  0  0  0  0  0  0
   16.3835   -6.3500   46.9379 C   0  0  1  0  0  0  0  0  0  0  0  0
   17.2322   -5.3074   46.1148 C   0  0  0  0  0  0  0  0  0  0  0  0
   17.3401   -3.9661   46.9523 C   0  0  2  0  0  0  0  0  0  0  0  0
   16.2913   -7.6223   46.1694 N   0  0  0  0  0  0  0  0  0  0  0  0
   18.1349   -2.9919   46.1709 N   0  0  0  0  0  0  0  0  0  0  0  0
   17.7931   -5.5861   50.4077 O   0  0  0  0  0  0  0  0  0  0  0  0
   16.2656   -7.5258   49.0789 O   0  0  0  0  0  0  0  0  0  0  0  0
  1  2  1  0  0  0  0
  1 12  1  1  0  0  0
  1 13  1  0  0  0  0
  2  3  1  0  0  0  0
  2 10  1  6  0  0  0
  4  3  1  6  0  0  0
  4  5  1  0  0  0  0
  4 14  1  0  0  0  0
  5  6  1  0  0  0  0
  5 13  1  6  0  0  0
  6  7  1  0  0  0  0
  6 15  1  1  0  0  0
  7  8  1  0  0  0  0
  7 11  1  1  0  0  0
  8 14  1  0  0  0  0
  8 16  1  1  0  0  0
  9 11  1  0  0  0  0
 17 16  1  6  0  0  0
 17 18  1  0  0  0  0
 17 24  1  0  0  0  0
 18 19  1  0  0  0  0
 18 25  1  6  0  0  0
 19 20  1  0  0  0  0
 19 26  1  1  0  0  0
 20 21  1  0  0  0  0
 20 23  1  1  0  0  0
 21 22  1  1  0  0  0
 21 24  1  0  0  0  0
 22 27  1  0  0  0  0
 28 12  1  1  0  0  0
 28 29  1  0  0  0  0
 28 33  1  0  0  0  0
 29 30  1  0  0  0  0
 29 36  1  1  0  0  0
 30 31  1  0  0  0  0
 30 37  1  1  0  0  0
 31 32  1  0  0  0  0
 31 34  1  6  0  0  0
 32 33  1  0  0  0  0
 33 35  1  6  0  0  0
M  END
>  <CHROM.1>
-75.61156628,-44.80876930,-108.16504038,-158.04475564,-66.90511284,146.32499533
18.76533092,-1.41228420,52.15325684,-2.53488061,1.41582857,1.85523059

>  <Name>
2oe8_lig

>  <RI>
0

>  <Rbt.Current_Directory>
/home/itssahil/PROJECTS/Mol_Feturizer/New_Systems/rnas/2oe8

>  <Rbt.Executable>
rbdock ($Id: //depot/dev/client3/rdock/2013.1/src/exe/rbdock.cxx#4 $)

>  <Rbt.Library>
libRbt.so (2013.1, Build901 2013/11/27)

>  <Rbt.Parameter_File>
/export/apps/rDock/src/rDock_2013.1_src/data/scripts/dock_solv.prm

>  <Rbt.Receptor>
prm/pocket_docking_3.prm

>  <SCORE>
-20.8718

>  <SCORE.INTER>
-23.3885

>  <SCORE.INTER.CONST>
1

>  <SCORE.INTER.POLAR>
-1.9996

>  <SCORE.INTER.ROT>
6

>  <SCORE.INTER.SOLV>
14.2444

>  <SCORE.INTER.VDW>
-21.2751

>  <SCORE.INTER.norm>
-0.63212

>  <SCORE.INTRA>
2.5143

>  <SCORE.INTRA.DIHEDRAL>
-1.97926

>  <SCORE.INTRA.DIHEDRAL.0>
16.4056

>  <SCORE.INTRA.POLAR>
0

>  <SCORE.INTRA.POLAR.0>
0

>  <SCORE.INTRA.REPUL>
0

>  <SCORE.INTRA.REPUL.0>
0

>  <SCORE.INTRA.SOLV>
3.2913

>  <SCORE.INTRA.SOLV.lig_0>
-90.9627

>  <SCORE.INTRA.VDW>
1.85828

>  <SCORE.INTRA.VDW.0>
-3.28744

>  <SCORE.INTRA.norm>
0.0679541

>  <SCORE.RESTR>
0.00232269

>  <SCORE.RESTR.CAVITY>
0.00232269

>  <SCORE.RESTR.norm>
6.27753e-05

>  <SCORE.SYSTEM>
0

>  <SCORE.SYSTEM.CONST>
0

>  <SCORE.SYSTEM.DIHEDRAL>
0

>  <SCORE.SYSTEM.SOLV>
0

>  <SCORE.SYSTEM.norm>
0

>  <SCORE.heavy>
37

>  <SCORE.norm>
-0.564104

>  <RMSD>
10.048

$$$$
2oe8_lig
 OpenBabel11021811463D
libRbt.so/2013.1/901 2013/11/27
 37 40  0  0  0  0  0  0  0  0999 V2000
   20.8867   -1.0132   52.3040 C   0  0  1  0  0  0  0  0  0  0  0  0
   19.4261   -0.6397   51.8451 C   0  0  1  0  0  0  0  0  0  0  0  0
   19.0069    0.6893   52.5077 C   0  0  0  0  0  0  0  0  0  0  0  0
   19.0730    0.4449   54.0477 C   0  0  1  0  0  0  0  0  0  0  0  0
   20.5597    0.0409   54.5299 C   0  0  1  0  0  0  0  0  0  0  0  0
   20.6302   -0.2233   56.0626 C   0  0  1  0  0  0  0  0  0  0  0  0
   20.1407    1.0946   56.7910 C   0  0  1  0  0  0  0  0  0  0  0  0
   18.7148    1.4694   56.2560 C   0  0  2  0  0  0  0  0  0  0  0  0
   21.4259    0.9524   59.0768 C   0  0  0  0  0  0  0  0  0  0  0  0
   19.3629   -0.5013   50.3555 N   0  0  0  0  0  0  0  0  0  0  0  0
   20.1298    0.9170   58.3069 N   0  0  0  0  0  0  0  0  0  0  0  0
   21.8389   -0.0216   51.8990 O   0  0  0  0  0  0  0  0  0  0  0  0
   20.9772   -1.1562   53.7869 O   0  0  0  0  0  0  0  0  0  0  0  0
   18.6726    1.6445   54.7743 O   0  0  0  0  0  0  0  0  0  0  0  0
   19.7852   -1.3423   56.3354 O   0  0  0  0  0  0  0  0  0  0  0  0
   18.3121    2.6523   56.8439 O   0  0  0  0  0  0  0  0  0  0  0  0
   16.9432    2.9905   56.5631 C   0  0  2  0  0  0  0  0  0  0  0  0
   16.6873    4.4868   56.8648 C   0  0  1  0  0  0  0  0  0  0  0  0
   16.8190    4.8018   58.3865 C   0  0  2  0  0  0  0  0  0  0  0  0
   15.8081    3.9251   59.1831 C   0  0  1  0  0  0  0  0  0  0  0  0
   16.1797    2.4120   58.8905 C   0  0  1  0  0  0  0  0  0  0  0  0
   15.2427    1.4444   59.6080 C   0  0  0  0  0  0  0  0  0  0  0  0
   15.9319    4.2246   60.6383 N   0  0  0  0  0  0  0  0  0  0  0  0
   16.0497    2.1599   57.4117 O   0  0  0  0  0  0  0  0  0  0  0  0
   17.6204    5.2475   56.0740 O   0  0  0  0  0  0  0  0  0  0  0  0
   16.5248    6.1687   58.5856 O   0  0  0  0  0  0  0  0  0  0  0  0
   15.7770    0.1481   59.5513 O   0  0  0  0  0  0  0  0  0  0  0  0
   23.1672   -0.3267   52.2711 C   0  0  1  0  0  0  0  0  0  0  0  0
   23.7231   -1.3860   51.2659 C   0  0  1  0  0  0  0  0  0  0  0  0
   25.1766   -1.7551   51.6832 C   0  0  2  0  0  0  0  0  0  0  0  0
   26.0909   -0.4911   51.6842 C   0  0  1  0  0  0  0  0  0  0  0  0
   25.5314    0.5882   52.6876 C   0  0  0  0  0  0  0  0  0  0  0  0
   24.0539    0.9657   52.2556 C   0  0  2  0  0  0  0  0  0  0  0  0
   27.4726   -0.8688   52.0914 N   0  0  0  0  0  0  0  0  0  0  0  0
   23.5378    1.9819   53.2003 N   0  0  0  0  0  0  0  0  0  0  0  0
   22.9103   -2.5743   51.2909 O   0  0  0  0  0  0  0  0  0  0  0  0
   25.6585   -2.7105   50.7526 O   0  0  0  0  0  0  0  0  0  0  0  0
  1  2  1  0  0  0  0
  1 12  1  1  0  0  0
  1 13  1  0  0  0  0
  2  3  1  0  0  0  0
  2 10  1  6  0  0  0
  4  3  1  6  0  0  0
  4  5  1  0  0  0  0
  4 14  1  0  0  0  0
  5  6  1  0  0  0  0
  5 13  1  6  0  0  0
  6  7  1  0  0  0  0
  6 15  1  6  0  0  0
  7  8  1  0  0  0  0
  7 11  1  1  0  0  0
  8 14  1  0  0  0  0
  8 16  1  1  0  0  0
  9 11  1  0  0  0  0
 17 16  1  1  0  0  0
 17 18  1  0  0  0  0
 17 24  1  0  0  0  0
 18 19  1  0  0  0  0
 18 25  1  6  0  0  0
 19 20  1  0  0  0  0
 19 26  1  6  0  0  0
 20 21  1  0  0  0  0
 20 23  1  1  0  0  0
 21 22  1  1  0  0  0
 21 24  1  0  0  0  0
 22 27  1  0  0  0  0
 28 12  1  6  0  0  0
 28 29  1  0  0  0  0
 28 33  1  0  0  0  0
 29 30  1  0  0  0  0
 29 36  1  1  0  0  0
 30 31  1  0  0  0  0
 30 37  1  6  0  0  0
 31 32  1  0  0  0  0
 31 34  1  1  0  0  0
 32 33  1  0  0  0  0
 33 35  1  1  0  0  0
M  END
>  <CHROM.1>
-179.03546672,76.26761014,-171.91688689,-162.63463901,-167.54200266,78.35367409
20.12898112,0.98235066,55.06889507,0.81071103,0.01843118,-2.11475589

>  <Name>
2oe8_lig

>  <RI>
0

>  <Rbt.Current_Directory>
/home/itssahil/PROJECTS/Mol_Feturizer/New_Systems/rnas/2oe8

>  <Rbt.Executable>
rbdock ($Id: //depot/dev/client3/rdock/2013.1/src/exe/rbdock.cxx#4 $)

>  <Rbt.Library>
libRbt.so (2013.1, Build901 2013/11/27)

>  <Rbt.Parameter_File>
/export/apps/rDock/src/rDock_2013.1_src/data/scripts/dock_solv.prm

>  <Rbt.Receptor>
prm/pocket_docking_6.prm

>  <SCORE>
-29.0908

>  <SCORE.INTER>
-22.3515

>  <SCORE.INTER.CONST>
1

>  <SCORE.INTER.POLAR>
-2.26771

>  <SCORE.INTER.ROT>
6

>  <SCORE.INTER.SOLV>
12.69

>  <SCORE.INTER.VDW>
-19.172

>  <SCORE.INTER.norm>
-0.604094

>  <SCORE.INTRA>
-6.73937

>  <SCORE.INTRA.DIHEDRAL>
-12.3443

>  <SCORE.INTRA.DIHEDRAL.0>
16.4056

>  <SCORE.INTRA.POLAR>
0

>  <SCORE.INTRA.POLAR.0>
0

>  <SCORE.INTRA.REPUL>
0

>  <SCORE.INTRA.REPUL.0>
0

>  <SCORE.INTRA.SOLV>
-2.91001

>  <SCORE.INTRA.SOLV.lig_0>
-90.9627

>  <SCORE.INTRA.VDW>
0.887791

>  <SCORE.INTRA.VDW.0>
-3.28744

>  <SCORE.INTRA.norm>
-0.182145

>  <SCORE.RESTR>
0

>  <SCORE.RESTR.CAVITY>
0

>  <SCORE.RESTR.norm>
0

>  <SCORE.SYSTEM>
0

>  <SCORE.SYSTEM.CONST>
0

>  <SCORE.SYSTEM.DIHEDRAL>
0

>  <SCORE.SYSTEM.SOLV>
0

>  <SCORE.SYSTEM.norm>
0

>  <SCORE.heavy>
37

>  <SCORE.norm>
-0.786239

>  <RMSD>
10.062

$$$$
2oe8_lig
 OpenBabel11021811463D
libRbt.so/2013.1/901 2013/11/27
 37 40  0  0  0  0  0  0  0  0999 V2000
   18.7538   -4.2543   48.5126 C   0  0  1  0  0  0  0  0  0  0  0  0
   19.0411   -5.1475   49.7787 C   0  0  1  0  0  0  0  0  0  0  0  0
   18.5845   -4.3972   51.0473 C   0  0  0  0  0  0  0  0  0  0  0  0
   19.4097   -3.0731   51.0877 C   0  0  1  0  0  0  0  0  0  0  0  0
   19.1413   -2.1565   49.7862 C   0  0  1  0  0  0  0  0  0  0  0  0
   19.9755   -0.8421   49.8095 C   0  0  1  0  0  0  0  0  0  0  0  0
   19.5928   -0.0645   51.1346 C   0  0  1  0  0  0  0  0  0  0  0  0
   19.8274   -1.0108   52.3632 C   0  0  2  0  0  0  0  0  0  0  0  0
   21.9039    1.1817   51.1879 C   0  0  0  0  0  0  0  0  0  0  0  0
   18.3140   -6.4525   49.6766 N   0  0  0  0  0  0  0  0  0  0  0  0
   20.3989    1.2243   51.2717 N   0  0  0  0  0  0  0  0  0  0  0  0
   17.3545   -3.9840   48.3617 O   0  0  0  0  0  0  0  0  0  0  0  0
   19.4671   -2.9455   48.5901 O   0  0  0  0  0  0  0  0  0  0  0  0
   19.0660   -2.2912   52.2699 O   0  0  0  0  0  0  0  0  0  0  0  0
   21.3533   -1.2182   49.7774 O   0  0  0  0  0  0  0  0  0  0  0  0
   19.4356   -0.3563   53.5144 O   0  0  0  0  0  0  0  0  0  0  0  0
   20.4219    0.5652   54.0091 C   0  0  2  0  0  0  0  0  0  0  0  0
   21.0451    0.0309   55.3213 C   0  0  1  0  0  0  0  0  0  0  0  0
   20.0023   -0.0186   56.4799 C   0  0  2  0  0  0  0  0  0  0  0  0
   19.4261    1.4089   56.7153 C   0  0  1  0  0  0  0  0  0  0  0  0
   18.7363    1.8568   55.3600 C   0  0  1  0  0  0  0  0  0  0  0  0
   18.1418    3.2589   55.4576 C   0  0  0  0  0  0  0  0  0  0  0  0
   18.4290    1.3642   57.8227 N   0  0  0  0  0  0  0  0  0  0  0  0
   19.7772    1.8780   54.2721 O   0  0  0  0  0  0  0  0  0  0  0  0
   21.5947   -1.2693   55.0345 O   0  0  0  0  0  0  0  0  0  0  0  0
   20.6557   -0.4677   57.6485 O   0  0  0  0  0  0  0  0  0  0  0  0
   19.1632    4.1815   55.7307 O   0  0  0  0  0  0  0  0  0  0  0  0
   16.8973   -4.0923   47.0293 C   0  0  1  0  0  0  0  0  0  0  0  0
   17.6972   -3.0729   46.1560 C   0  0  1  0  0  0  0  0  0  0  0  0
   17.1812   -3.1593   44.6900 C   0  0  2  0  0  0  0  0  0  0  0  0
   17.3605   -4.6016   44.1232 C   0  0  1  0  0  0  0  0  0  0  0  0
   16.5657   -5.6388   45.0049 C   0  0  0  0  0  0  0  0  0  0  0  0
   17.0984   -5.5521   46.4952 C   0  0  2  0  0  0  0  0  0  0  0  0
   16.8552   -4.6596   42.7236 N   0  0  0  0  0  0  0  0  0  0  0  0
   16.3499   -6.5313   47.3150 N   0  0  0  0  0  0  0  0  0  0  0  0
   17.5016   -1.7331   46.6456 O   0  0  0  0  0  0  0  0  0  0  0  0
   17.9268   -2.2313   43.9194 O   0  0  0  0  0  0  0  0  0  0  0  0
  1  2  1  0  0  0  0
  1 12  1  1  0  0  0
  1 13  1  0  0  0  0
  2  3  1  0  0  0  0
  2 10  1  6  0  0  0
  4  3  1  6  0  0  0
  4  5  1  0  0  0  0
  4 14  1  0  0  0  0
  5  6  1  0  0  0  0
  5 13  1  6  0  0  0
  6  7  1  0  0  0  0
  6 15  1  1  0  0  0
  7  8  1  0  0  0  0
  7 11  1  1  0  0  0
  8 14  1  0  0  0  0
  8 16  1  1  0  0  0
  9 11  1  0  0  0  0
 17 16  1  1  0  0  0
 17 18  1  0  0  0  0
 17 24  1  0  0  0  0
 18 19  1  0  0  0  0
 18 25  1  6  0  0  0
 19 20  1  0  0  0  0
 19 26  1  1  0  0  0
 20 21  1  0  0  0  0
 20 23  1  1  0  0  0
 21 22  1  1  0  0  0
 21 24  1  0  0  0  0
 22 27  1  0  0  0  0
 28 12  1  1  0  0  0
 28 29  1  0  0  0  0
 28 33  1  0  0  0  0
 29 30  1  0  0  0  0
 29 36  1  1  0  0  0
 30 31  1  0  0  0  0
 30 37  1  6  0  0  0
 31 32  1  0  0  0  0
 31 34  1  6  0  0  0
 32 33  1  0  0  0  0
 33 35  1  1  0  0  0
M  END
>  <CHROM.1>
-137.24975047,-53.37482420,-80.51670644,-109.78982969,61.14118432,-59.42890283
18.95630134,-1.69157299,50.74329275,2.98900044,-1.35761417,-0.67736691

>  <Name>
2oe8_lig

>  <RI>
0

>  <Rbt.Current_Directory>
/home/itssahil/PROJECTS/Mol_Feturizer/New_Systems/rnas/2oe8

>  <Rbt.Executable>
rbdock ($Id: //depot/dev/client3/rdock/2013.1/src/exe/rbdock.cxx#4 $)

>  <Rbt.Library>
libRbt.so (2013.1, Build901 2013/11/27)

>  <Rbt.Parameter_File>
/export/apps/rDock/src/rDock_2013.1_src/data/scripts/dock_solv.prm

>  <Rbt.Receptor>
prm/pocket_docking_7.prm

>  <SCORE>
-20.5466

>  <SCORE.INTER>
-23.2266

>  <SCORE.INTER.CONST>
1

>  <SCORE.INTER.POLAR>
-3.06948

>  <SCORE.INTER.ROT>
6

>  <SCORE.INTER.SOLV>
13.971

>  <SCORE.INTER.VDW>
-17.5098

>  <SCORE.INTER.norm>
-0.627746

>  <SCORE.INTRA>
2.67999

>  <SCORE.INTRA.DIHEDRAL>
-1.94589

>  <SCORE.INTRA.DIHEDRAL.0>
16.4056

>  <SCORE.INTRA.POLAR>
0

>  <SCORE.INTRA.POLAR.0>
0

>  <SCORE.INTRA.REPUL>
0

>  <SCORE.INTRA.REPUL.0>
0

>  <SCORE.INTRA.SOLV>
1.81208

>  <SCORE.INTRA.SOLV.lig_0>
-90.9627

>  <SCORE.INTRA.VDW>
2.7469

>  <SCORE.INTRA.VDW.0>
-3.28744

>  <SCORE.INTRA.norm>
0.0724322

>  <SCORE.RESTR>
0

>  <SCORE.RESTR.CAVITY>
0

>  <SCORE.RESTR.norm>
0

>  <SCORE.SYSTEM>
0

>  <SCORE.SYSTEM.CONST>
0

>  <SCORE.SYSTEM.DIHEDRAL>
0

>  <SCORE.SYSTEM.SOLV>
0

>  <SCORE.SYSTEM.norm>
0

>  <SCORE.heavy>
37

>  <SCORE.norm>
-0.555314

>  <RMSD>
10.062

$$$$
2oe8_lig
 OpenBabel11021811463D
libRbt.so/2013.1/901 2013/11/27
 37 40  0  0  0  0  0  0  0  0999 V2000
   22.0655   -2.1598   52.5776 C   0  0  1  0  0  0  0  0  0  0  0  0
   20.5359   -2.1233   52.2003 C   0  0  1  0  0  0  0  0  0  0  0  0
   19.9356   -0.7692   52.6323 C   0  0  0  0  0  0  0  0  0  0  0  0
   20.1416   -0.6773   54.1766 C   0  0  1  0  0  0  0  0  0  0  0  0
   21.7036   -0.7343   54.5801 C   0  0  1  0  0  0  0  0  0  0  0  0
   21.9168   -0.6625   56.1207 C   0  0  1  0  0  0  0  0  0  0  0  0
   21.2535    0.6835   56.6260 C   0  0  1  0  0  0  0  0  0  0  0  0
   19.7529    0.7110   56.1706 C   0  0  2  0  0  0  0  0  0  0  0  0
   22.6969    1.1816   58.7625 C   0  0  0  0  0  0  0  0  0  0  0  0
   20.3545   -2.3067   50.7253 N   0  0  0  0  0  0  0  0  0  0  0  0
   21.3706    0.8227   58.1414 N   0  0  0  0  0  0  0  0  0  0  0  0
   22.8032   -1.1359   51.8984 O   0  0  0  0  0  0  0  0  0  0  0  0
   22.2742   -1.9780   54.0443 O   0  0  0  0  0  0  0  0  0  0  0  0
   19.5862    0.5680   54.6943 O   0  0  0  0  0  0  0  0  0  0  0  0
   21.2982   -1.8199   56.6849 O   0  0  0  0  0  0  0  0  0  0  0  0
   19.1893    1.9113   56.5563 O   0  0  0  0  0  0  0  0  0  0  0  0
   18.8180    1.9458   57.9447 C   0  0  2  0  0  0  0  0  0  0  0  0
   17.2776    1.9968   58.0872 C   0  0  1  0  0  0  0  0  0  0  0  0
   16.6885    3.3313   57.5356 C   0  0  2  0  0  0  0  0  0  0  0  0
   17.3264    4.5298   58.2983 C   0  0  1  0  0  0  0  0  0  0  0  0
   18.8893    4.4598   58.0424 C   0  0  1  0  0  0  0  0  0  0  0  0
   19.6363    5.5823   58.7572 C   0  0  0  0  0  0  0  0  0  0  0  0
   16.7646    5.8069   57.7729 N   0  0  0  0  0  0  0  0  0  0  0  0
   19.4088    3.1525   58.5797 O   0  0  0  0  0  0  0  0  0  0  0  0
   16.7469    0.8480   57.3991 O   0  0  0  0  0  0  0  0  0  0  0  0
   15.2919    3.3220   57.7450 O   0  0  0  0  0  0  0  0  0  0  0  0
   19.2961    6.8136   58.1765 O   0  0  0  0  0  0  0  0  0  0  0  0
   24.2041   -1.2716   52.0202 C   0  0  1  0  0  0  0  0  0  0  0  0
   24.6791   -2.3525   50.9966 C   0  0  1  0  0  0  0  0  0  0  0  0
   26.2181   -2.5352   51.1420 C   0  0  2  0  0  0  0  0  0  0  0  0
   26.9632   -1.1899   50.8799 C   0  0  1  0  0  0  0  0  0  0  0  0
   26.4820   -0.0898   51.9011 C   0  0  0  0  0  0  0  0  0  0  0  0
   24.9158    0.0976   51.7454 C   0  0  2  0  0  0  0  0  0  0  0  0
   28.4313   -1.3893   51.0301 N   0  0  0  0  0  0  0  0  0  0  0  0
   24.4733    1.1344   52.7047 N   0  0  0  0  0  0  0  0  0  0  0  0
   24.0291   -3.6102   51.2592 O   0  0  0  0  0  0  0  0  0  0  0  0
   26.6230   -3.5141   50.1993 O   0  0  0  0  0  0  0  0  0  0  0  0
  1  2  1  0  0  0  0
  1 12  1  6  0  0  0
  1 13  1  0  0  0  0
  2  3  1  0  0  0  0
  2 10  1  6  0  0  0
  4  3  1  6  0  0  0
  4  5  1  0  0  0  0
  4 14  1  0  0  0  0
  5  6  1  0  0  0  0
  5 13  1  1  0  0  0
  6  7  1  0  0  0  0
  6 15  1  1  0  0  0
  7  8  1  0  0  0  0
  7 11  1  1  0  0  0
  8 14  1  0  0  0  0
  8 16  1  6  0  0  0
  9 11  1  0  0  0  0
 17 16  1  6  0  0  0
 17 18  1  0  0  0  0
 17 24  1  0  0  0  0
 18 19  1  0  0  0  0
 18 25  1  6  0  0  0
 19 20  1  0  0  0  0
 19 26  1  1  0  0  0
 20 21  1  0  0  0  0
 20 23  1  6  0  0  0
 21 22  1  1  0  0  0
 21 24  1  0  0  0  0
 22 27  1  0  0  0  0
 28 12  1  6  0  0  0
 28 29  1  0  0  0  0
 28 33  1  0  0  0  0
 29 30  1  0  0  0  0
 29 36  1  1  0  0  0
 30 31  1  0  0  0  0
 30 37  1  6  0  0  0
 31 32  1  0  0  0  0
 31 34  1  1  0  0  0
 32 33  1  0  0  0  0
 33 35  1  1  0  0  0
M  END
>  <CHROM.1>
-169.57861211,74.55638114,-79.28963101,-112.03924746,-67.42495707,79.93569032
21.32286252,0.50839063,54.86149682,0.86381443,-0.23632670,-2.46896857

>  <Name>
2oe8_lig

>  <RI>
0

>  <Rbt.Current_Directory>
/home/itssahil/PROJECTS/Mol_Feturizer/New_Systems/rnas/2oe8

>  <Rbt.Executable>
rbdock ($Id: //depot/dev/client3/rdock/2013.1/src/exe/rbdock.cxx#4 $)

>  <Rbt.Library>
libRbt.so (2013.1, Build901 2013/11/27)

>  <Rbt.Parameter_File>
/export/apps/rDock/src/rDock_2013.1_src/data/scripts/dock_solv.prm

>  <Rbt.Receptor>
prm/pocket_docking_7.prm

>  <SCORE>
-17.8912

>  <SCORE.INTER>
-15.9588

>  <SCORE.INTER.CONST>
1

>  <SCORE.INTER.POLAR>
-0.979796

>  <SCORE.INTER.ROT>
6

>  <SCORE.INTER.SOLV>
8.25077

>  <SCORE.INTER.VDW>
-17.7235

>  <SCORE.INTER.norm>
-0.43132

>  <SCORE.INTRA>
-1.93231

>  <SCORE.INTRA.DIHEDRAL>
-5.10279

>  <SCORE.INTRA.DIHEDRAL.0>
16.4056

>  <SCORE.INTRA.POLAR>
0

>  <SCORE.INTRA.POLAR.0>
0

>  <SCORE.INTRA.REPUL>
0

>  <SCORE.INTRA.REPUL.0>
0

>  <SCORE.INTRA.SOLV>
-0.495383

>  <SCORE.INTRA.SOLV.lig_0>
-90.9627

>  <SCORE.INTRA.VDW>
0.866777

>  <SCORE.INTRA.VDW.0>
-3.28744

>  <SCORE.INTRA.norm>
-0.0522245

>  <SCORE.RESTR>
0

>  <SCORE.RESTR.CAVITY>
0

>  <SCORE.RESTR.norm>
0

>  <SCORE.SYSTEM>
0

>  <SCORE.SYSTEM.CONST>
0

>  <SCORE.SYSTEM.DIHEDRAL>
0

>  <SCORE.SYSTEM.SOLV>
0

>  <SCORE.SYSTEM.norm>
0

>  <SCORE.heavy>
37

>  <SCORE.norm>
-0.483545

>  <RMSD>
10.067

$$$$
2oe8_lig
 OpenBabel11021811463D
libRbt.so/2013.1/901 2013/11/27
 37 40  0  0  0  0  0  0  0  0999 V2000
   21.2417   -2.5094   50.5072 C   0  0  1  0  0  0  0  0  0  0  0  0
   22.4443   -2.9458   51.4274 C   0  0  1  0  0  0  0  0  0  0  0  0
   21.9517   -3.0760   52.8838 C   0  0  0  0  0  0  0  0  0  0  0  0
   21.4115   -1.6680   53.2856 C   0  0  1  0  0  0  0  0  0  0  0  0
   20.1919   -1.1981   52.3380 C   0  0  1  0  0  0  0  0  0  0  0  0
   19.6597    0.2142   52.7202 C   0  0  1  0  0  0  0  0  0  0  0  0
   19.2039    0.1520   54.2352 C   0  0  1  0  0  0  0  0  0  0  0  0
   20.4070   -0.3521   55.1060 C   0  0  2  0  0  0  0  0  0  0  0  0
   18.1697    2.5118   53.7269 C   0  0  0  0  0  0  0  0  0  0  0  0
   23.0088   -4.2544   50.9681 N   0  0  0  0  0  0  0  0  0  0  0  0
   18.7066    1.5113   54.7192 N   0  0  0  0  0  0  0  0  0  0  0  0
   20.1909   -3.4840   50.5112 O   0  0  0  0  0  0  0  0  0  0  0  0
   20.6595   -1.2066   50.9449 O   0  0  0  0  0  0  0  0  0  0  0  0
   20.9354   -1.6762   54.6642 O   0  0  0  0  0  0  0  0  0  0  0  0
   20.7296    1.1373   52.5107 O   0  0  0  0  0  0  0  0  0  0  0  0
   19.9934   -0.4665   56.4186 O   0  0  0  0  0  0  0  0  0  0  0  0
   21.0117   -0.1115   57.3694 C   0  0  2  0  0  0  0  0  0  0  0  0
   20.4034    0.0085   58.7876 C   0  0  1  0  0  0  0  0  0  0  0  0
   19.4012    1.1990   58.8894 C   0  0  2  0  0  0  0  0  0  0  0  0
   20.1340    2.5221   58.5186 C   0  0  1  0  0  0  0  0  0  0  0  0
   20.6584    2.3575   57.0316 C   0  0  1  0  0  0  0  0  0  0  0  0
   21.4153    3.5930   56.5525 C   0  0  0  0  0  0  0  0  0  0  0  0
   19.1779    3.6619   58.6154 N   0  0  0  0  0  0  0  0  0  0  0  0
   21.6106    1.1920   56.9814 O   0  0  0  0  0  0  0  0  0  0  0  0
   19.7759   -1.2520   59.0911 O   0  0  0  0  0  0  0  0  0  0  0  0
   18.9293    1.2718   60.2184 O   0  0  0  0  0  0  0  0  0  0  0  0
   20.5005    4.6138   56.2518 O   0  0  0  0  0  0  0  0  0  0  0  0
   19.5901   -3.6742   49.2468 C   0  0  1  0  0  0  0  0  0  0  0  0
   18.7907   -5.0163   49.2848 C   0  0  1  0  0  0  0  0  0  0  0  0
   18.1488   -5.2544   47.8869 C   0  0  2  0  0  0  0  0  0  0  0  0
   17.1970   -4.0785   47.5064 C   0  0  1  0  0  0  0  0  0  0  0  0
   17.9927   -2.7181   47.4765 C   0  0  0  0  0  0  0  0  0  0  0  0
   18.6394   -2.4763   48.9032 C   0  0  2  0  0  0  0  0  0  0  0  0
   16.6005   -4.3267   46.1647 N   0  0  0  0  0  0  0  0  0  0  0  0
   19.3810   -1.1958   48.8674 N   0  0  0  0  0  0  0  0  0  0  0  0
   19.6704   -6.1140   49.5919 O   0  0  0  0  0  0  0  0  0  0  0  0
   17.4253   -6.4723   47.9510 O   0  0  0  0  0  0  0  0  0  0  0  0
  1  2  1  0  0  0  0
  1 12  1  1  0  0  0
  1 13  1  0  0  0  0
  2  3  1  0  0  0  0
  2 10  1  6  0  0  0
  4  3  1  6  0  0  0
  4  5  1  0  0  0  0
  4 14  1  0  0  0  0
  5  6  1  0  0  0  0
  5 13  1  6  0  0  0
  6  7  1  0  0  0  0
  6 15  1  1  0  0  0
  7  8  1  0  0  0  0
  7 11  1  1  0  0  0
  8 14  1  0  0  0  0
  8 16  1  1  0  0  0
  9 11  1  0  0  0  0
 17 16  1  6  0  0  0
 17 18  1  0  0  0  0
 17 24  1  0  0  0  0
 18 19  1  0  0  0  0
 18 25  1  6  0  0  0
 19 20  1  0  0  0  0
 19 26  1  1  0  0  0
 20 21  1  0  0  0  0
 20 23  1  6  0  0  0
 21 22  1  1  0  0  0
 21 24  1  0  0  0  0
 22 27  1  0  0  0  0
 28 12  1  1  0  0  0
 28 29  1  0  0  0  0
 28 33  1  0  0  0  0
 29 30  1  0  0  0  0
 29 36  1  6  0  0  0
 30 31  1  0  0  0  0
 30 37  1  1  0  0  0
 31 32  1  0  0  0  0
 31 34  1  6  0  0  0
 32 33  1  0  0  0  0
 33 35  1  6  0  0  0
M  END
>  <CHROM.1>
-141.01434330,24.77977934,-143.99147003,168.79699047,-75.77724243,163.41946640
19.87689848,-1.05656636,53.23466424,-1.83838592,-1.13030140,0.74821383

>  <Name>
2oe8_lig

>  <RI>
0

>  <Rbt.Current_Directory>
/home/itssahil/PROJECTS/Mol_Feturizer/New_Systems/rnas/2oe8

>  <Rbt.Executable>
rbdock ($Id: //depot/dev/client3/rdock/2013.1/src/exe/rbdock.cxx#4 $)

>  <Rbt.Library>
libRbt.so (2013.1, Build901 2013/11/27)

>  <Rbt.Parameter_File>
/export/apps/rDock/src/rDock_2013.1_src/data/scripts/dock_solv.prm

>  <Rbt.Receptor>
prm/pocket_docking_3.prm

>  <SCORE>
-6.71753

>  <SCORE.INTER>
-8.61909

>  <SCORE.INTER.CONST>
1

>  <SCORE.INTER.POLAR>
-0.82149

>  <SCORE.INTER.ROT>
6

>  <SCORE.INTER.SOLV>
12.4265

>  <SCORE.INTER.VDW>
-14.7499

>  <SCORE.INTER.norm>
-0.232948

>  <SCORE.INTRA>
1.67091

>  <SCORE.INTRA.DIHEDRAL>
-2.9906

>  <SCORE.INTRA.DIHEDRAL.0>
16.4056

>  <SCORE.INTRA.POLAR>
0

>  <SCORE.INTRA.POLAR.0>
0

>  <SCORE.INTRA.REPUL>
0

>  <SCORE.INTRA.REPUL.0>
0

>  <SCORE.INTRA.SOLV>
1.85142

>  <SCORE.INTRA.SOLV.lig_0>
-90.9627

>  <SCORE.INTRA.VDW>
2.2405

>  <SCORE.INTRA.VDW.0>
-3.28744

>  <SCORE.INTRA.norm>
0.0451597

>  <SCORE.RESTR>
0.230651

>  <SCORE.RESTR.CAVITY>
0.230651

>  <SCORE.RESTR.norm>
0.00623382

>  <SCORE.SYSTEM>
0

>  <SCORE.SYSTEM.CONST>
0

>  <SCORE.SYSTEM.DIHEDRAL>
0

>  <SCORE.SYSTEM.SOLV>
0

>  <SCORE.SYSTEM.norm>
0

>  <SCORE.heavy>
37

>  <SCORE.norm>
-0.181555

>  <RMSD>
10.071

$$$$
2oe8_lig
 OpenBabel11021811463D
libRbt.so/2013.1/901 2013/11/27
 37 40  0  0  0  0  0  0  0  0999 V2000
   22.2232   -1.8943   49.8107 C   0  0  1  0  0  0  0  0  0  0  0  0
   23.2616   -2.4449   50.8605 C   0  0  1  0  0  0  0  0  0  0  0  0
   22.5745   -2.5804   52.2354 C   0  0  0  0  0  0  0  0  0  0  0  0
   22.0855   -1.1485   52.6180 C   0  0  1  0  0  0  0  0  0  0  0  0
   21.0363   -0.5626   51.5400 C   0  0  1  0  0  0  0  0  0  0  0  0
   20.5580    0.8735   51.9043 C   0  0  1  0  0  0  0  0  0  0  0  0
   19.9044    0.8014   53.3446 C   0  0  1  0  0  0  0  0  0  0  0  0
   20.9450    0.1848   54.3431 C   0  0  2  0  0  0  0  0  0  0  0  0
   18.5880    3.0318   52.9096 C   0  0  0  0  0  0  0  0  0  0  0  0
   23.7891   -3.7778   50.4279 N   0  0  0  0  0  0  0  0  0  0  0  0
   19.4436    2.1792   53.8123 N   0  0  0  0  0  0  0  0  0  0  0  0
   21.1158   -2.7883   49.6421 O   0  0  0  0  0  0  0  0  0  0  0  0
   21.6807   -0.5653   50.2193 O   0  0  0  0  0  0  0  0  0  0  0  0
   21.4334   -1.1614   53.9225 O   0  0  0  0  0  0  0  0  0  0  0  0
   21.7078    1.7207   51.8698 O   0  0  0  0  0  0  0  0  0  0  0  0
   20.3559    0.0634   55.5862 O   0  0  0  0  0  0  0  0  0  0  0  0
   20.7185    1.1181   56.4934 C   0  0  2  0  0  0  0  0  0  0  0  0
   20.8864    0.5589   57.9269 C   0  0  1  0  0  0  0  0  0  0  0  0
   19.5342    0.0463   58.5109 C   0  0  2  0  0  0  0  0  0  0  0  0
   18.5021    1.2124   58.5196 C   0  0  1  0  0  0  0  0  0  0  0  0
   18.3211    1.6791   57.0154 C   0  0  1  0  0  0  0  0  0  0  0  0
   17.3371    2.8389   56.8913 C   0  0  0  0  0  0  0  0  0  0  0  0
   17.2086    0.7249   59.0778 N   0  0  0  0  0  0  0  0  0  0  0  0
   19.6517    2.1526   56.4930 O   0  0  0  0  0  0  0  0  0  0  0  0
   21.8771   -0.4849   57.8647 O   0  0  0  0  0  0  0  0  0  0  0  0
   19.7600   -0.4003   59.8315 O   0  0  0  0  0  0  0  0  0  0  0  0
   17.8628    3.9686   57.5366 O   0  0  0  0  0  0  0  0  0  0  0  0
   20.3762   -2.5574   48.4608 C   0  0  1  0  0  0  0  0  0  0  0  0
   21.2532   -2.9956   47.2441 C   0  0  1  0  0  0  0  0  0  0  0  0
   20.4621   -2.7170   45.9328 C   0  0  2  0  0  0  0  0  0  0  0  0
   19.1114   -3.4974   45.9239 C   0  0  1  0  0  0  0  0  0  0  0  0
   18.2242   -3.0698   47.1547 C   0  0  0  0  0  0  0  0  0  0  0  0
   19.0307   -3.3608   48.4877 C   0  0  2  0  0  0  0  0  0  0  0  0
   18.3717   -3.2104   44.6636 N   0  0  0  0  0  0  0  0  0  0  0  0
   18.1894   -2.9602   49.6379 N   0  0  0  0  0  0  0  0  0  0  0  0
   22.4836   -2.2481   47.2192 O   0  0  0  0  0  0  0  0  0  0  0  0
   21.2760   -3.1293   44.8472 O   0  0  0  0  0  0  0  0  0  0  0  0
  1  2  1  0  0  0  0
  1 12  1  1  0  0  0
  1 13  1  0  0  0  0
  2  3  1  0  0  0  0
  2 10  1  6  0  0  0
  4  3  1  6  0  0  0
  4  5  1  0  0  0  0
  4 14  1  0  0  0  0
  5  6  1  0  0  0  0
  5 13  1  6  0  0  0
  6  7  1  0  0  0  0
  6 15  1  1  0  0  0
  7  8  1  0  0  0  0
  7 11  1  1  0  0  0
  8 14  1  0  0  0  0
  8 16  1  1  0  0  0
  9 11  1  0  0  0  0
 17 16  1  6  0  0  0
 17 18  1  0  0  0  0
 17 24  1  0  0  0  0
 18 19  1  0  0  0  0
 18 25  1  6  0  0  0
 19 20  1  0  0  0  0
 19 26  1  1  0  0  0
 20 21  1  0  0  0  0
 20 23  1  6  0  0  0
 21 22  1  1  0  0  0
 21 24  1  0  0  0  0
 22 27  1  0  0  0  0
 28 12  1  1  0  0  0
 28 29  1  0  0  0  0
 28 33  1  0  0  0  0
 29 30  1  0  0  0  0
 29 36  1  6  0  0  0
 30 31  1  0  0  0  0
 30 37  1  6  0  0  0
 31 32  1  0  0  0  0
 31 34  1  6  0  0  0
 32 33  1  0  0  0  0
 33 35  1  1  0  0  0
M  END
>  <CHROM.1>
-162.29886657,50.26956248,-100.08753505,-142.34730823,65.19658233,70.40080276
20.31422155,-0.62903079,52.49014563,-1.43197182,-0.55278130,1.25801571

>  <Name>
2oe8_lig

>  <RI>
0

>  <Rbt.Current_Directory>
/home/itssahil/PROJECTS/Mol_Feturizer/New_Systems/rnas/2oe8

>  <Rbt.Executable>
rbdock ($Id: //depot/dev/client3/rdock/2013.1/src/exe/rbdock.cxx#4 $)

>  <Rbt.Library>
libRbt.so (2013.1, Build901 2013/11/27)

>  <Rbt.Parameter_File>
/export/apps/rDock/src/rDock_2013.1_src/data/scripts/dock_solv.prm

>  <Rbt.Receptor>
prm/pocket_docking_3.prm

>  <SCORE>
-16.8711

>  <SCORE.INTER>
-16.1752

>  <SCORE.INTER.CONST>
1

>  <SCORE.INTER.POLAR>
-1.80152

>  <SCORE.INTER.ROT>
6

>  <SCORE.INTER.SOLV>
15.4038

>  <SCORE.INTER.VDW>
-17.5129

>  <SCORE.INTER.norm>
-0.437166

>  <SCORE.INTRA>
-0.853168

>  <SCORE.INTRA.DIHEDRAL>
-3.85099

>  <SCORE.INTRA.DIHEDRAL.0>
16.4056

>  <SCORE.INTRA.POLAR>
0

>  <SCORE.INTRA.POLAR.0>
0

>  <SCORE.INTRA.REPUL>
0

>  <SCORE.INTRA.REPUL.0>
0

>  <SCORE.INTRA.SOLV>
-0.570129

>  <SCORE.INTRA.SOLV.lig_0>
-90.9627

>  <SCORE.INTRA.VDW>
1.35739

>  <SCORE.INTRA.VDW.0>
-3.28744

>  <SCORE.INTRA.norm>
-0.0230586

>  <SCORE.RESTR>
0.15724

>  <SCORE.RESTR.CAVITY>
0.15724

>  <SCORE.RESTR.norm>
0.00424973

>  <SCORE.SYSTEM>
0

>  <SCORE.SYSTEM.CONST>
0

>  <SCORE.SYSTEM.DIHEDRAL>
0

>  <SCORE.SYSTEM.SOLV>
0

>  <SCORE.SYSTEM.norm>
0

>  <SCORE.heavy>
37

>  <SCORE.norm>
-0.455975

>  <RMSD>
10.075

$$$$
2oe8_lig
 OpenBabel11021811463D
libRbt.so/2013.1/901 2013/11/27
 37 40  0  0  0  0  0  0  0  0999 V2000
   19.5013   -2.4060   49.3604 C   0  0  1  0  0  0  0  0  0  0  0  0
   20.5962   -3.0103   50.3194 C   0  0  1  0  0  0  0  0  0  0  0  0
   20.1534   -2.8185   51.7849 C   0  0  0  0  0  0  0  0  0  0  0  0
   20.0031   -1.2792   51.9938 C   0  0  1  0  0  0  0  0  0  0  0  0
   18.8989   -0.6422   51.0033 C   0  0  1  0  0  0  0  0  0  0  0  0
   18.7565    0.8967   51.1921 C   0  0  1  0  0  0  0  0  0  0  0  0
   18.3689    1.1519   52.7059 C   0  0  1  0  0  0  0  0  0  0  0  0
   19.4451    0.4762   53.6253 C   0  0  2  0  0  0  0  0  0  0  0  0
   19.4578    3.5370   52.8541 C   0  0  0  0  0  0  0  0  0  0  0  0
   20.7925   -4.4682   50.0395 N   0  0  0  0  0  0  0  0  0  0  0  0
   18.2516    2.6444   53.0025 N   0  0  0  0  0  0  0  0  0  0  0  0
   18.2407   -3.0711   49.5103 O   0  0  0  0  0  0  0  0  0  0  0  0
   19.2856   -0.9521   49.6199 O   0  0  0  0  0  0  0  0  0  0  0  0
   19.6033   -0.9850   53.3653 O   0  0  0  0  0  0  0  0  0  0  0  0
   20.0133    1.4806   50.8457 O   0  0  0  0  0  0  0  0  0  0  0  0
   19.0760    0.6441   54.9454 O   0  0  0  0  0  0  0  0  0  0  0  0
   20.1948    0.7012   55.8465 C   0  0  2  0  0  0  0  0  0  0  0  0
   19.8141    0.0856   57.2146 C   0  0  1  0  0  0  0  0  0  0  0  0
   18.7308    0.9329   57.9499 C   0  0  2  0  0  0  0  0  0  0  0  0
   19.2629    2.3819   58.1558 C   0  0  1  0  0  0  0  0  0  0  0  0
   19.5546    2.9751   56.7149 C   0  0  1  0  0  0  0  0  0  0  0  0
   20.1012    4.3982   56.7826 C   0  0  0  0  0  0  0  0  0  0  0  0
   18.2291    3.1940   58.8589 N   0  0  0  0  0  0  0  0  0  0  0  0
   20.5945    2.1191   56.0416 O   0  0  0  0  0  0  0  0  0  0  0  0
   19.3686   -1.2618   56.9673 O   0  0  0  0  0  0  0  0  0  0  0  0
   18.4742    0.3366   59.2040 O   0  0  0  0  0  0  0  0  0  0  0  0
   20.4515    4.8261   55.4929 O   0  0  0  0  0  0  0  0  0  0  0  0
   18.0546   -4.1420   48.6079 C   0  0  1  0  0  0  0  0  0  0  0  0
   17.2473   -5.2613   49.3408 C   0  0  1  0  0  0  0  0  0  0  0  0
   17.0621   -6.4617   48.3673 C   0  0  2  0  0  0  0  0  0  0  0  0
   16.3056   -6.0176   47.0772 C   0  0  1  0  0  0  0  0  0  0  0  0
   17.1075   -4.8802   46.3368 C   0  0  0  0  0  0  0  0  0  0  0  0
   17.2884   -3.6577   47.3292 C   0  0  2  0  0  0  0  0  0  0  0  0
   16.1459   -7.1805   46.1609 N   0  0  0  0  0  0  0  0  0  0  0  0
   18.0385   -2.5934   46.6251 N   0  0  0  0  0  0  0  0  0  0  0  0
   17.9598   -5.7087   50.5092 O   0  0  0  0  0  0  0  0  0  0  0  0
   16.3221   -7.4579   49.0535 O   0  0  0  0  0  0  0  0  0  0  0  0
  1  2  1  0  0  0  0
  1 12  1  1  0  0  0
  1 13  1  0  0  0  0
  2  3  1  0  0  0  0
  2 10  1  6  0  0  0
  4  3  1  1  0  0  0
  4  5  1  0  0  0  0
  4 14  1  0  0  0  0
  5  6  1  0  0  0  0
  5 13  1  6  0  0  0
  6  7  1  0  0  0  0
  6 15  1  1  0  0  0
  7  8  1  0  0  0  0
  7 11  1  6  0  0  0
  8 14  1  0  0  0  0
  8 16  1  1  0  0  0
  9 11  1  0  0  0  0
 17 16  1  6  0  0  0
 17 18  1  0  0  0  0
 17 24  1  0  0  0  0
 18 19  1  0  0  0  0
 18 25  1  6  0  0  0
 19 20  1  0  0  0  0
 19 26  1  1  0  0  0
 20 21  1  0  0  0  0
 20 23  1  6  0  0  0
 21 22  1  1  0  0  0
 21 24  1  0  0  0  0
 22 27  1  0  0  0  0
 28 12  1  1  0  0  0
 28 29  1  0  0  0  0
 28 33  1  0  0  0  0
 29 30  1  0  0  0  0
 29 36  1  1  0  0  0
 30 31  1  0  0  0  0
 30 37  1  1  0  0  0
 31 32  1  0  0  0  0
 31 34  1  6  0  0  0
 32 33  1  0  0  0  0
 33 35  1  6  0  0  0
M  END
>  <CHROM.1>
-92.78802030,-62.35664870,-150.47148598,-147.33165963,174.78554703,144.76503867
18.84291070,-1.09508552,52.33641650,-2.31523736,1.32242665,1.58949211

>  <Name>
2oe8_lig

>  <RI>
0

>  <Rbt.Current_Directory>
/home/itssahil/PROJECTS/Mol_Feturizer/New_Systems/rnas/2oe8

>  <Rbt.Executable>
rbdock ($Id: //depot/dev/client3/rdock/2013.1/src/exe/rbdock.cxx#4 $)

>  <Rbt.Library>
libRbt.so (2013.1, Build901 2013/11/27)

>  <Rbt.Parameter_File>
/export/apps/rDock/src/rDock_2013.1_src/data/scripts/dock_solv.prm

>  <Rbt.Receptor>
prm/pocket_docking_3.prm

>  <SCORE>
-19.8877

>  <SCORE.INTER>
-20.7635

>  <SCORE.INTER.CONST>
1

>  <SCORE.INTER.POLAR>
-2.12728

>  <SCORE.INTER.ROT>
6

>  <SCORE.INTER.SOLV>
17.276

>  <SCORE.INTER.VDW>
-20.1101

>  <SCORE.INTER.norm>
-0.561176

>  <SCORE.INTRA>
0.537065

>  <SCORE.INTRA.DIHEDRAL>
0.00566009

>  <SCORE.INTRA.DIHEDRAL.0>
16.4056

>  <SCORE.INTRA.POLAR>
0

>  <SCORE.INTRA.POLAR.0>
0

>  <SCORE.INTRA.REPUL>
0

>  <SCORE.INTRA.REPUL.0>
0

>  <SCORE.INTRA.SOLV>
0.513403

>  <SCORE.INTRA.SOLV.lig_0>
-90.9627

>  <SCORE.INTRA.VDW>
0.277534

>  <SCORE.INTRA.VDW.0>
-3.28744

>  <SCORE.INTRA.norm>
0.0145153

>  <SCORE.RESTR>
0.33871

>  <SCORE.RESTR.CAVITY>
0.33871

>  <SCORE.RESTR.norm>
0.00915432

>  <SCORE.SYSTEM>
0

>  <SCORE.SYSTEM.CONST>
0

>  <SCORE.SYSTEM.DIHEDRAL>
0

>  <SCORE.SYSTEM.SOLV>
0

>  <SCORE.SYSTEM.norm>
0

>  <SCORE.heavy>
37

>  <SCORE.norm>
-0.537507

>  <RMSD>
10.079

$$$$
2oe8_lig
 OpenBabel11021811463D
libRbt.so/2013.1/901 2013/11/27
 37 40  0  0  0  0  0  0  0  0999 V2000
   19.4152   -2.3603   48.9495 C   0  0  1  0  0  0  0  0  0  0  0  0
   20.5966   -3.1487   49.6321 C   0  0  1  0  0  0  0  0  0  0  0  0
   20.3478   -3.2255   51.1529 C   0  0  0  0  0  0  0  0  0  0  0  0
   20.2849   -1.7496   51.6564 C   0  0  1  0  0  0  0  0  0  0  0  0
   19.0916   -0.9229   50.9501 C   0  0  1  0  0  0  0  0  0  0  0  0
   19.0339    0.5561   51.4328 C   0  0  1  0  0  0  0  0  0  0  0  0
   18.8484    0.5318   53.0051 C   0  0  1  0  0  0  0  0  0  0  0  0
   20.0036   -0.3191   53.6386 C   0  0  2  0  0  0  0  0  0  0  0  0
   18.5503    3.1205   52.6781 C   0  0  0  0  0  0  0  0  0  0  0  0
   20.6994   -4.5321   49.0684 N   0  0  0  0  0  0  0  0  0  0  0  0
   18.8273    1.9450   53.5812 N   0  0  0  0  0  0  0  0  0  0  0  0
   18.1581   -3.0222   49.1380 O   0  0  0  0  0  0  0  0  0  0  0  0
   19.2904   -0.9766   49.4951 O   0  0  0  0  0  0  0  0  0  0  0  0
   20.0710   -1.7089   53.0985 O   0  0  0  0  0  0  0  0  0  0  0  0
   20.2596    1.1749   51.0385 O   0  0  0  0  0  0  0  0  0  0  0  0
   19.8088   -0.3935   55.0037 O   0  0  0  0  0  0  0  0  0  0  0  0
   20.4608    0.6620   55.7301 C   0  0  2  0  0  0  0  0  0  0  0  0
   20.9615    0.1416   57.0991 C   0  0  1  0  0  0  0  0  0  0  0  0
   19.7793   -0.2491   58.0381 C   0  0  2  0  0  0  0  0  0  0  0  0
   18.8602    0.9898   58.2515 C   0  0  1  0  0  0  0  0  0  0  0  0
   18.3226    1.4165   56.8225 C   0  0  1  0  0  0  0  0  0  0  0  0
   17.4147    2.6410   56.8958 C   0  0  0  0  0  0  0  0  0  0  0  0
   17.7293    0.6189   59.1492 N   0  0  0  0  0  0  0  0  0  0  0  0
   19.4976    1.7720   55.9506 O   0  0  0  0  0  0  0  0  0  0  0  0
   21.8345   -0.9741   56.8383 O   0  0  0  0  0  0  0  0  0  0  0  0
   20.3135   -0.6655   59.2773 O   0  0  0  0  0  0  0  0  0  0  0  0
   18.1531    3.7434   57.3528 O   0  0  0  0  0  0  0  0  0  0  0  0
   17.9782   -4.1453   48.3000 C   0  0  1  0  0  0  0  0  0  0  0  0
   17.2132   -5.2401   49.1111 C   0  0  1  0  0  0  0  0  0  0  0  0
   17.0357   -6.4963   48.2093 C   0  0  2  0  0  0  0  0  0  0  0  0
   16.2418   -6.1412   46.9142 C   0  0  1  0  0  0  0  0  0  0  0  0
   17.0007   -5.0289   46.0947 C   0  0  0  0  0  0  0  0  0  0  0  0
   17.1738   -3.7496   47.0143 C   0  0  2  0  0  0  0  0  0  0  0  0
   16.0902   -7.3564   46.0668 N   0  0  0  0  0  0  0  0  0  0  0  0
   17.8835   -2.7094   46.2362 N   0  0  0  0  0  0  0  0  0  0  0  0
   17.9608   -5.6061   50.2860 O   0  0  0  0  0  0  0  0  0  0  0  0
   16.3342   -7.4693   48.9656 O   0  0  0  0  0  0  0  0  0  0  0  0
  1  2  1  0  0  0  0
  1 12  1  1  0  0  0
  1 13  1  0  0  0  0
  2  3  1  0  0  0  0
  2 10  1  6  0  0  0
  4  3  1  6  0  0  0
  4  5  1  0  0  0  0
  4 14  1  0  0  0  0
  5  6  1  0  0  0  0
  5 13  1  6  0  0  0
  6  7  1  0  0  0  0
  6 15  1  1  0  0  0
  7  8  1  0  0  0  0
  7 11  1  1  0  0  0
  8 14  1  0  0  0  0
  8 16  1  1  0  0  0
  9 11  1  0  0  0  0
 17 16  1  1  0  0  0
 17 18  1  0  0  0  0
 17 24  1  0  0  0  0
 18 19  1  0  0  0  0
 18 25  1  6  0  0  0
 19 20  1  0  0  0  0
 19 26  1  1  0  0  0
 20 21  1  0  0  0  0
 20 23  1  1  0  0  0
 21 22  1  1  0  0  0
 21 24  1  0  0  0  0
 22 27  1  0  0  0  0
 28 12  1  1  0  0  0
 28 29  1  0  0  0  0
 28 33  1  0  0  0  0
 29 30  1  0  0  0  0
 29 36  1  1  0  0  0
 30 31  1  0  0  0  0
 30 37  1  1  0  0  0
 31 32  1  0  0  0  0
 31 34  1  6  0  0  0
 32 33  1  0  0  0  0
 33 35  1  6  0  0  0
M  END
>  <CHROM.1>
-76.86240998,18.67602317,-90.73780597,-145.46469673,63.85747030,143.12876962
18.86623386,-1.56326014,52.27165604,-2.94339070,1.40873213,2.34142796

>  <Name>
2oe8_lig

>  <RI>
0

>  <Rbt.Current_Directory>
/home/itssahil/PROJECTS/Mol_Feturizer/New_Systems/rnas/2oe8

>  <Rbt.Executable>
rbdock ($Id: //depot/dev/client3/rdock/2013.1/src/exe/rbdock.cxx#4 $)

>  <Rbt.Library>
libRbt.so (2013.1, Build901 2013/11/27)

>  <Rbt.Parameter_File>
/export/apps/rDock/src/rDock_2013.1_src/data/scripts/dock_solv.prm

>  <Rbt.Receptor>
prm/pocket_docking_7.prm

>  <SCORE>
-23.7763

>  <SCORE.INTER>
-26.4184

>  <SCORE.INTER.CONST>
1

>  <SCORE.INTER.POLAR>
-2.72507

>  <SCORE.INTER.ROT>
6

>  <SCORE.INTER.SOLV>
17.4785

>  <SCORE.INTER.VDW>
-21.9549

>  <SCORE.INTER.norm>
-0.71401

>  <SCORE.INTRA>
2.64203

>  <SCORE.INTRA.DIHEDRAL>
-1.03401

>  <SCORE.INTRA.DIHEDRAL.0>
16.4056

>  <SCORE.INTRA.POLAR>
0

>  <SCORE.INTRA.POLAR.0>
0

>  <SCORE.INTRA.REPUL>
0

>  <SCORE.INTRA.REPUL.0>
0

>  <SCORE.INTRA.SOLV>
2.43332

>  <SCORE.INTRA.SOLV.lig_0>
-90.9627

>  <SCORE.INTRA.VDW>
1.94237

>  <SCORE.INTRA.VDW.0>
-3.28744

>  <SCORE.INTRA.norm>
0.0714062

>  <SCORE.RESTR>
0

>  <SCORE.RESTR.CAVITY>
0

>  <SCORE.RESTR.norm>
0

>  <SCORE.SYSTEM>
0

>  <SCORE.SYSTEM.CONST>
0

>  <SCORE.SYSTEM.DIHEDRAL>
0

>  <SCORE.SYSTEM.SOLV>
0

>  <SCORE.SYSTEM.norm>
0

>  <SCORE.heavy>
37

>  <SCORE.norm>
-0.642604

>  <RMSD>
10.079

$$$$
2oe8_lig
 OpenBabel11021811463D
libRbt.so/2013.1/901 2013/11/27
 37 40  0  0  0  0  0  0  0  0999 V2000
   19.3955   -2.3556   48.9959 C   0  0  1  0  0  0  0  0  0  0  0  0
   20.5780   -3.0563   49.7667 C   0  0  1  0  0  0  0  0  0  0  0  0
   20.2575   -3.0857   51.2757 C   0  0  0  0  0  0  0  0  0  0  0  0
   20.0983   -1.5962   51.7136 C   0  0  1  0  0  0  0  0  0  0  0  0
   18.9033   -0.8589   50.9171 C   0  0  1  0  0  0  0  0  0  0  0  0
   18.7502    0.6332   51.3344 C   0  0  1  0  0  0  0  0  0  0  0  0
   18.4878    0.6614   52.8955 C   0  0  1  0  0  0  0  0  0  0  0  0
   19.6495   -0.1050   53.6187 C   0  0  2  0  0  0  0  0  0  0  0  0
   19.3249    3.1504   52.9169 C   0  0  0  0  0  0  0  0  0  0  0  0
   20.7755   -4.4539   49.2667 N   0  0  0  0  0  0  0  0  0  0  0  0
   18.3697    2.0932   53.4106 N   0  0  0  0  0  0  0  0  0  0  0  0
   18.1639   -3.0720   49.1513 O   0  0  0  0  0  0  0  0  0  0  0  0
   19.1769   -0.9597   49.4768 O   0  0  0  0  0  0  0  0  0  0  0  0
   19.8108   -1.5098   53.1408 O   0  0  0  0  0  0  0  0  0  0  0  0
   19.9628    1.2968   50.9739 O   0  0  0  0  0  0  0  0  0  0  0  0
   19.3906   -0.1354   54.9748 O   0  0  0  0  0  0  0  0  0  0  0  0
   20.1856    0.7966   55.7272 C   0  0  2  0  0  0  0  0  0  0  0  0
   20.3289    0.3193   57.1926 C   0  0  1  0  0  0  0  0  0  0  0  0
   18.9630    0.3396   57.9448 C   0  0  2  0  0  0  0  0  0  0  0  0
   18.3816    1.7841   57.9175 C   0  0  1  0  0  0  0  0  0  0  0  0
   18.1871    2.1739   56.3932 C   0  0  1  0  0  0  0  0  0  0  0  0
   17.6329    3.5865   56.2309 C   0  0  0  0  0  0  0  0  0  0  0  0
   17.0757    1.8061   58.6363 N   0  0  0  0  0  0  0  0  0  0  0  0
   19.5273    2.1288   55.7082 O   0  0  0  0  0  0  0  0  0  0  0  0
   20.9055   -1.0002   57.1573 O   0  0  0  0  0  0  0  0  0  0  0  0
   19.1843   -0.0600   59.2811 O   0  0  0  0  0  0  0  0  0  0  0  0
   18.6109    4.5185   56.6101 O   0  0  0  0  0  0  0  0  0  0  0  0
   18.0778   -4.2311   48.3483 C   0  0  1  0  0  0  0  0  0  0  0  0
   17.2002   -5.2813   49.1022 C   0  0  1  0  0  0  0  0  0  0  0  0
   17.1228   -6.5764   48.2421 C   0  0  2  0  0  0  0  0  0  0  0  0
   16.5067   -6.2754   46.8409 C   0  0  1  0  0  0  0  0  0  0  0  0
   17.3797   -5.2080   46.0771 C   0  0  0  0  0  0  0  0  0  0  0  0
   17.4507   -3.8890   46.9531 C   0  0  2  0  0  0  0  0  0  0  0  0
   16.4487   -7.5271   46.0363 N   0  0  0  0  0  0  0  0  0  0  0  0
   18.2686   -2.8914   46.2272 N   0  0  0  0  0  0  0  0  0  0  0  0
   17.7856   -5.5985   50.3788 O   0  0  0  0  0  0  0  0  0  0  0  0
   16.3168   -7.5080   48.9445 O   0  0  0  0  0  0  0  0  0  0  0  0
  1  2  1  0  0  0  0
  1 12  1  1  0  0  0
  1 13  1  0  0  0  0
  2  3  1  0  0  0  0
  2 10  1  6  0  0  0
  4  3  1  6  0  0  0
  4  5  1  0  0  0  0
  4 14  1  0  0  0  0
  5  6  1  0  0  0  0
  5 13  1  6  0  0  0
  6  7  1  0  0  0  0
  6 15  1  1  0  0  0
  7  8  1  0  0  0  0
  7 11  1  1  0  0  0
  8 14  1  0  0  0  0
  8 16  1  1  0  0  0
  9 11  1  0  0  0  0
 17 16  1  6  0  0  0
 17 18  1  0  0  0  0
 17 24  1  0  0  0  0
 18 19  1  0  0  0  0
 18 25  1  6  0  0  0
 19 20  1  0  0  0  0
 19 26  1  1  0  0  0
 20 21  1  0  0  0  0
 20 23  1  1  0  0  0
 21 22  1  1  0  0  0
 21 24  1  0  0  0  0
 22 27  1  0  0  0  0
 28 12  1  1  0  0  0
 28 29  1  0  0  0  0
 28 33  1  0  0  0  0
 29 30  1  0  0  0  0
 29 36  1  1  0  0  0
 30 31  1  0  0  0  0
 30 37  1  1  0  0  0
 31 32  1  0  0  0  0
 31 34  1  6  0  0  0
 32 33  1  0  0  0  0
 33 35  1  6  0  0  0
M  END
>  <CHROM.1>
-77.15803472,-42.50051719,-103.69445643,-155.19756667,69.46404594,148.98014324
18.73206665,-1.37470962,52.20865783,-2.35011085,1.40966618,1.68080112

>  <Name>
2oe8_lig

>  <RI>
0

>  <Rbt.Current_Directory>
/home/itssahil/PROJECTS/Mol_Feturizer/New_Systems/rnas/2oe8

>  <Rbt.Executable>
rbdock ($Id: //depot/dev/client3/rdock/2013.1/src/exe/rbdock.cxx#4 $)

>  <Rbt.Library>
libRbt.so (2013.1, Build901 2013/11/27)

>  <Rbt.Parameter_File>
/export/apps/rDock/src/rDock_2013.1_src/data/scripts/dock_solv.prm

>  <Rbt.Receptor>
prm/pocket_docking_3.prm

>  <SCORE>
-21.7279

>  <SCORE.INTER>
-23.9837

>  <SCORE.INTER.CONST>
1

>  <SCORE.INTER.POLAR>
-1.9996

>  <SCORE.INTER.ROT>
6

>  <SCORE.INTER.SOLV>
14.9022

>  <SCORE.INTER.VDW>
-21.8912

>  <SCORE.INTER.norm>
-0.648209

>  <SCORE.INTRA>
2.25344

>  <SCORE.INTRA.DIHEDRAL>
-2.1125

>  <SCORE.INTRA.DIHEDRAL.0>
16.4056

>  <SCORE.INTRA.POLAR>
0

>  <SCORE.INTRA.POLAR.0>
0

>  <SCORE.INTRA.REPUL>
0

>  <SCORE.INTRA.REPUL.0>
0

>  <SCORE.INTRA.SOLV>
2.85939

>  <SCORE.INTRA.SOLV.lig_0>
-90.9627

>  <SCORE.INTRA.VDW>
1.87999

>  <SCORE.INTRA.VDW.0>
-3.28744

>  <SCORE.INTRA.norm>
0.0609037

>  <SCORE.RESTR>
0.00238843

>  <SCORE.RESTR.CAVITY>
0.00238843

>  <SCORE.RESTR.norm>
6.45521e-05

>  <SCORE.SYSTEM>
0

>  <SCORE.SYSTEM.CONST>
0

>  <SCORE.SYSTEM.DIHEDRAL>
0

>  <SCORE.SYSTEM.SOLV>
0

>  <SCORE.SYSTEM.norm>
0

>  <SCORE.heavy>
37

>  <SCORE.norm>
-0.58724

>  <RMSD>
10.085

$$$$
2oe8_lig
 OpenBabel11021811463D
libRbt.so/2013.1/901 2013/11/27
 37 40  0  0  0  0  0  0  0  0999 V2000
   21.7233   -2.3007   51.0610 C   0  0  1  0  0  0  0  0  0  0  0  0
   22.5850   -2.4207   52.3749 C   0  0  1  0  0  0  0  0  0  0  0  0
   21.6616   -2.2944   53.6045 C   0  0  0  0  0  0  0  0  0  0  0  0
   20.9850   -0.8921   53.4956 C   0  0  1  0  0  0  0  0  0  0  0  0
   20.1149   -0.7469   52.1436 C   0  0  1  0  0  0  0  0  0  0  0  0
   19.4520    0.6562   52.0179 C   0  0  1  0  0  0  0  0  0  0  0  0
   18.5431    0.8643   53.2975 C   0  0  1  0  0  0  0  0  0  0  0  0
   19.4227    0.6684   54.5812 C   0  0  2  0  0  0  0  0  0  0  0  0
   18.7358    3.4834   53.3105 C   0  0  0  0  0  0  0  0  0  0  0  0
   23.3002   -3.7356   52.4155 N   0  0  0  0  0  0  0  0  0  0  0  0
   17.8826    2.2402   53.2887 N   0  0  0  0  0  0  0  0  0  0  0  0
   20.7512   -3.3497   50.9676 O   0  0  0  0  0  0  0  0  0  0  0  0
   20.9984   -0.9976   50.9964 O   0  0  0  0  0  0  0  0  0  0  0  0
   20.0985   -0.6615   54.6305 O   0  0  0  0  0  0  0  0  0  0  0  0
   20.5085    1.6145   51.9385 O   0  0  0  0  0  0  0  0  0  0  0  0
   18.6191    0.7880   55.6979 O   0  0  0  0  0  0  0  0  0  0  0  0
   19.3312    1.2264   56.8673 C   0  0  2  0  0  0  0  0  0  0  0  0
   18.7042    0.6087   58.1405 C   0  0  1  0  0  0  0  0  0  0  0  0
   17.2600    1.1408   58.3919 C   0  0  2  0  0  0  0  0  0  0  0  0
   17.2987    2.6919   58.5251 C   0  0  1  0  0  0  0  0  0  0  0  0
   17.8740    3.2576   57.1605 C   0  0  1  0  0  0  0  0  0  0  0  0
   17.9773    4.7801   57.1714 C   0  0  0  0  0  0  0  0  0  0  0  0
   15.9190    3.2030   58.7658 N   0  0  0  0  0  0  0  0  0  0  0  0
   19.2611    2.7082   56.9563 O   0  0  0  0  0  0  0  0  0  0  0  0
   18.7310   -0.8223   57.9783 O   0  0  0  0  0  0  0  0  0  0  0  0
   16.7777    0.5712   59.5908 O   0  0  0  0  0  0  0  0  0  0  0  0
   16.6889    5.3359   57.1667 O   0  0  0  0  0  0  0  0  0  0  0  0
   20.4052   -3.6845   49.6394 C   0  0  1  0  0  0  0  0  0  0  0  0
   20.0533   -5.2063   49.5971 C   0  0  1  0  0  0  0  0  0  0  0  0
   19.7003   -5.5962   48.1321 C   0  0  2  0  0  0  0  0  0  0  0  0
   18.4938   -4.7562   47.6103 C   0  0  1  0  0  0  0  0  0  0  0  0
   18.8356   -3.2182   47.6598 C   0  0  0  0  0  0  0  0  0  0  0  0
   19.1883   -2.8241   49.1540 C   0  0  2  0  0  0  0  0  0  0  0  0
   18.1795   -5.1432   46.2070 N   0  0  0  0  0  0  0  0  0  0  0  0
   19.5041   -1.3784   49.1921 N   0  0  0  0  0  0  0  0  0  0  0  0
   21.1774   -5.9921   50.0353 O   0  0  0  0  0  0  0  0  0  0  0  0
   19.3790   -6.9774   48.1233 O   0  0  0  0  0  0  0  0  0  0  0  0
  1  2  1  0  0  0  0
  1 12  1  1  0  0  0
  1 13  1  0  0  0  0
  2  3  1  0  0  0  0
  2 10  1  6  0  0  0
  4  3  1  1  0  0  0
  4  5  1  0  0  0  0
  4 14  1  0  0  0  0
  5  6  1  0  0  0  0
  5 13  1  6  0  0  0
  6  7  1  0  0  0  0
  6 15  1  1  0  0  0
  7  8  1  0  0  0  0
  7 11  1  6  0  0  0
  8 14  1  0  0  0  0
  8 16  1  1  0  0  0
  9 11  1  0  0  0  0
 17 16  1  6  0  0  0
 17 18  1  0  0  0  0
 17 24  1  0  0  0  0
 18 19  1  0  0  0  0
 18 25  1  6  0  0  0
 19 20  1  0  0  0  0
 19 26  1  1  0  0  0
 20 21  1  0  0  0  0
 20 23  1  6  0  0  0
 21 22  1  1  0  0  0
 21 24  1  0  0  0  0
 22 27  1  0  0  0  0
 28 12  1  1  0  0  0
 28 29  1  0  0  0  0
 28 33  1  0  0  0  0
 29 30  1  0  0  0  0
 29 36  1  6  0  0  0
 30 31  1  0  0  0  0
 30 37  1  1  0  0  0
 31 32  1  0  0  0  0
 31 34  1  6  0  0  0
 32 33  1  0  0  0  0
 33 35  1  6  0  0  0
M  END
>  <CHROM.1>
-151.99545340,-61.53276586,-153.43960337,-147.82197345,-68.97367302,148.52629375
19.34980837,-0.71550443,53.22437622,-1.06587843,-1.14442499,1.34920294

>  <Name>
2oe8_lig

>  <RI>
0

>  <Rbt.Current_Directory>
/home/itssahil/PROJECTS/Mol_Feturizer/New_Systems/rnas/2oe8

>  <Rbt.Executable>
rbdock ($Id: //depot/dev/client3/rdock/2013.1/src/exe/rbdock.cxx#4 $)

>  <Rbt.Library>
libRbt.so (2013.1, Build901 2013/11/27)

>  <Rbt.Parameter_File>
/export/apps/rDock/src/rDock_2013.1_src/data/scripts/dock_solv.prm

>  <Rbt.Receptor>
prm/pocket_docking_8.prm

>  <SCORE>
-12.9693

>  <SCORE.INTER>
-14.3858

>  <SCORE.INTER.CONST>
1

>  <SCORE.INTER.POLAR>
-1.53695

>  <SCORE.INTER.ROT>
6

>  <SCORE.INTER.SOLV>
14.6469

>  <SCORE.INTER.VDW>
-16.9496

>  <SCORE.INTER.norm>
-0.388805

>  <SCORE.INTRA>
1.41652

>  <SCORE.INTRA.DIHEDRAL>
-2.03772

>  <SCORE.INTRA.DIHEDRAL.0>
16.4056

>  <SCORE.INTRA.POLAR>
0

>  <SCORE.INTRA.POLAR.0>
0

>  <SCORE.INTRA.REPUL>
0

>  <SCORE.INTRA.REPUL.0>
0

>  <SCORE.INTRA.SOLV>
1.60381

>  <SCORE.INTRA.SOLV.lig_0>
-90.9627

>  <SCORE.INTRA.VDW>
1.63348

>  <SCORE.INTRA.VDW.0>
-3.28744

>  <SCORE.INTRA.norm>
0.0382844

>  <SCORE.RESTR>
0

>  <SCORE.RESTR.CAVITY>
0

>  <SCORE.RESTR.norm>
0

>  <SCORE.SYSTEM>
0

>  <SCORE.SYSTEM.CONST>
0

>  <SCORE.SYSTEM.DIHEDRAL>
0

>  <SCORE.SYSTEM.SOLV>
0

>  <SCORE.SYSTEM.norm>
0

>  <SCORE.heavy>
37

>  <SCORE.norm>
-0.35052

>  <RMSD>
10.094

$$$$
2oe8_lig
 OpenBabel11021811463D
libRbt.so/2013.1/901 2013/11/27
 37 40  0  0  0  0  0  0  0  0999 V2000
   19.8494   -1.7953   49.0009 C   0  0  1  0  0  0  0  0  0  0  0  0
   21.1705   -2.3931   49.6179 C   0  0  1  0  0  0  0  0  0  0  0  0
   20.9585   -2.6535   51.1239 C   0  0  0  0  0  0  0  0  0  0  0  0
   20.6114   -1.2701   51.7577 C   0  0  1  0  0  0  0  0  0  0  0  0
   19.2709   -0.6353   51.1205 C   0  0  1  0  0  0  0  0  0  0  0  0
   18.9282    0.7540   51.7339 C   0  0  1  0  0  0  0  0  0  0  0  0
   18.7684    0.5529   53.2963 C   0  0  1  0  0  0  0  0  0  0  0  0
   20.0755   -0.1067   53.8586 C   0  0  2  0  0  0  0  0  0  0  0  0
   18.6490    3.1760   53.2516 C   0  0  0  0  0  0  0  0  0  0  0  0
   21.5377   -3.6729   48.9327 N   0  0  0  0  0  0  0  0  0  0  0  0
   18.4755    1.8767   53.9971 N   0  0  0  0  0  0  0  0  0  0  0  0
   18.7496   -2.7065   49.1204 O   0  0  0  0  0  0  0  0  0  0  0  0
   19.4603   -0.5181   49.6679 O   0  0  0  0  0  0  0  0  0  0  0  0
   20.4096   -1.4018   53.1961 O   0  0  0  0  0  0  0  0  0  0  0  0
   20.0035    1.6353   51.4054 O   0  0  0  0  0  0  0  0  0  0  0  0
   19.9143   -0.3401   55.2101 O   0  0  0  0  0  0  0  0  0  0  0  0
   20.6002    0.6141   56.0384 C   0  0  2  0  0  0  0  0  0  0  0  0
   20.9435   -0.0148   57.4103 C   0  0  1  0  0  0  0  0  0  0  0  0
   19.6612   -0.3363   58.2375 C   0  0  2  0  0  0  0  0  0  0  0  0
   18.8438    0.9722   58.4495 C   0  0  1  0  0  0  0  0  0  0  0  0
   18.4600    1.5143   57.0101 C   0  0  1  0  0  0  0  0  0  0  0  0
   17.6635    2.8140   57.0825 C   0  0  0  0  0  0  0  0  0  0  0  0
   17.6174    0.6675   59.2405 N   0  0  0  0  0  0  0  0  0  0  0  0
   19.7268    1.7983   56.2472 O   0  0  0  0  0  0  0  0  0  0  0  0
   21.7299   -1.1943   57.1544 O   0  0  0  0  0  0  0  0  0  0  0  0
   20.0572   -0.8588   59.4883 O   0  0  0  0  0  0  0  0  0  0  0  0
   18.3551    3.7422   57.8757 O   0  0  0  0  0  0  0  0  0  0  0  0
   18.8859   -3.8661   48.3250 C   0  0  1  0  0  0  0  0  0  0  0  0
   17.6758   -4.8077   48.6262 C   0  0  1  0  0  0  0  0  0  0  0  0
   17.8299   -6.1045   47.7792 C   0  0  2  0  0  0  0  0  0  0  0  0
   17.8776   -5.7696   46.2563 C   0  0  1  0  0  0  0  0  0  0  0  0
   19.0892   -4.8106   45.9446 C   0  0  0  0  0  0  0  0  0  0  0  0
   18.9252   -3.4890   46.8042 C   0  0  2  0  0  0  0  0  0  0  0  0
   18.0307   -7.0242   45.4688 N   0  0  0  0  0  0  0  0  0  0  0  0
   20.0643   -2.5931   46.5027 N   0  0  0  0  0  0  0  0  0  0  0  0
   17.6499   -5.1580   50.0226 O   0  0  0  0  0  0  0  0  0  0  0  0
   16.7178   -6.9365   48.0657 O   0  0  0  0  0  0  0  0  0  0  0  0
  1  2  1  0  0  0  0
  1 12  1  1  0  0  0
  1 13  1  0  0  0  0
  2  3  1  0  0  0  0
  2 10  1  6  0  0  0
  4  3  1  6  0  0  0
  4  5  1  0  0  0  0
  4 14  1  0  0  0  0
  5  6  1  0  0  0  0
  5 13  1  6  0  0  0
  6  7  1  0  0  0  0
  6 15  1  1  0  0  0
  7  8  1  0  0  0  0
  7 11  1  1  0  0  0
  8 14  1  0  0  0  0
  8 16  1  1  0  0  0
  9 11  1  0  0  0  0
 17 16  1  6  0  0  0
 17 18  1  0  0  0  0
 17 24  1  0  0  0  0
 18 19  1  0  0  0  0
 18 25  1  6  0  0  0
 19 20  1  0  0  0  0
 19 26  1  1  0  0  0
 20 21  1  0  0  0  0
 20 23  1  1  0  0  0
 21 22  1  1  0  0  0
 21 24  1  0  0  0  0
 22 27  1  0  0  0  0
 28 12  1  1  0  0  0
 28 29  1  0  0  0  0
 28 33  1  0  0  0  0
 29 30  1  0  0  0  0
 29 36  1  1  0  0  0
 30 31  1  0  0  0  0
 30 37  1  6  0  0  0
 31 32  1  0  0  0  0
 31 34  1  6  0  0  0
 32 33  1  0  0  0  0
 33 35  1  1  0  0  0
M  END
>  <CHROM.1>
-67.92317392,-12.36897518,-103.07311920,-153.82071241,52.59932914,176.14056465
19.27694200,-1.33439808,52.33424884,-2.13949253,1.46935738,1.59330170

>  <Name>
2oe8_lig

>  <RI>
0

>  <Rbt.Current_Directory>
/home/itssahil/PROJECTS/Mol_Feturizer/New_Systems/rnas/2oe8

>  <Rbt.Executable>
rbdock ($Id: //depot/dev/client3/rdock/2013.1/src/exe/rbdock.cxx#4 $)

>  <Rbt.Library>
libRbt.so (2013.1, Build901 2013/11/27)

>  <Rbt.Parameter_File>
/export/apps/rDock/src/rDock_2013.1_src/data/scripts/dock_solv.prm

>  <Rbt.Receptor>
prm/pocket_docking_2.prm

>  <SCORE>
-13.0886

>  <SCORE.INTER>
-19.4013

>  <SCORE.INTER.CONST>
1

>  <SCORE.INTER.POLAR>
-1.83923

>  <SCORE.INTER.ROT>
6

>  <SCORE.INTER.SOLV>
14.047

>  <SCORE.INTER.VDW>
-19.0858

>  <SCORE.INTER.norm>
-0.52436

>  <SCORE.INTRA>
4.09903

>  <SCORE.INTRA.DIHEDRAL>
-5.98309

>  <SCORE.INTRA.DIHEDRAL.0>
16.4056

>  <SCORE.INTRA.POLAR>
0

>  <SCORE.INTRA.POLAR.0>
0

>  <SCORE.INTRA.REPUL>
0

>  <SCORE.INTRA.REPUL.0>
0

>  <SCORE.INTRA.SOLV>
4.70099

>  <SCORE.INTRA.SOLV.lig_0>
-90.9627

>  <SCORE.INTRA.VDW>
4.74008

>  <SCORE.INTRA.VDW.0>
-3.28744

>  <SCORE.INTRA.norm>
0.110785

>  <SCORE.RESTR>
2.21372

>  <SCORE.RESTR.CAVITY>
2.21372

>  <SCORE.RESTR.norm>
0.0598302

>  <SCORE.SYSTEM>
0

>  <SCORE.SYSTEM.CONST>
0

>  <SCORE.SYSTEM.DIHEDRAL>
0

>  <SCORE.SYSTEM.SOLV>
0

>  <SCORE.SYSTEM.norm>
0

>  <SCORE.heavy>
37

>  <SCORE.norm>
-0.353746

>  <RMSD>
10.095

$$$$
2oe8_lig
 OpenBabel11021811463D
libRbt.so/2013.1/901 2013/11/27
 37 40  0  0  0  0  0  0  0  0999 V2000
   20.2025   -1.0341   49.3525 C   0  0  1  0  0  0  0  0  0  0  0  0
   21.6514   -0.4157   49.3940 C   0  0  1  0  0  0  0  0  0  0  0  0
   22.1269   -0.3268   50.8591 C   0  0  0  0  0  0  0  0  0  0  0  0
   21.0979    0.5886   51.5934 C   0  0  1  0  0  0  0  0  0  0  0  0
   19.6044   -0.0221   51.5413 C   0  0  1  0  0  0  0  0  0  0  0  0
   18.5682    0.8947   52.2552 C   0  0  1  0  0  0  0  0  0  0  0  0
   19.0510    1.0750   53.7523 C   0  0  1  0  0  0  0  0  0  0  0  0
   20.5195    1.6258   53.7484 C   0  0  2  0  0  0  0  0  0  0  0  0
   17.9529    3.4365   54.0901 C   0  0  0  0  0  0  0  0  0  0  0  0
   22.6050   -1.2592   48.6057 N   0  0  0  0  0  0  0  0  0  0  0  0
   18.1181    2.0025   54.5262 N   0  0  0  0  0  0  0  0  0  0  0  0
   20.1791   -2.3646   49.8846 O   0  0  0  0  0  0  0  0  0  0  0  0
   19.2315   -0.2118   50.1326 O   0  0  0  0  0  0  0  0  0  0  0  0
   21.4691    0.7560   52.9938 O   0  0  0  0  0  0  0  0  0  0  0  0
   18.5380    2.1310   51.5401 O   0  0  0  0  0  0  0  0  0  0  0  0
   20.9646    1.7249   55.0519 O   0  0  0  0  0  0  0  0  0  0  0  0
   22.2211    2.4130   55.1736 C   0  0  2  0  0  0  0  0  0  0  0  0
   22.9762    1.9322   56.4362 C   0  0  1  0  0  0  0  0  0  0  0  0
   22.2304    2.3341   57.7456 C   0  0  2  0  0  0  0  0  0  0  0  0
   22.0657    3.8821   57.7898 C   0  0  1  0  0  0  0  0  0  0  0  0
   21.2181    4.2920   56.5144 C   0  0  1  0  0  0  0  0  0  0  0  0
   20.9999    5.8003   56.4339 C   0  0  0  0  0  0  0  0  0  0  0  0
   21.3532    4.2689   59.0409 N   0  0  0  0  0  0  0  0  0  0  0  0
   21.9709    3.8741   55.2791 O   0  0  0  0  0  0  0  0  0  0  0  0
   23.1337    0.5050   56.3219 O   0  0  0  0  0  0  0  0  0  0  0  0
   23.0024    1.9052   58.8476 O   0  0  0  0  0  0  0  0  0  0  0  0
   22.2403    6.4464   56.3202 O   0  0  0  0  0  0  0  0  0  0  0  0
   19.0592   -3.1202   49.4714 C   0  0  1  0  0  0  0  0  0  0  0  0
   19.2720   -3.5288   47.9783 C   0  0  1  0  0  0  0  0  0  0  0  0
   18.0298   -4.3359   47.5001 C   0  0  2  0  0  0  0  0  0  0  0  0
   17.8254   -5.6100   48.3768 C   0  0  1  0  0  0  0  0  0  0  0  0
   17.6210   -5.2079   49.8872 C   0  0  0  0  0  0  0  0  0  0  0  0
   18.8904   -4.3919   50.3719 C   0  0  2  0  0  0  0  0  0  0  0  0
   16.6297   -6.3609   47.9036 N   0  0  0  0  0  0  0  0  0  0  0  0
   18.6920   -4.0219   51.7914 N   0  0  0  0  0  0  0  0  0  0  0  0
   19.4173   -2.3569   47.1546 O   0  0  0  0  0  0  0  0  0  0  0  0
   18.2516   -4.6995   46.1474 O   0  0  0  0  0  0  0  0  0  0  0  0
  1  2  1  0  0  0  0
  1 12  1  1  0  0  0
  1 13  1  0  0  0  0
  2  3  1  0  0  0  0
  2 10  1  6  0  0  0
  4  3  1  1  0  0  0
  4  5  1  0  0  0  0
  4 14  1  0  0  0  0
  5  6  1  0  0  0  0
  5 13  1  6  0  0  0
  6  7  1  0  0  0  0
  6 15  1  6  0  0  0
  7  8  1  0  0  0  0
  7 11  1  1  0  0  0
  8 14  1  0  0  0  0
  8 16  1  1  0  0  0
  9 11  1  0  0  0  0
 17 16  1  1  0  0  0
 17 18  1  0  0  0  0
 17 24  1  0  0  0  0
 18 19  1  0  0  0  0
 18 25  1  6  0  0  0
 19 20  1  0  0  0  0
 19 26  1  1  0  0  0
 20 21  1  0  0  0  0
 20 23  1  1  0  0  0
 21 22  1  6  0  0  0
 21 24  1  0  0  0  0
 22 27  1  0  0  0  0
 28 12  1  1  0  0  0
 28 29  1  0  0  0  0
 28 33  1  0  0  0  0
 29 30  1  0  0  0  0
 29 36  1  6  0  0  0
 30 31  1  0  0  0  0
 30 37  1  6  0  0  0
 31 32  1  0  0  0  0
 31 34  1  6  0  0  0
 32 33  1  0  0  0  0
 33 35  1  1  0  0  0
M  END
>  <CHROM.1>
-159.67216597,-62.01838128,-170.89866110,-153.03739153,61.80719570,74.06038778
20.25932090,0.11246873,52.49946174,2.46267184,1.23103272,3.11647769

>  <Name>
2oe8_lig

>  <RI>
0

>  <Rbt.Current_Directory>
/home/itssahil/PROJECTS/Mol_Feturizer/New_Systems/rnas/2oe8

>  <Rbt.Executable>
rbdock ($Id: //depot/dev/client3/rdock/2013.1/src/exe/rbdock.cxx#4 $)

>  <Rbt.Library>
libRbt.so (2013.1, Build901 2013/11/27)

>  <Rbt.Parameter_File>
/export/apps/rDock/src/rDock_2013.1_src/data/scripts/dock_solv.prm

>  <Rbt.Receptor>
prm/pocket_docking_7.prm

>  <SCORE>
-20.8768

>  <SCORE.INTER>
-16.9708

>  <SCORE.INTER.CONST>
1

>  <SCORE.INTER.POLAR>
-2.03018

>  <SCORE.INTER.ROT>
6

>  <SCORE.INTER.SOLV>
16.5483

>  <SCORE.INTER.VDW>
-17.6627

>  <SCORE.INTER.norm>
-0.458671

>  <SCORE.INTRA>
-3.90599

>  <SCORE.INTRA.DIHEDRAL>
-10.1205

>  <SCORE.INTRA.DIHEDRAL.0>
16.4056

>  <SCORE.INTRA.POLAR>
0

>  <SCORE.INTRA.POLAR.0>
0

>  <SCORE.INTRA.REPUL>
0

>  <SCORE.INTRA.REPUL.0>
0

>  <SCORE.INTRA.SOLV>
-1.53883

>  <SCORE.INTRA.SOLV.lig_0>
-90.9627

>  <SCORE.INTRA.VDW>
1.92369

>  <SCORE.INTRA.VDW.0>
-3.28744

>  <SCORE.INTRA.norm>
-0.105567

>  <SCORE.RESTR>
0

>  <SCORE.RESTR.CAVITY>
0

>  <SCORE.RESTR.norm>
0

>  <SCORE.SYSTEM>
0

>  <SCORE.SYSTEM.CONST>
0

>  <SCORE.SYSTEM.DIHEDRAL>
0

>  <SCORE.SYSTEM.SOLV>
0

>  <SCORE.SYSTEM.norm>
0

>  <SCORE.heavy>
37

>  <SCORE.norm>
-0.564238

>  <RMSD>
10.095

$$$$
2oe8_lig
 OpenBabel11021811463D
libRbt.so/2013.1/901 2013/11/27
 37 40  0  0  0  0  0  0  0  0999 V2000
   19.4694   -2.3249   49.2752 C   0  0  1  0  0  0  0  0  0  0  0  0
   20.5857   -2.9718   50.1801 C   0  0  1  0  0  0  0  0  0  0  0  0
   20.1521   -2.8954   51.6588 C   0  0  0  0  0  0  0  0  0  0  0  0
   19.9704   -1.3787   51.9789 C   0  0  1  0  0  0  0  0  0  0  0  0
   18.8439   -0.6971   51.0450 C   0  0  1  0  0  0  0  0  0  0  0  0
   18.6699    0.8207   51.3448 C   0  0  1  0  0  0  0  0  0  0  0  0
   18.2907    0.9582   52.8759 C   0  0  1  0  0  0  0  0  0  0  0  0
   19.3894    0.2425   53.7364 C   0  0  2  0  0  0  0  0  0  0  0  0
   19.1785    3.4295   52.8445 C   0  0  0  0  0  0  0  0  0  0  0  0
   20.8109   -4.4012   49.7948 N   0  0  0  0  0  0  0  0  0  0  0  0
   18.1438    2.4227   53.2798 N   0  0  0  0  0  0  0  0  0  0  0  0
   18.2248   -3.0269   49.3863 O   0  0  0  0  0  0  0  0  0  0  0  0
   19.2246   -0.8985   49.6400 O   0  0  0  0  0  0  0  0  0  0  0  0
   19.5768   -1.1925   53.3709 O   0  0  0  0  0  0  0  0  0  0  0  0
   19.9106    1.4558   51.0319 O   0  0  0  0  0  0  0  0  0  0  0  0
   19.0288    0.3072   55.0678 O   0  0  0  0  0  0  0  0  0  0  0  0
   20.1458    0.5039   55.9512 C   0  0  2  0  0  0  0  0  0  0  0  0
   19.7009    0.3374   57.4243 C   0  0  1  0  0  0  0  0  0  0  0  0
   18.7097    1.4595   57.8606 C   0  0  2  0  0  0  0  0  0  0  0  0
   19.3883    2.8483   57.6708 C   0  0  1  0  0  0  0  0  0  0  0  0
   19.7425    2.9817   56.1313 C   0  0  1  0  0  0  0  0  0  0  0  0
   20.4332    4.3056   55.8164 C   0  0  0  0  0  0  0  0  0  0  0  0
   18.4427    3.9228   58.0875 N   0  0  0  0  0  0  0  0  0  0  0  0
   20.6896    1.8730   55.7556 O   0  0  0  0  0  0  0  0  0  0  0  0
   19.1190   -0.9744   57.5489 O   0  0  0  0  0  0  0  0  0  0  0  0
   18.3905    1.2672   59.2228 O   0  0  0  0  0  0  0  0  0  0  0  0
   19.5284    5.3613   56.0062 O   0  0  0  0  0  0  0  0  0  0  0  0
   18.1260   -4.1439   48.5271 C   0  0  1  0  0  0  0  0  0  0  0  0
   17.2606   -5.2318   49.2407 C   0  0  1  0  0  0  0  0  0  0  0  0
   17.1696   -6.4817   48.3174 C   0  0  2  0  0  0  0  0  0  0  0  0
   16.5310   -6.1105   46.9434 C   0  0  1  0  0  0  0  0  0  0  0  0
   17.3915   -5.0050   46.2208 C   0  0  0  0  0  0  0  0  0  0  0  0
   17.4765   -3.7321   47.1613 C   0  0  2  0  0  0  0  0  0  0  0  0
   16.4602   -7.3199   46.0773 N   0  0  0  0  0  0  0  0  0  0  0  0
   18.2825   -2.6981   46.4739 N   0  0  0  0  0  0  0  0  0  0  0  0
   17.8665   -5.6128   50.4901 O   0  0  0  0  0  0  0  0  0  0  0  0
   16.3751   -7.4485   48.9845 O   0  0  0  0  0  0  0  0  0  0  0  0
  1  2  1  0  0  0  0
  1 12  1  1  0  0  0
  1 13  1  0  0  0  0
  2  3  1  0  0  0  0
  2 10  1  6  0  0  0
  4  3  1  6  0  0  0
  4  5  1  0  0  0  0
  4 14  1  0  0  0  0
  5  6  1  0  0  0  0
  5 13  1  6  0  0  0
  6  7  1  0  0  0  0
  6 15  1  1  0  0  0
  7  8  1  0  0  0  0
  7 11  1  1  0  0  0
  8 14  1  0  0  0  0
  8 16  1  1  0  0  0
  9 11  1  0  0  0  0
 17 16  1  6  0  0  0
 17 18  1  0  0  0  0
 17 24  1  0  0  0  0
 18 19  1  0  0  0  0
 18 25  1  6  0  0  0
 19 20  1  0  0  0  0
 19 26  1  1  0  0  0
 20 21  1  0  0  0  0
 20 23  1  6  0  0  0
 21 22  1  1  0  0  0
 21 24  1  0  0  0  0
 22 27  1  0  0  0  0
 28 12  1  1  0  0  0
 28 29  1  0  0  0  0
 28 33  1  0  0  0  0
 29 30  1  0  0  0  0
 29 36  1  1  0  0  0
 30 31  1  0  0  0  0
 30 37  1  1  0  0  0
 31 32  1  0  0  0  0
 31 34  1  6  0  0  0
 32 33  1  0  0  0  0
 33 35  1  6  0  0  0
M  END
>  <CHROM.1>
-85.02001288,-45.54300681,-142.65195462,-170.85833865,-67.35032581,147.28652891
18.83474157,-1.05358659,52.27850159,-2.32259245,1.35662647,1.58465177

>  <Name>
2oe8_lig

>  <RI>
0

>  <Rbt.Current_Directory>
/home/itssahil/PROJECTS/Mol_Feturizer/New_Systems/rnas/2oe8

>  <Rbt.Executable>
rbdock ($Id: //depot/dev/client3/rdock/2013.1/src/exe/rbdock.cxx#4 $)

>  <Rbt.Library>
libRbt.so (2013.1, Build901 2013/11/27)

>  <Rbt.Parameter_File>
/export/apps/rDock/src/rDock_2013.1_src/data/scripts/dock_solv.prm

>  <Rbt.Receptor>
prm/pocket_docking_3.prm

>  <SCORE>
-20.1942

>  <SCORE.INTER>
-20.8584

>  <SCORE.INTER.CONST>
1

>  <SCORE.INTER.POLAR>
-2.00855

>  <SCORE.INTER.ROT>
6

>  <SCORE.INTER.SOLV>
15.4868

>  <SCORE.INTER.VDW>
-19.9727

>  <SCORE.INTER.norm>
-0.56374

>  <SCORE.INTRA>
0.370821

>  <SCORE.INTRA.DIHEDRAL>
-3.91553

>  <SCORE.INTRA.DIHEDRAL.0>
16.4056

>  <SCORE.INTRA.POLAR>
0

>  <SCORE.INTRA.POLAR.0>
0

>  <SCORE.INTRA.REPUL>
0

>  <SCORE.INTRA.REPUL.0>
0

>  <SCORE.INTRA.SOLV>
2.04364

>  <SCORE.INTRA.SOLV.lig_0>
-90.9627

>  <SCORE.INTRA.VDW>
1.30677

>  <SCORE.INTRA.VDW.0>
-3.28744

>  <SCORE.INTRA.norm>
0.0100222

>  <SCORE.RESTR>
0.293317

>  <SCORE.RESTR.CAVITY>
0.293317

>  <SCORE.RESTR.norm>
0.00792749

>  <SCORE.SYSTEM>
0

>  <SCORE.SYSTEM.CONST>
0

>  <SCORE.SYSTEM.DIHEDRAL>
0

>  <SCORE.SYSTEM.SOLV>
0

>  <SCORE.SYSTEM.norm>
0

>  <SCORE.heavy>
37

>  <SCORE.norm>
-0.54579

>  <RMSD>
10.104

$$$$
2oe8_lig
 OpenBabel11021811463D
libRbt.so/2013.1/901 2013/11/27
 37 40  0  0  0  0  0  0  0  0999 V2000
   19.1514   -4.7774   47.9718 C   0  0  1  0  0  0  0  0  0  0  0  0
   18.7573   -5.5452   49.2904 C   0  0  1  0  0  0  0  0  0  0  0  0
   18.1918   -4.5411   50.3164 C   0  0  0  0  0  0  0  0  0  0  0  0
   19.3293   -3.5056   50.5809 C   0  0  1  0  0  0  0  0  0  0  0  0
   19.7582   -2.7253   49.2344 C   0  0  1  0  0  0  0  0  0  0  0  0
   20.9059   -1.7039   49.4860 C   0  0  1  0  0  0  0  0  0  0  0  0
   20.3986   -0.6871   50.5886 C   0  0  1  0  0  0  0  0  0  0  0  0
   19.9519   -1.4955   51.8562 C   0  0  2  0  0  0  0  0  0  0  0  0
   21.7413    1.4963   50.0172 C   0  0  0  0  0  0  0  0  0  0  0  0
   17.7329   -6.5977   48.9989 N   0  0  0  0  0  0  0  0  0  0  0  0
   21.4788    0.3324   50.9394 N   0  0  0  0  0  0  0  0  0  0  0  0
   18.0150   -4.1495   47.3648 O   0  0  0  0  0  0  0  0  0  0  0  0
   20.1718   -3.7206   48.2354 O   0  0  0  0  0  0  0  0  0  0  0  0
   18.9014   -2.5140   51.5611 O   0  0  0  0  0  0  0  0  0  0  0  0
   22.0456   -2.4500   49.9162 O   0  0  0  0  0  0  0  0  0  0  0  0
   19.4511   -0.6158   52.7955 O   0  0  0  0  0  0  0  0  0  0  0  0
   20.4610    0.2150   53.3928 C   0  0  2  0  0  0  0  0  0  0  0  0
   20.9694   -0.4208   54.7092 C   0  0  1  0  0  0  0  0  0  0  0  0
   19.8575   -0.4580   55.8020 C   0  0  2  0  0  0  0  0  0  0  0  0
   19.3577    0.9910   56.0774 C   0  0  1  0  0  0  0  0  0  0  0  0
   18.7801    1.5471   54.7099 C   0  0  1  0  0  0  0  0  0  0  0  0
   18.2687    2.9786   54.8455 C   0  0  0  0  0  0  0  0  0  0  0  0
   18.2947    0.9581   57.1222 N   0  0  0  0  0  0  0  0  0  0  0  0
   19.8841    1.5528   53.6859 O   0  0  0  0  0  0  0  0  0  0  0  0
   21.4537   -1.7387   54.3875 O   0  0  0  0  0  0  0  0  0  0  0  0
   20.4101   -1.0039   56.9814 O   0  0  0  0  0  0  0  0  0  0  0  0
   19.3326    3.8234   55.1970 O   0  0  0  0  0  0  0  0  0  0  0  0
   18.0428   -4.1719   45.9526 C   0  0  1  0  0  0  0  0  0  0  0  0
   19.4609   -3.7099   45.4864 C   0  0  1  0  0  0  0  0  0  0  0  0
   19.4956   -3.6995   43.9302 C   0  0  2  0  0  0  0  0  0  0  0  0
   19.1832   -5.1173   43.3593 C   0  0  1  0  0  0  0  0  0  0  0  0
   17.7585   -5.5966   43.8338 C   0  0  0  0  0  0  0  0  0  0  0  0
   17.7293   -5.6117   45.4184 C   0  0  2  0  0  0  0  0  0  0  0  0
   19.2170   -5.0800   41.8709 N   0  0  0  0  0  0  0  0  0  0  0  0
   16.3900   -6.0663   45.8552 N   0  0  0  0  0  0  0  0  0  0  0  0
   19.7398   -2.3835   45.9721 O   0  0  0  0  0  0  0  0  0  0  0  0
   20.7926   -3.2844   43.5348 O   0  0  0  0  0  0  0  0  0  0  0  0
  1  2  1  0  0  0  0
  1 12  1  1  0  0  0
  1 13  1  0  0  0  0
  2  3  1  0  0  0  0
  2 10  1  6  0  0  0
  4  3  1  6  0  0  0
  4  5  1  0  0  0  0
  4 14  1  0  0  0  0
  5  6  1  0  0  0  0
  5 13  1  6  0  0  0
  6  7  1  0  0  0  0
  6 15  1  1  0  0  0
  7  8  1  0  0  0  0
  7 11  1  1  0  0  0
  8 14  1  0  0  0  0
  8 16  1  1  0  0  0
  9 11  1  0  0  0  0
 17 16  1  1  0  0  0
 17 18  1  0  0  0  0
 17 24  1  0  0  0  0
 18 19  1  0  0  0  0
 18 25  1  6  0  0  0
 19 20  1  0  0  0  0
 19 26  1  1  0  0  0
 20 21  1  0  0  0  0
 20 23  1  1  0  0  0
 21 22  1  1  0  0  0
 21 24  1  0  0  0  0
 22 27  1  0  0  0  0
 28 12  1  1  0  0  0
 28 29  1  0  0  0  0
 28 33  1  0  0  0  0
 29 30  1  0  0  0  0
 29 36  1  6  0  0  0
 30 31  1  0  0  0  0
 30 37  1  1  0  0  0
 31 32  1  0  0  0  0
 31 34  1  6  0  0  0
 32 33  1  0  0  0  0
 33 35  1  6  0  0  0
M  END
>  <CHROM.1>
-143.63818158,78.10692614,-70.44833948,-94.01720990,62.34699368,-47.46361629
19.50865520,-2.10553512,50.07477680,1.76008855,-1.10489180,-1.91323585

>  <Name>
2oe8_lig

>  <RI>
0

>  <Rbt.Current_Directory>
/home/itssahil/PROJECTS/Mol_Feturizer/New_Systems/rnas/2oe8

>  <Rbt.Executable>
rbdock ($Id: //depot/dev/client3/rdock/2013.1/src/exe/rbdock.cxx#4 $)

>  <Rbt.Library>
libRbt.so (2013.1, Build901 2013/11/27)

>  <Rbt.Parameter_File>
/export/apps/rDock/src/rDock_2013.1_src/data/scripts/dock_solv.prm

>  <Rbt.Receptor>
prm/pocket_docking_7.prm

>  <SCORE>
-15.1058

>  <SCORE.INTER>
-15.9019

>  <SCORE.INTER.CONST>
1

>  <SCORE.INTER.POLAR>
-1.49782

>  <SCORE.INTER.ROT>
6

>  <SCORE.INTER.SOLV>
15.8898

>  <SCORE.INTER.VDW>
-18.5051

>  <SCORE.INTER.norm>
-0.429782

>  <SCORE.INTRA>
0.796173

>  <SCORE.INTRA.DIHEDRAL>
-5.70593

>  <SCORE.INTRA.DIHEDRAL.0>
16.4056

>  <SCORE.INTRA.POLAR>
0

>  <SCORE.INTRA.POLAR.0>
0

>  <SCORE.INTRA.REPUL>
0

>  <SCORE.INTRA.REPUL.0>
0

>  <SCORE.INTRA.SOLV>
1.0502

>  <SCORE.INTRA.SOLV.lig_0>
-90.9627

>  <SCORE.INTRA.VDW>
3.12404

>  <SCORE.INTRA.VDW.0>
-3.28744

>  <SCORE.INTRA.norm>
0.0215182

>  <SCORE.RESTR>
0

>  <SCORE.RESTR.CAVITY>
0

>  <SCORE.RESTR.norm>
0

>  <SCORE.SYSTEM>
0

>  <SCORE.SYSTEM.CONST>
0

>  <SCORE.SYSTEM.DIHEDRAL>
0

>  <SCORE.SYSTEM.SOLV>
0

>  <SCORE.SYSTEM.norm>
0

>  <SCORE.heavy>
37

>  <SCORE.norm>
-0.408264

>  <RMSD>
10.104

$$$$
2oe8_lig
 OpenBabel11021811463D
libRbt.so/2013.1/901 2013/11/27
 37 40  0  0  0  0  0  0  0  0999 V2000
   19.4752   -2.3654   49.2495 C   0  0  1  0  0  0  0  0  0  0  0  0
   20.5333   -3.0395   50.2032 C   0  0  1  0  0  0  0  0  0  0  0  0
   20.0456   -2.9332   51.6632 C   0  0  0  0  0  0  0  0  0  0  0  0
   19.9027   -1.4080   51.9619 C   0  0  1  0  0  0  0  0  0  0  0  0
   18.8367   -0.6992   50.9784 C   0  0  1  0  0  0  0  0  0  0  0  0
   18.7023    0.8266   51.2573 C   0  0  1  0  0  0  0  0  0  0  0  0
   18.2690    0.9927   52.7710 C   0  0  1  0  0  0  0  0  0  0  0  0
   19.3089    0.2500   53.6803 C   0  0  2  0  0  0  0  0  0  0  0  0
   19.2576    3.4256   52.7840 C   0  0  0  0  0  0  0  0  0  0  0  0
   20.7251   -4.4795   49.8402 N   0  0  0  0  0  0  0  0  0  0  0  0
   18.1558    2.4654   53.1554 N   0  0  0  0  0  0  0  0  0  0  0  0
   18.2044   -3.0245   49.3185 O   0  0  0  0  0  0  0  0  0  0  0  0
   19.2646   -0.9279   49.5913 O   0  0  0  0  0  0  0  0  0  0  0  0
   19.4620   -1.1942   53.3357 O   0  0  0  0  0  0  0  0  0  0  0  0
   19.9749    1.4168   50.9872 O   0  0  0  0  0  0  0  0  0  0  0  0
   18.8994    0.3406   54.9960 O   0  0  0  0  0  0  0  0  0  0  0  0
   19.9411    0.7717   55.8881 C   0  0  2  0  0  0  0  0  0  0  0  0
   19.5652    0.4399   57.3524 C   0  0  1  0  0  0  0  0  0  0  0  0
   18.3311    1.2625   57.8344 C   0  0  2  0  0  0  0  0  0  0  0  0
   18.6428    2.7827   57.7038 C   0  0  1  0  0  0  0  0  0  0  0  0
   18.9383    3.0627   56.1717 C   0  0  1  0  0  0  0  0  0  0  0  0
   19.2766    4.5282   55.9135 C   0  0  0  0  0  0  0  0  0  0  0  0
   17.4644    3.5714   58.1643 N   0  0  0  0  0  0  0  0  0  0  0  0
   20.1270    2.2397   55.7507 O   0  0  0  0  0  0  0  0  0  0  0  0
   19.3276   -0.9791   57.4211 O   0  0  0  0  0  0  0  0  0  0  0  0
   18.0823    0.9414   59.1870 O   0  0  0  0  0  0  0  0  0  0  0  0
   20.5053    4.8374   56.5166 O   0  0  0  0  0  0  0  0  0  0  0  0
   18.1019   -4.1474   48.4673 C   0  0  1  0  0  0  0  0  0  0  0  0
   17.2378   -5.2294   49.1913 C   0  0  1  0  0  0  0  0  0  0  0  0
   17.1428   -6.4857   48.2771 C   0  0  2  0  0  0  0  0  0  0  0  0
   16.5004   -6.1236   46.9024 C   0  0  1  0  0  0  0  0  0  0  0  0
   17.3597   -5.0240   46.1694 C   0  0  0  0  0  0  0  0  0  0  0  0
   17.4486   -3.7445   47.1007 C   0  0  2  0  0  0  0  0  0  0  0  0
   16.4258   -7.3390   46.0451 N   0  0  0  0  0  0  0  0  0  0  0  0
   18.2535   -2.7162   46.4036 N   0  0  0  0  0  0  0  0  0  0  0  0
   17.8471   -5.6022   50.4414 O   0  0  0  0  0  0  0  0  0  0  0  0
   16.3494   -7.4470   48.9533 O   0  0  0  0  0  0  0  0  0  0  0  0
  1  2  1  0  0  0  0
  1 12  1  1  0  0  0
  1 13  1  0  0  0  0
  2  3  1  0  0  0  0
  2 10  1  6  0  0  0
  4  3  1  6  0  0  0
  4  5  1  0  0  0  0
  4 14  1  0  0  0  0
  5  6  1  0  0  0  0
  5 13  1  6  0  0  0
  6  7  1  0  0  0  0
  6 15  1  1  0  0  0
  7  8  1  0  0  0  0
  7 11  1  1  0  0  0
  8 14  1  0  0  0  0
  8 16  1  1  0  0  0
  9 11  1  0  0  0  0
 17 16  1  6  0  0  0
 17 18  1  0  0  0  0
 17 24  1  0  0  0  0
 18 19  1  0  0  0  0
 18 25  1  6  0  0  0
 19 20  1  0  0  0  0
 19 26  1  1  0  0  0
 20 21  1  0  0  0  0
 20 23  1  6  0  0  0
 21 22  1  1  0  0  0
 21 24  1  0  0  0  0
 22 27  1  0  0  0  0
 28 12  1  1  0  0  0
 28 29  1  0  0  0  0
 28 33  1  0  0  0  0
 29 30  1  0  0  0  0
 29 36  1  1  0  0  0
 30 31  1  0  0  0  0
 30 37  1  1  0  0  0
 31 32  1  0  0  0  0
 31 34  1  6  0  0  0
 32 33  1  0  0  0  0
 33 35  1  6  0  0  0
M  END
>  <CHROM.1>
-84.95677313,-47.19315863,-130.98636247,-162.63552907,67.26195295,144.21701921
18.71158065,-1.07448193,52.25840609,-2.09259618,1.32338330,1.36055457

>  <Name>
2oe8_lig

>  <RI>
0

>  <Rbt.Current_Directory>
/home/itssahil/PROJECTS/Mol_Feturizer/New_Systems/rnas/2oe8

>  <Rbt.Executable>
rbdock ($Id: //depot/dev/client3/rdock/2013.1/src/exe/rbdock.cxx#4 $)

>  <Rbt.Library>
libRbt.so (2013.1, Build901 2013/11/27)

>  <Rbt.Parameter_File>
/export/apps/rDock/src/rDock_2013.1_src/data/scripts/dock_solv.prm

>  <Rbt.Receptor>
prm/pocket_docking_3.prm

>  <SCORE>
-19.8156

>  <SCORE.INTER>
-21.6605

>  <SCORE.INTER.CONST>
1

>  <SCORE.INTER.POLAR>
-1.98031

>  <SCORE.INTER.ROT>
6

>  <SCORE.INTER.SOLV>
15.6982

>  <SCORE.INTER.VDW>
-20.672

>  <SCORE.INTER.norm>
-0.585418

>  <SCORE.INTRA>
1.59427

>  <SCORE.INTRA.DIHEDRAL>
-0.76949

>  <SCORE.INTRA.DIHEDRAL.0>
16.4056

>  <SCORE.INTRA.POLAR>
0

>  <SCORE.INTRA.POLAR.0>
0

>  <SCORE.INTRA.REPUL>
0

>  <SCORE.INTRA.REPUL.0>
0

>  <SCORE.INTRA.SOLV>
1.85919

>  <SCORE.INTRA.SOLV.lig_0>
-90.9627

>  <SCORE.INTRA.VDW>
1.04942

>  <SCORE.INTRA.VDW.0>
-3.28744

>  <SCORE.INTRA.norm>
0.0430883

>  <SCORE.RESTR>
0.250591

>  <SCORE.RESTR.CAVITY>
0.250591

>  <SCORE.RESTR.norm>
0.00677274

>  <SCORE.SYSTEM>
0

>  <SCORE.SYSTEM.CONST>
0

>  <SCORE.SYSTEM.DIHEDRAL>
0

>  <SCORE.SYSTEM.SOLV>
0

>  <SCORE.SYSTEM.norm>
0

>  <SCORE.heavy>
37

>  <SCORE.norm>
-0.535557

>  <RMSD>
10.126

$$$$
2oe8_lig
 OpenBabel11021811463D
libRbt.so/2013.1/901 2013/11/27
 37 40  0  0  0  0  0  0  0  0999 V2000
   22.3370   -2.0363   50.5473 C   0  0  1  0  0  0  0  0  0  0  0  0
   23.3076   -2.6371   51.6337 C   0  0  1  0  0  0  0  0  0  0  0  0
   22.5755   -2.7064   52.9901 C   0  0  0  0  0  0  0  0  0  0  0  0
   22.1711   -1.2399   53.3392 C   0  0  1  0  0  0  0  0  0  0  0  0
   21.1927   -0.6035   52.2239 C   0  0  1  0  0  0  0  0  0  0  0  0
   20.7998    0.8661   52.5549 C   0  0  1  0  0  0  0  0  0  0  0  0
   20.1034    0.8590   53.9768 C   0  0  1  0  0  0  0  0  0  0  0  0
   21.0733    0.1913   55.0128 C   0  0  2  0  0  0  0  0  0  0  0  0
   18.4892    2.9260   53.8408 C   0  0  0  0  0  0  0  0  0  0  0  0
   23.7583   -4.0081   51.2344 N   0  0  0  0  0  0  0  0  0  0  0  0
   19.7212    2.2709   54.4124 N   0  0  0  0  0  0  0  0  0  0  0  0
   21.1784   -2.8587   50.3593 O   0  0  0  0  0  0  0  0  0  0  0  0
   21.8717   -0.6686   50.9222 O   0  0  0  0  0  0  0  0  0  0  0  0
   21.4838   -1.1902   54.6246 O   0  0  0  0  0  0  0  0  0  0  0  0
   22.0031    1.6360   52.5417 O   0  0  0  0  0  0  0  0  0  0  0  0
   20.4435    0.1277   56.2401 O   0  0  0  0  0  0  0  0  0  0  0  0
   21.3227   -0.2530   57.3120 C   0  0  2  0  0  0  0  0  0  0  0  0
   20.5791   -0.1803   58.6676 C   0  0  1  0  0  0  0  0  0  0  0  0
   20.1916    1.2841   59.0381 C   0  0  2  0  0  0  0  0  0  0  0  0
   21.4792    2.1580   59.0979 C   0  0  1  0  0  0  0  0  0  0  0  0
   22.1420    2.1014   57.6589 C   0  0  1  0  0  0  0  0  0  0  0  0
   23.4326    2.9130   57.5919 C   0  0  0  0  0  0  0  0  0  0  0  0
   21.1113    3.5586   59.4522 N   0  0  0  0  0  0  0  0  0  0  0  0
   22.4868    0.6703   57.3418 O   0  0  0  0  0  0  0  0  0  0  0  0
   19.4239   -1.0349   58.5672 O   0  0  0  0  0  0  0  0  0  0  0  0
   19.5642    1.2725   60.3032 O   0  0  0  0  0  0  0  0  0  0  0  0
   23.8223    3.0611   56.2520 O   0  0  0  0  0  0  0  0  0  0  0  0
   20.4969   -2.6086   49.1474 C   0  0  1  0  0  0  0  0  0  0  0  0
   21.4603   -2.9552   47.9669 C   0  0  1  0  0  0  0  0  0  0  0  0
   20.7326   -2.6541   46.6242 C   0  0  2  0  0  0  0  0  0  0  0  0
   19.4215   -3.4909   46.5046 C   0  0  1  0  0  0  0  0  0  0  0  0
   18.4477   -3.1560   47.6980 C   0  0  0  0  0  0  0  0  0  0  0  0
   19.1901   -3.4698   49.0628 C   0  0  2  0  0  0  0  0  0  0  0  0
   18.7419   -3.1816   45.2161 N   0  0  0  0  0  0  0  0  0  0  0  0
   18.2677   -3.1563   50.1773 N   0  0  0  0  0  0  0  0  0  0  0  0
   22.6548   -2.1549   48.0445 O   0  0  0  0  0  0  0  0  0  0  0  0
   21.6245   -2.9832   45.5720 O   0  0  0  0  0  0  0  0  0  0  0  0
  1  2  1  0  0  0  0
  1 12  1  1  0  0  0
  1 13  1  0  0  0  0
  2  3  1  0  0  0  0
  2 10  1  6  0  0  0
  4  3  1  6  0  0  0
  4  5  1  0  0  0  0
  4 14  1  0  0  0  0
  5  6  1  0  0  0  0
  5 13  1  6  0  0  0
  6  7  1  0  0  0  0
  6 15  1  1  0  0  0
  7  8  1  0  0  0  0
  7 11  1  1  0  0  0
  8 14  1  0  0  0  0
  8 16  1  1  0  0  0
  9 11  1  0  0  0  0
 17 16  1  6  0  0  0
 17 18  1  0  0  0  0
 17 24  1  0  0  0  0
 18 19  1  0  0  0  0
 18 25  1  6  0  0  0
 19 20  1  0  0  0  0
 19 26  1  1  0  0  0
 20 21  1  0  0  0  0
 20 23  1  6  0  0  0
 21 22  1  1  0  0  0
 21 24  1  0  0  0  0
 22 27  1  0  0  0  0
 28 12  1  1  0  0  0
 28 29  1  0  0  0  0
 28 33  1  0  0  0  0
 29 30  1  0  0  0  0
 29 36  1  1  0  0  0
 30 31  1  0  0  0  0
 30 37  1  6  0  0  0
 31 32  1  0  0  0  0
 31 34  1  6  0  0  0
 32 33  1  0  0  0  0
 33 35  1  1  0  0  0
M  END
>  <CHROM.1>
-161.62641400,78.32839846,-169.82386027,174.97827782,-167.73369906,62.87451047
21.07054485,-0.60552628,53.10579117,-1.61854722,0.04381161,1.15959820

>  <Name>
2oe8_lig

>  <RI>
0

>  <Rbt.Current_Directory>
/home/itssahil/PROJECTS/Mol_Feturizer/New_Systems/rnas/2oe8

>  <Rbt.Executable>
rbdock ($Id: //depot/dev/client3/rdock/2013.1/src/exe/rbdock.cxx#4 $)

>  <Rbt.Library>
libRbt.so (2013.1, Build901 2013/11/27)

>  <Rbt.Parameter_File>
/export/apps/rDock/src/rDock_2013.1_src/data/scripts/dock_solv.prm

>  <Rbt.Receptor>
prm/pocket_docking_7.prm

>  <SCORE>
-17.4776

>  <SCORE.INTER>
-12.268

>  <SCORE.INTER.CONST>
1

>  <SCORE.INTER.POLAR>
-1.21119

>  <SCORE.INTER.ROT>
6

>  <SCORE.INTER.SOLV>
13.6062

>  <SCORE.INTER.VDW>
-16.2768

>  <SCORE.INTER.norm>
-0.331568

>  <SCORE.INTRA>
-5.2096

>  <SCORE.INTRA.DIHEDRAL>
-13.3659

>  <SCORE.INTRA.DIHEDRAL.0>
16.4056

>  <SCORE.INTRA.POLAR>
0

>  <SCORE.INTRA.POLAR.0>
0

>  <SCORE.INTRA.REPUL>
0.000523609

>  <SCORE.INTRA.REPUL.0>
0

>  <SCORE.INTRA.SOLV>
-2.70889

>  <SCORE.INTRA.SOLV.lig_0>
-90.9627

>  <SCORE.INTRA.VDW>
2.8252

>  <SCORE.INTRA.VDW.0>
-3.28744

>  <SCORE.INTRA.norm>
-0.1408

>  <SCORE.RESTR>
0

>  <SCORE.RESTR.CAVITY>
0

>  <SCORE.RESTR.norm>
0

>  <SCORE.SYSTEM>
0

>  <SCORE.SYSTEM.CONST>
0

>  <SCORE.SYSTEM.DIHEDRAL>
0

>  <SCORE.SYSTEM.SOLV>
0

>  <SCORE.SYSTEM.norm>
0

>  <SCORE.heavy>
37

>  <SCORE.norm>
-0.472368

>  <RMSD>
10.127

$$$$
2oe8_lig
 OpenBabel11021811463D
libRbt.so/2013.1/901 2013/11/27
 37 40  0  0  0  0  0  0  0  0999 V2000
   18.9323   -4.0758   48.5522 C   0  0  1  0  0  0  0  0  0  0  0  0
   19.3308   -5.0285   49.7425 C   0  0  1  0  0  0  0  0  0  0  0  0
   18.8478   -4.4133   51.0725 C   0  0  0  0  0  0  0  0  0  0  0  0
   19.5576   -3.0285   51.1920 C   0  0  1  0  0  0  0  0  0  0  0  0
   19.1750   -2.0483   49.9677 C   0  0  1  0  0  0  0  0  0  0  0  0
   19.8940   -0.6711   50.0691 C   0  0  1  0  0  0  0  0  0  0  0  0
   19.4840   -0.0264   51.4559 C   0  0  1  0  0  0  0  0  0  0  0  0
   19.8334   -1.0338   52.6061 C   0  0  2  0  0  0  0  0  0  0  0  0
   19.4018    2.4882   52.2084 C   0  0  0  0  0  0  0  0  0  0  0  0
   18.7152   -6.3814   49.5609 N   0  0  0  0  0  0  0  0  0  0  0  0
   20.1805    1.3147   51.6695 N   0  0  0  0  0  0  0  0  0  0  0  0
   17.5112   -3.9187   48.4525 O   0  0  0  0  0  0  0  0  0  0  0  0
   19.5329   -2.7186   48.7098 O   0  0  0  0  0  0  0  0  0  0  0  0
   19.1820   -2.3659   52.4358 O   0  0  0  0  0  0  0  0  0  0  0  0
   21.2974   -0.9222   49.9789 O   0  0  0  0  0  0  0  0  0  0  0  0
   19.4199   -0.4999   53.8107 O   0  0  0  0  0  0  0  0  0  0  0  0
   20.3696    0.4146   54.3840 C   0  0  2  0  0  0  0  0  0  0  0  0
   21.2084   -0.2959   55.4736 C   0  0  1  0  0  0  0  0  0  0  0  0
   20.3366   -0.7071   56.6996 C   0  0  2  0  0  0  0  0  0  0  0  0
   19.6619    0.5614   57.3002 C   0  0  1  0  0  0  0  0  0  0  0  0
   18.7600    1.1887   56.1572 C   0  0  1  0  0  0  0  0  0  0  0  0
   18.0515    2.4585   56.6206 C   0  0  0  0  0  0  0  0  0  0  0  0
   18.8280    0.1709   58.4727 N   0  0  0  0  0  0  0  0  0  0  0  0
   19.6419    1.5578   54.9938 O   0  0  0  0  0  0  0  0  0  0  0  0
   21.8378   -1.4337   54.8537 O   0  0  0  0  0  0  0  0  0  0  0  0
   21.1781   -1.3019   57.6653 O   0  0  0  0  0  0  0  0  0  0  0  0
   17.1104    2.1340   57.6096 O   0  0  0  0  0  0  0  0  0  0  0  0
   17.0176   -4.0531   47.1356 C   0  0  1  0  0  0  0  0  0  0  0  0
   17.7585   -3.0173   46.2301 C   0  0  1  0  0  0  0  0  0  0  0  0
   17.2014   -3.1328   44.7813 C   0  0  2  0  0  0  0  0  0  0  0  0
   17.4085   -4.5738   44.2209 C   0  0  1  0  0  0  0  0  0  0  0  0
   16.6736   -5.6272   45.1347 C   0  0  0  0  0  0  0  0  0  0  0  0
   17.2481   -5.5106   46.6074 C   0  0  2  0  0  0  0  0  0  0  0  0
   16.8632   -4.6601   42.8378 N   0  0  0  0  0  0  0  0  0  0  0  0
   16.5557   -6.5053   47.4574 N   0  0  0  0  0  0  0  0  0  0  0  0
   17.5359   -1.6798   46.7146 O   0  0  0  0  0  0  0  0  0  0  0  0
   17.8940   -2.1891   43.9809 O   0  0  0  0  0  0  0  0  0  0  0  0
  1  2  1  0  0  0  0
  1 12  1  1  0  0  0
  1 13  1  0  0  0  0
  2  3  1  0  0  0  0
  2 10  1  6  0  0  0
  4  3  1  6  0  0  0
  4  5  1  0  0  0  0
  4 14  1  0  0  0  0
  5  6  1  0  0  0  0
  5 13  1  6  0  0  0
  6  7  1  0  0  0  0
  6 15  1  1  0  0  0
  7  8  1  0  0  0  0
  7 11  1  1  0  0  0
  8 14  1  0  0  0  0
  8 16  1  1  0  0  0
  9 11  1  0  0  0  0
 17 16  1  1  0  0  0
 17 18  1  0  0  0  0
 17 24  1  0  0  0  0
 18 19  1  0  0  0  0
 18 25  1  6  0  0  0
 19 20  1  0  0  0  0
 19 26  1  1  0  0  0
 20 21  1  0  0  0  0
 20 23  1  1  0  0  0
 21 22  1  1  0  0  0
 21 24  1  0  0  0  0
 22 27  1  0  0  0  0
 28 12  1  1  0  0  0
 28 29  1  0  0  0  0
 28 33  1  0  0  0  0
 29 30  1  0  0  0  0
 29 36  1  1  0  0  0
 30 31  1  0  0  0  0
 30 37  1  6  0  0  0
 31 32  1  0  0  0  0
 31 34  1  6  0  0  0
 32 33  1  0  0  0  0
 33 35  1  1  0  0  0
M  END
>  <CHROM.1>
-133.57471570,136.18253064,-83.55537238,-99.15518917,-66.92032442,-56.38124667
18.91710074,-1.83704934,51.03694583,-2.67881410,-1.36754072,0.02954296

>  <Name>
2oe8_lig

>  <RI>
0

>  <Rbt.Current_Directory>
/home/itssahil/PROJECTS/Mol_Feturizer/New_Systems/rnas/2oe8

>  <Rbt.Executable>
rbdock ($Id: //depot/dev/client3/rdock/2013.1/src/exe/rbdock.cxx#4 $)

>  <Rbt.Library>
libRbt.so (2013.1, Build901 2013/11/27)

>  <Rbt.Parameter_File>
/export/apps/rDock/src/rDock_2013.1_src/data/scripts/dock_solv.prm

>  <Rbt.Receptor>
prm/pocket_docking_5.prm

>  <SCORE>
-21.8955

>  <SCORE.INTER>
-24.1714

>  <SCORE.INTER.CONST>
1

>  <SCORE.INTER.POLAR>
-3.10451

>  <SCORE.INTER.ROT>
6

>  <SCORE.INTER.SOLV>
16.6885

>  <SCORE.INTER.VDW>
-18.9287

>  <SCORE.INTER.norm>
-0.65328

>  <SCORE.INTRA>
2.27591

>  <SCORE.INTRA.DIHEDRAL>
-1.17955

>  <SCORE.INTRA.DIHEDRAL.0>
16.4056

>  <SCORE.INTRA.POLAR>
0

>  <SCORE.INTRA.POLAR.0>
0

>  <SCORE.INTRA.REPUL>
0

>  <SCORE.INTRA.REPUL.0>
0

>  <SCORE.INTRA.SOLV>
2.07543

>  <SCORE.INTRA.SOLV.lig_0>
-90.9627

>  <SCORE.INTRA.VDW>
1.82796

>  <SCORE.INTRA.VDW.0>
-3.28744

>  <SCORE.INTRA.norm>
0.061511

>  <SCORE.RESTR>
0

>  <SCORE.RESTR.CAVITY>
0

>  <SCORE.RESTR.norm>
0

>  <SCORE.SYSTEM>
0

>  <SCORE.SYSTEM.CONST>
0

>  <SCORE.SYSTEM.DIHEDRAL>
0

>  <SCORE.SYSTEM.SOLV>
0

>  <SCORE.SYSTEM.norm>
0

>  <SCORE.heavy>
37

>  <SCORE.norm>
-0.591769

>  <RMSD>
10.138

$$$$
2oe8_lig
 OpenBabel11021811463D
libRbt.so/2013.1/901 2013/11/27
 37 40  0  0  0  0  0  0  0  0999 V2000
   18.8665   -4.5578   47.5559 C   0  0  1  0  0  0  0  0  0  0  0  0
   18.6668   -5.4913   48.8098 C   0  0  1  0  0  0  0  0  0  0  0  0
   18.1736   -4.6458   50.0025 C   0  0  0  0  0  0  0  0  0  0  0  0
   19.2801   -3.5761   50.2617 C   0  0  1  0  0  0  0  0  0  0  0  0
   19.5105   -2.6249   48.9779 C   0  0  1  0  0  0  0  0  0  0  0  0
   20.6265   -1.5669   49.2217 C   0  0  1  0  0  0  0  0  0  0  0  0
   20.1992   -0.7138   50.4852 C   0  0  1  0  0  0  0  0  0  0  0  0
   19.9435   -1.6852   51.6897 C   0  0  2  0  0  0  0  0  0  0  0  0
   21.4668    1.5192   49.9343 C   0  0  0  0  0  0  0  0  0  0  0  0
   17.6701   -6.5677   48.5095 N   0  0  0  0  0  0  0  0  0  0  0  0
   21.2597    0.3269   50.8340 N   0  0  0  0  0  0  0  0  0  0  0  0
   17.6373   -3.9397   47.1547 O   0  0  0  0  0  0  0  0  0  0  0  0
   19.8558   -3.4743   47.8295 O   0  0  0  0  0  0  0  0  0  0  0  0
   18.9188   -2.7291   51.3928 O   0  0  0  0  0  0  0  0  0  0  0  0
   21.8446   -2.2824   49.4342 O   0  0  0  0  0  0  0  0  0  0  0  0
   19.5107   -0.9493   52.7751 O   0  0  0  0  0  0  0  0  0  0  0  0
   20.5323   -0.1075   53.3360 C   0  0  2  0  0  0  0  0  0  0  0  0
   20.9760   -0.6491   54.7163 C   0  0  1  0  0  0  0  0  0  0  0  0
   19.8306   -0.5567   55.7706 C   0  0  2  0  0  0  0  0  0  0  0  0
   19.3773    0.9267   55.9096 C   0  0  1  0  0  0  0  0  0  0  0  0
   18.8630    1.3872   54.4824 C   0  0  1  0  0  0  0  0  0  0  0  0
   18.4019    2.8419   54.4832 C   0  0  0  0  0  0  0  0  0  0  0  0
   18.2823    1.0177   56.9172 N   0  0  0  0  0  0  0  0  0  0  0  0
   19.9973    1.2693   53.4990 O   0  0  0  0  0  0  0  0  0  0  0  0
   21.4201   -2.0053   54.5201 O   0  0  0  0  0  0  0  0  0  0  0  0
   20.3259   -1.0218   57.0086 O   0  0  0  0  0  0  0  0  0  0  0  0
   18.0605    3.2245   53.1770 O   0  0  0  0  0  0  0  0  0  0  0  0
   17.3684   -4.0582   45.7728 C   0  0  1  0  0  0  0  0  0  0  0  0
   15.8269   -3.9130   45.5628 C   0  0  1  0  0  0  0  0  0  0  0  0
   15.5127   -4.0732   44.0467 C   0  0  2  0  0  0  0  0  0  0  0  0
   16.2680   -2.9969   43.2073 C   0  0  1  0  0  0  0  0  0  0  0  0
   17.8241   -3.1286   43.4217 C   0  0  0  0  0  0  0  0  0  0  0  0
   18.1404   -2.9587   44.9655 C   0  0  2  0  0  0  0  0  0  0  0  0
   15.9559   -3.1744   41.7620 N   0  0  0  0  0  0  0  0  0  0  0  0
   19.6032   -3.0798   45.1573 N   0  0  0  0  0  0  0  0  0  0  0  0
   15.1235   -4.9309   46.2992 O   0  0  0  0  0  0  0  0  0  0  0  0
   14.1113   -3.9305   43.8835 O   0  0  0  0  0  0  0  0  0  0  0  0
  1  2  1  0  0  0  0
  1 12  1  1  0  0  0
  1 13  1  0  0  0  0
  2  3  1  0  0  0  0
  2 10  1  6  0  0  0
  4  3  1  6  0  0  0
  4  5  1  0  0  0  0
  4 14  1  0  0  0  0
  5  6  1  0  0  0  0
  5 13  1  6  0  0  0
  6  7  1  0  0  0  0
  6 15  1  1  0  0  0
  7  8  1  0  0  0  0
  7 11  1  1  0  0  0
  8 14  1  0  0  0  0
  8 16  1  1  0  0  0
  9 11  1  0  0  0  0
 17 16  1  1  0  0  0
 17 18  1  0  0  0  0
 17 24  1  0  0  0  0
 18 19  1  0  0  0  0
 18 25  1  6  0  0  0
 19 20  1  0  0  0  0
 19 26  1  1  0  0  0
 20 21  1  0  0  0  0
 20 23  1  1  0  0  0
 21 22  1  1  0  0  0
 21 24  1  0  0  0  0
 22 27  1  0  0  0  0
 28 12  1  1  0  0  0
 28 29  1  0  0  0  0
 28 33  1  0  0  0  0
 29 30  1  0  0  0  0
 29 36  1  1  0  0  0
 30 31  1  0  0  0  0
 30 37  1  1  0  0  0
 31 32  1  0  0  0  0
 31 34  1  6  0  0  0
 32 33  1  0  0  0  0
 33 35  1  6  0  0  0
M  END
>  <CHROM.1>
-130.80394365,70.66273494,-69.26917490,-109.48517408,175.30641688,156.61008608
18.79498519,-1.95228465,49.84297619,-2.42865309,-1.19869325,0.32653170

>  <Name>
2oe8_lig

>  <RI>
0

>  <Rbt.Current_Directory>
/home/itssahil/PROJECTS/Mol_Feturizer/New_Systems/rnas/2oe8

>  <Rbt.Executable>
rbdock ($Id: //depot/dev/client3/rdock/2013.1/src/exe/rbdock.cxx#4 $)

>  <Rbt.Library>
libRbt.so (2013.1, Build901 2013/11/27)

>  <Rbt.Parameter_File>
/export/apps/rDock/src/rDock_2013.1_src/data/scripts/dock_solv.prm

>  <Rbt.Receptor>
prm/pocket_docking_7.prm

>  <SCORE>
-18.6126

>  <SCORE.INTER>
-20.0953

>  <SCORE.INTER.CONST>
1

>  <SCORE.INTER.POLAR>
-1.56609

>  <SCORE.INTER.ROT>
6

>  <SCORE.INTER.SOLV>
15.5463

>  <SCORE.INTER.VDW>
-20.9587

>  <SCORE.INTER.norm>
-0.543115

>  <SCORE.INTRA>
1.48265

>  <SCORE.INTRA.DIHEDRAL>
-0.12058

>  <SCORE.INTRA.DIHEDRAL.0>
16.4056

>  <SCORE.INTRA.POLAR>
0

>  <SCORE.INTRA.POLAR.0>
0

>  <SCORE.INTRA.REPUL>
0

>  <SCORE.INTRA.REPUL.0>
0

>  <SCORE.INTRA.SOLV>
0.326573

>  <SCORE.INTRA.SOLV.lig_0>
-90.9627

>  <SCORE.INTRA.VDW>
1.37965

>  <SCORE.INTRA.VDW.0>
-3.28744

>  <SCORE.INTRA.norm>
0.0400716

>  <SCORE.RESTR>
0

>  <SCORE.RESTR.CAVITY>
0

>  <SCORE.RESTR.norm>
0

>  <SCORE.SYSTEM>
0

>  <SCORE.SYSTEM.CONST>
0

>  <SCORE.SYSTEM.DIHEDRAL>
0

>  <SCORE.SYSTEM.SOLV>
0

>  <SCORE.SYSTEM.norm>
0

>  <SCORE.heavy>
37

>  <SCORE.norm>
-0.503043

>  <RMSD>
10.143

$$$$
2oe8_lig
 OpenBabel11021811463D
libRbt.so/2013.1/901 2013/11/27
 37 40  0  0  0  0  0  0  0  0999 V2000
   20.5887    0.0087   50.3978 C   0  0  1  0  0  0  0  0  0  0  0  0
   21.4203   -0.6198   51.5797 C   0  0  1  0  0  0  0  0  0  0  0  0
   20.5295   -0.7167   52.8358 C   0  0  0  0  0  0  0  0  0  0  0  0
   20.0872    0.7431   53.1665 C   0  0  1  0  0  0  0  0  0  0  0  0
   19.2514    1.4077   51.9558 C   0  0  1  0  0  0  0  0  0  0  0  0
   18.8226    2.8711   52.2701 C   0  0  1  0  0  0  0  0  0  0  0  0
   17.9594    2.8346   53.5969 C   0  0  1  0  0  0  0  0  0  0  0  0
   18.7964    2.1405   54.7271 C   0  0  2  0  0  0  0  0  0  0  0  0
   16.7735    4.4390   55.3046 C   0  0  0  0  0  0  0  0  0  0  0  0
   21.9148   -1.9831   51.2069 N   0  0  0  0  0  0  0  0  0  0  0  0
   17.5287    4.2379   54.0150 N   0  0  0  0  0  0  0  0  0  0  0  0
   19.4606   -0.8051   50.0527 O   0  0  0  0  0  0  0  0  0  0  0  0
   20.0827    1.3694   50.7447 O   0  0  0  0  0  0  0  0  0  0  0  0
   19.2496    0.7665   54.3603 O   0  0  0  0  0  0  0  0  0  0  0  0
   20.0194    3.6366   52.4198 O   0  0  0  0  0  0  0  0  0  0  0  0
   18.0228    2.0517   55.8676 O   0  0  0  0  0  0  0  0  0  0  0  0
   18.7579    1.6091   57.0211 C   0  0  2  0  0  0  0  0  0  0  0  0
   17.8446    1.6054   58.2707 C   0  0  1  0  0  0  0  0  0  0  0  0
   17.4036    3.0469   58.6704 C   0  0  2  0  0  0  0  0  0  0  0  0
   18.6674    3.9140   58.9463 C   0  0  1  0  0  0  0  0  0  0  0  0
   19.5114    3.9386   57.6045 C   0  0  1  0  0  0  0  0  0  0  0  0
   20.7950    4.7508   57.7516 C   0  0  0  0  0  0  0  0  0  0  0  0
   18.2484    5.2926   59.3289 N   0  0  0  0  0  0  0  0  0  0  0  0
   19.9028    2.5274   57.2540 O   0  0  0  0  0  0  0  0  0  0  0  0
   16.7171    0.7597   57.9729 O   0  0  0  0  0  0  0  0  0  0  0  0
   16.6176    2.9639   59.8408 O   0  0  0  0  0  0  0  0  0  0  0  0
   21.4607    4.8002   56.5173 O   0  0  0  0  0  0  0  0  0  0  0  0
   19.8035   -2.1313   49.7071 C   0  0  1  0  0  0  0  0  0  0  0  0
   18.5753   -3.0472   50.0140 C   0  0  1  0  0  0  0  0  0  0  0  0
   18.9505   -4.5176   49.6672 C   0  0  2  0  0  0  0  0  0  0  0  0
   19.3496   -4.6481   48.1648 C   0  0  1  0  0  0  0  0  0  0  0  0
   20.5814   -3.7187   47.8430 C   0  0  0  0  0  0  0  0  0  0  0  0
   20.1932   -2.2220   48.1916 C   0  0  2  0  0  0  0  0  0  0  0  0
   19.7089   -6.0607   47.8596 N   0  0  0  0  0  0  0  0  0  0  0  0
   21.3535   -1.3560   47.8831 N   0  0  0  0  0  0  0  0  0  0  0  0
   18.2275   -2.9669   51.4089 O   0  0  0  0  0  0  0  0  0  0  0  0
   17.8188   -5.3247   49.9478 O   0  0  0  0  0  0  0  0  0  0  0  0
  1  2  1  0  0  0  0
  1 12  1  1  0  0  0
  1 13  1  0  0  0  0
  2  3  1  0  0  0  0
  2 10  1  6  0  0  0
  4  3  1  6  0  0  0
  4  5  1  0  0  0  0
  4 14  1  0  0  0  0
  5  6  1  0  0  0  0
  5 13  1  6  0  0  0
  6  7  1  0  0  0  0
  6 15  1  1  0  0  0
  7  8  1  0  0  0  0
  7 11  1  1  0  0  0
  8 14  1  0  0  0  0
  8 16  1  1  0  0  0
  9 11  1  0  0  0  0
 17 16  1  6  0  0  0
 17 18  1  0  0  0  0
 17 24  1  0  0  0  0
 18 19  1  0  0  0  0
 18 25  1  6  0  0  0
 19 20  1  0  0  0  0
 19 26  1  1  0  0  0
 20 21  1  0  0  0  0
 20 23  1  6  0  0  0
 21 22  1  1  0  0  0
 21 24  1  0  0  0  0
 22 27  1  0  0  0  0
 28 12  1  6  0  0  0
 28 29  1  0  0  0  0
 28 33  1  0  0  0  0
 29 30  1  0  0  0  0
 29 36  1  1  0  0  0
 30 31  1  0  0  0  0
 30 37  1  6  0  0  0
 31 32  1  0  0  0  0
 31 34  1  1  0  0  0
 32 33  1  0  0  0  0
 33 35  1  1  0  0  0
M  END
>  <CHROM.1>
-56.71974614,-175.96619870,-171.41111002,177.06572220,-176.70741063,153.54282089
19.19836624,0.60961838,53.40679166,-1.35261002,0.98946823,0.71361298

>  <Name>
2oe8_lig

>  <RI>
0

>  <Rbt.Current_Directory>
/home/itssahil/PROJECTS/Mol_Feturizer/New_Systems/rnas/2oe8

>  <Rbt.Executable>
rbdock ($Id: //depot/dev/client3/rdock/2013.1/src/exe/rbdock.cxx#4 $)

>  <Rbt.Library>
libRbt.so (2013.1, Build901 2013/11/27)

>  <Rbt.Parameter_File>
/export/apps/rDock/src/rDock_2013.1_src/data/scripts/dock_solv.prm

>  <Rbt.Receptor>
prm/pocket_docking_5.prm

>  <SCORE>
-23.0732

>  <SCORE.INTER>
-20.5933

>  <SCORE.INTER.CONST>
1

>  <SCORE.INTER.POLAR>
-2.7195

>  <SCORE.INTER.ROT>
6

>  <SCORE.INTER.SOLV>
13.378

>  <SCORE.INTER.VDW>
-16.7232

>  <SCORE.INTER.norm>
-0.556575

>  <SCORE.INTRA>
-2.47989

>  <SCORE.INTRA.DIHEDRAL>
-12.8987

>  <SCORE.INTRA.DIHEDRAL.0>
16.4056

>  <SCORE.INTRA.POLAR>
0

>  <SCORE.INTRA.POLAR.0>
0

>  <SCORE.INTRA.REPUL>
0

>  <SCORE.INTRA.REPUL.0>
0

>  <SCORE.INTRA.SOLV>
2.39501

>  <SCORE.INTRA.SOLV.lig_0>
-90.9627

>  <SCORE.INTRA.VDW>
2.77196

>  <SCORE.INTRA.VDW.0>
-3.28744

>  <SCORE.INTRA.norm>
-0.0670242

>  <SCORE.RESTR>
0

>  <SCORE.RESTR.CAVITY>
0

>  <SCORE.RESTR.norm>
0

>  <SCORE.SYSTEM>
0

>  <SCORE.SYSTEM.CONST>
0

>  <SCORE.SYSTEM.DIHEDRAL>
0

>  <SCORE.SYSTEM.SOLV>
0

>  <SCORE.SYSTEM.norm>
0

>  <SCORE.heavy>
37

>  <SCORE.norm>
-0.623599

>  <RMSD>
10.149

$$$$
2oe8_lig
 OpenBabel11021811463D
libRbt.so/2013.1/901 2013/11/27
 37 40  0  0  0  0  0  0  0  0999 V2000
   19.4625   -2.3562   49.2500 C   0  0  1  0  0  0  0  0  0  0  0  0
   20.5846   -2.9994   50.1504 C   0  0  1  0  0  0  0  0  0  0  0  0
   20.1635   -2.9109   51.6321 C   0  0  0  0  0  0  0  0  0  0  0  0
   19.9884   -1.3914   51.9424 C   0  0  1  0  0  0  0  0  0  0  0  0
   18.8559   -0.7137   51.0127 C   0  0  1  0  0  0  0  0  0  0  0  0
   18.6883    0.8067   51.3027 C   0  0  1  0  0  0  0  0  0  0  0  0
   18.3222    0.9565   52.8358 C   0  0  1  0  0  0  0  0  0  0  0  0
   19.4261    0.2443   53.6925 C   0  0  2  0  0  0  0  0  0  0  0  0
   19.2274    3.4214   52.7969 C   0  0  0  0  0  0  0  0  0  0  0  0
   20.8029   -4.4322   49.7738 N   0  0  0  0  0  0  0  0  0  0  0  0
   18.1824    2.4243   53.2300 N   0  0  0  0  0  0  0  0  0  0  0  0
   18.2172   -3.0541   49.3766 O   0  0  0  0  0  0  0  0  0  0  0  0
   19.2245   -0.9265   49.6061 O   0  0  0  0  0  0  0  0  0  0  0  0
   19.6068   -1.1938   53.3361 O   0  0  0  0  0  0  0  0  0  0  0  0
   19.9281    1.4362   50.9748 O   0  0  0  0  0  0  0  0  0  0  0  0
   19.0767    0.3198   55.0264 O   0  0  0  0  0  0  0  0  0  0  0  0
   19.8586    1.2724   55.7666 C   0  0  2  0  0  0  0  0  0  0  0  0
   19.8935    0.8888   57.2657 C   0  0  1  0  0  0  0  0  0  0  0  0
   18.4857    1.0048   57.9265 C   0  0  2  0  0  0  0  0  0  0  0  0
   17.9619    2.4630   57.7696 C   0  0  1  0  0  0  0  0  0  0  0  0
   17.8762    2.7572   56.2142 C   0  0  1  0  0  0  0  0  0  0  0  0
   17.3865    4.1737   55.9267 C   0  0  0  0  0  0  0  0  0  0  0  0
   16.6160    2.5765   58.4008 N   0  0  0  0  0  0  0  0  0  0  0  0
   19.2532    2.6217   55.6203 O   0  0  0  0  0  0  0  0  0  0  0  0
   20.4211   -0.4487   57.3519 O   0  0  0  0  0  0  0  0  0  0  0  0
   18.6093    0.6876   59.2970 O   0  0  0  0  0  0  0  0  0  0  0  0
   16.0701    4.3163   56.3911 O   0  0  0  0  0  0  0  0  0  0  0  0
   18.0828   -4.1396   48.4825 C   0  0  1  0  0  0  0  0  0  0  0  0
   17.2587   -5.2589   49.1964 C   0  0  1  0  0  0  0  0  0  0  0  0
   17.1298   -6.4749   48.2332 C   0  0  2  0  0  0  0  0  0  0  0  0
   16.4237   -6.0583   46.9060 C   0  0  1  0  0  0  0  0  0  0  0  0
   17.2425   -4.9211   46.1840 C   0  0  0  0  0  0  0  0  0  0  0  0
   17.3660   -3.6828   47.1656 C   0  0  2  0  0  0  0  0  0  0  0  0
   16.3175   -7.2357   46.0004 N   0  0  0  0  0  0  0  0  0  0  0  0
   18.1324   -2.6188   46.4788 N   0  0  0  0  0  0  0  0  0  0  0  0
   17.9262   -5.6810   50.4003 O   0  0  0  0  0  0  0  0  0  0  0  0
   16.3735   -7.4709   48.9016 O   0  0  0  0  0  0  0  0  0  0  0  0
  1  2  1  0  0  0  0
  1 12  1  1  0  0  0
  1 13  1  0  0  0  0
  2  3  1  0  0  0  0
  2 10  1  6  0  0  0
  4  3  1  6  0  0  0
  4  5  1  0  0  0  0
  4 14  1  0  0  0  0
  5  6  1  0  0  0  0
  5 13  1  6  0  0  0
  6  7  1  0  0  0  0
  6 15  1  1  0  0  0
  7  8  1  0  0  0  0
  7 11  1  1  0  0  0
  8 14  1  0  0  0  0
  8 16  1  1  0  0  0
  9 11  1  0  0  0  0
 17 16  1  6  0  0  0
 17 18  1  0  0  0  0
 17 24  1  0  0  0  0
 18 19  1  0  0  0  0
 18 25  1  6  0  0  0
 19 20  1  0  0  0  0
 19 26  1  1  0  0  0
 20 21  1  0  0  0  0
 20 23  1  6  0  0  0
 21 22  1  1  0  0  0
 21 24  1  0  0  0  0
 22 27  1  0  0  0  0
 28 12  1  1  0  0  0
 28 29  1  0  0  0  0
 28 33  1  0  0  0  0
 29 30  1  0  0  0  0
 29 36  1  1  0  0  0
 30 31  1  0  0  0  0
 30 37  1  1  0  0  0
 31 32  1  0  0  0  0
 31 34  1  6  0  0  0
 32 33  1  0  0  0  0
 33 35  1  6  0  0  0
M  END
>  <CHROM.1>
-87.81520923,-46.49189008,-105.66839178,-154.74386203,-64.25465972,146.10287664
18.50226480,-1.09734314,52.26245330,-2.66533634,1.49818064,1.96462040

>  <Name>
2oe8_lig

>  <RI>
0

>  <Rbt.Current_Directory>
/home/itssahil/PROJECTS/Mol_Feturizer/New_Systems/rnas/2oe8

>  <Rbt.Executable>
rbdock ($Id: //depot/dev/client3/rdock/2013.1/src/exe/rbdock.cxx#4 $)

>  <Rbt.Library>
libRbt.so (2013.1, Build901 2013/11/27)

>  <Rbt.Parameter_File>
/export/apps/rDock/src/rDock_2013.1_src/data/scripts/dock_solv.prm

>  <Rbt.Receptor>
prm/pocket_docking_4.prm

>  <SCORE>
-22.4943

>  <SCORE.INTER>
-25.4624

>  <SCORE.INTER.CONST>
1

>  <SCORE.INTER.POLAR>
-1.99297

>  <SCORE.INTER.ROT>
6

>  <SCORE.INTER.SOLV>
16.0474

>  <SCORE.INTER.VDW>
-23.2808

>  <SCORE.INTER.norm>
-0.688172

>  <SCORE.INTRA>
2.96805

>  <SCORE.INTRA.DIHEDRAL>
0.247476

>  <SCORE.INTRA.DIHEDRAL.0>
16.4056

>  <SCORE.INTRA.POLAR>
0

>  <SCORE.INTRA.POLAR.0>
0

>  <SCORE.INTRA.REPUL>
0

>  <SCORE.INTRA.REPUL.0>
0

>  <SCORE.INTRA.SOLV>
2.66068

>  <SCORE.INTRA.SOLV.lig_0>
-90.9627

>  <SCORE.INTRA.VDW>
1.51397

>  <SCORE.INTRA.VDW.0>
-3.28744

>  <SCORE.INTRA.norm>
0.0802175

>  <SCORE.RESTR>
0

>  <SCORE.RESTR.CAVITY>
0

>  <SCORE.RESTR.norm>
0

>  <SCORE.SYSTEM>
0

>  <SCORE.SYSTEM.CONST>
0

>  <SCORE.SYSTEM.DIHEDRAL>
0

>  <SCORE.SYSTEM.SOLV>
0

>  <SCORE.SYSTEM.norm>
0

>  <SCORE.heavy>
37

>  <SCORE.norm>
-0.607955

>  <RMSD>
10.157

$$$$
2oe8_lig
 OpenBabel11021811463D
libRbt.so/2013.1/901 2013/11/27
 37 40  0  0  0  0  0  0  0  0999 V2000
   19.4334   -2.5175   48.8969 C   0  0  1  0  0  0  0  0  0  0  0  0
   20.5203   -3.3673   49.6585 C   0  0  1  0  0  0  0  0  0  0  0  0
   20.2042   -3.3649   51.1687 C   0  0  0  0  0  0  0  0  0  0  0  0
   20.2371   -1.8699   51.6156 C   0  0  1  0  0  0  0  0  0  0  0  0
   19.1424   -0.9821   50.8285 C   0  0  1  0  0  0  0  0  0  0  0  0
   19.1817    0.5148   51.2547 C   0  0  1  0  0  0  0  0  0  0  0  0
   18.9307    0.5667   52.8171 C   0  0  1  0  0  0  0  0  0  0  0  0
   19.9884   -0.3453   53.5308 C   0  0  2  0  0  0  0  0  0  0  0  0
   18.6093    3.1460   52.4421 C   0  0  0  0  0  0  0  0  0  0  0  0
   20.5368   -4.7756   49.1499 N   0  0  0  0  0  0  0  0  0  0  0  0
   18.9973    1.9988   53.3406 N   0  0  0  0  0  0  0  0  0  0  0  0
   18.1215   -3.0726   49.0538 O   0  0  0  0  0  0  0  0  0  0  0  0
   19.3957   -1.1080   49.3864 O   0  0  0  0  0  0  0  0  0  0  0  0
   19.9683   -1.7563   53.0445 O   0  0  0  0  0  0  0  0  0  0  0  0
   20.4674    1.0213   50.8925 O   0  0  0  0  0  0  0  0  0  0  0  0
   19.7328   -0.3508   54.8879 O   0  0  0  0  0  0  0  0  0  0  0  0
   20.3924    0.7125   55.5958 C   0  0  2  0  0  0  0  0  0  0  0  0
   20.9550    0.1936   56.9411 C   0  0  1  0  0  0  0  0  0  0  0  0
   19.8173   -0.2249   57.9221 C   0  0  2  0  0  0  0  0  0  0  0  0
   18.8842    0.9952   58.1788 C   0  0  1  0  0  0  0  0  0  0  0  0
   18.2841    1.4201   56.7743 C   0  0  1  0  0  0  0  0  0  0  0  0
   17.3572    2.6268   56.8905 C   0  0  0  0  0  0  0  0  0  0  0  0
   17.7957    0.5976   59.1167 N   0  0  0  0  0  0  0  0  0  0  0  0
   19.4180    1.8029   55.8604 O   0  0  0  0  0  0  0  0  0  0  0  0
   21.8379   -0.9040   56.6396 O   0  0  0  0  0  0  0  0  0  0  0  0
   20.4064   -0.6385   59.1371 O   0  0  0  0  0  0  0  0  0  0  0  0
   16.1814    2.2503   57.5575 O   0  0  0  0  0  0  0  0  0  0  0  0
   17.6711   -3.7899   47.9231 C   0  0  1  0  0  0  0  0  0  0  0  0
   18.0780   -2.9886   46.6447 C   0  0  1  0  0  0  0  0  0  0  0  0
   17.5599   -3.7524   45.3913 C   0  0  2  0  0  0  0  0  0  0  0  0
   18.1602   -5.1910   45.3313 C   0  0  1  0  0  0  0  0  0  0  0  0
   17.7642   -6.0035   46.6227 C   0  0  0  0  0  0  0  0  0  0  0  0
   18.2989   -5.2258   47.8961 C   0  0  2  0  0  0  0  0  0  0  0  0
   17.6460   -5.9021   44.1282 N   0  0  0  0  0  0  0  0  0  0  0  0
   17.9263   -5.9972   49.1033 N   0  0  0  0  0  0  0  0  0  0  0  0
   17.4913   -1.6740   46.6705 O   0  0  0  0  0  0  0  0  0  0  0  0
   17.9477   -3.0091   44.2476 O   0  0  0  0  0  0  0  0  0  0  0  0
  1  2  1  0  0  0  0
  1 12  1  1  0  0  0
  1 13  1  0  0  0  0
  2  3  1  0  0  0  0
  2 10  1  6  0  0  0
  4  3  1  6  0  0  0
  4  5  1  0  0  0  0
  4 14  1  0  0  0  0
  5  6  1  0  0  0  0
  5 13  1  6  0  0  0
  6  7  1  0  0  0  0
  6 15  1  1  0  0  0
  7  8  1  0  0  0  0
  7 11  1  1  0  0  0
  8 14  1  0  0  0  0
  8 16  1  1  0  0  0
  9 11  1  0  0  0  0
 17 16  1  1  0  0  0
 17 18  1  0  0  0  0
 17 24  1  0  0  0  0
 18 19  1  0  0  0  0
 18 25  1  6  0  0  0
 19 20  1  0  0  0  0
 19 26  1  1  0  0  0
 20 21  1  0  0  0  0
 20 23  1  1  0  0  0
 21 22  1  1  0  0  0
 21 24  1  0  0  0  0
 22 27  1  0  0  0  0
 28 12  1  1  0  0  0
 28 29  1  0  0  0  0
 28 33  1  0  0  0  0
 29 30  1  0  0  0  0
 29 36  1  1  0  0  0
 30 31  1  0  0  0  0
 30 37  1  6  0  0  0
 31 32  1  0  0  0  0
 31 34  1  6  0  0  0
 32 33  1  0  0  0  0
 33 35  1  1  0  0  0
M  END
>  <CHROM.1>
-102.53297653,29.58681506,-88.34253321,-139.08628720,-69.89316628,-41.56711290
19.01096844,-1.33476098,51.83486193,-1.78398446,-1.18459897,0.91471742

>  <Name>
2oe8_lig

>  <RI>
0

>  <Rbt.Current_Directory>
/home/itssahil/PROJECTS/Mol_Feturizer/New_Systems/rnas/2oe8

>  <Rbt.Executable>
rbdock ($Id: //depot/dev/client3/rdock/2013.1/src/exe/rbdock.cxx#4 $)

>  <Rbt.Library>
libRbt.so (2013.1, Build901 2013/11/27)

>  <Rbt.Parameter_File>
/export/apps/rDock/src/rDock_2013.1_src/data/scripts/dock_solv.prm

>  <Rbt.Receptor>
prm/pocket_docking_6.prm

>  <SCORE>
-14.2287

>  <SCORE.INTER>
-21.6233

>  <SCORE.INTER.CONST>
1

>  <SCORE.INTER.POLAR>
-2.8146

>  <SCORE.INTER.ROT>
6

>  <SCORE.INTER.SOLV>
15.1627

>  <SCORE.INTER.VDW>
-17.6877

>  <SCORE.INTER.norm>
-0.584413

>  <SCORE.INTRA>
7.39462

>  <SCORE.INTRA.DIHEDRAL>
0.726271

>  <SCORE.INTRA.DIHEDRAL.0>
16.4056

>  <SCORE.INTRA.POLAR>
0

>  <SCORE.INTRA.POLAR.0>
0

>  <SCORE.INTRA.REPUL>
0

>  <SCORE.INTRA.REPUL.0>
0

>  <SCORE.INTRA.SOLV>
4.53598

>  <SCORE.INTRA.SOLV.lig_0>
-90.9627

>  <SCORE.INTRA.VDW>
4.7635

>  <SCORE.INTRA.VDW.0>
-3.28744

>  <SCORE.INTRA.norm>
0.199855

>  <SCORE.RESTR>
0

>  <SCORE.RESTR.CAVITY>
0

>  <SCORE.RESTR.norm>
0

>  <SCORE.SYSTEM>
0

>  <SCORE.SYSTEM.CONST>
0

>  <SCORE.SYSTEM.DIHEDRAL>
0

>  <SCORE.SYSTEM.SOLV>
0

>  <SCORE.SYSTEM.norm>
0

>  <SCORE.heavy>
37

>  <SCORE.norm>
-0.384558

>  <RMSD>
10.170

$$$$
2oe8_lig
 OpenBabel11021811463D
libRbt.so/2013.1/901 2013/11/27
 37 40  0  0  0  0  0  0  0  0999 V2000
   20.9464   -0.9023   52.2936 C   0  0  1  0  0  0  0  0  0  0  0  0
   19.4819   -0.5441   51.8351 C   0  0  1  0  0  0  0  0  0  0  0  0
   19.0193    0.7374   52.5592 C   0  0  0  0  0  0  0  0  0  0  0  0
   19.0735    0.4159   54.0854 C   0  0  1  0  0  0  0  0  0  0  0  0
   20.5646    0.0267   54.5661 C   0  0  1  0  0  0  0  0  0  0  0  0
   20.6239   -0.3142   56.0840 C   0  0  1  0  0  0  0  0  0  0  0  0
   20.0903    0.9510   56.8724 C   0  0  1  0  0  0  0  0  0  0  0  0
   18.6614    1.3154   56.3383 C   0  0  2  0  0  0  0  0  0  0  0  0
   21.3525    0.7170   59.1634 C   0  0  0  0  0  0  0  0  0  0  0  0
   19.4328   -0.3309   50.3537 N   0  0  0  0  0  0  0  0  0  0  0  0
   20.0661    0.6953   58.3768 N   0  0  0  0  0  0  0  0  0  0  0  0
   21.8764    0.1335   51.9526 O   0  0  0  0  0  0  0  0  0  0  0  0
   21.0230   -1.1191   53.7683 O   0  0  0  0  0  0  0  0  0  0  0  0
   18.6322    1.5654   54.8671 O   0  0  0  0  0  0  0  0  0  0  0  0
   19.8060   -1.4676   56.2879 O   0  0  0  0  0  0  0  0  0  0  0  0
   18.2200    2.4555   56.9806 O   0  0  0  0  0  0  0  0  0  0  0  0
   16.8965    2.8549   56.5860 C   0  0  2  0  0  0  0  0  0  0  0  0
   16.9136    4.3025   56.0386 C   0  0  1  0  0  0  0  0  0  0  0  0
   17.2737    5.3374   57.1483 C   0  0  2  0  0  0  0  0  0  0  0  0
   16.2418    5.2273   58.3094 C   0  0  1  0  0  0  0  0  0  0  0  0
   16.3366    3.7480   58.8715 C   0  0  1  0  0  0  0  0  0  0  0  0
   15.3537    3.5066   60.0136 C   0  0  0  0  0  0  0  0  0  0  0  0
   16.5838    6.2159   59.3715 N   0  0  0  0  0  0  0  0  0  0  0  0
   15.9931    2.7874   57.7640 O   0  0  0  0  0  0  0  0  0  0  0  0
   17.8520    4.3348   54.9462 O   0  0  0  0  0  0  0  0  0  0  0  0
   17.2210    6.6313   56.5848 O   0  0  0  0  0  0  0  0  0  0  0  0
   15.7088    4.3042   61.1122 O   0  0  0  0  0  0  0  0  0  0  0  0
   23.2071   -0.1532   52.3308 C   0  0  1  0  0  0  0  0  0  0  0  0
   23.8066   -1.1479   51.2854 C   0  0  1  0  0  0  0  0  0  0  0  0
   25.2635   -1.4972   51.7076 C   0  0  2  0  0  0  0  0  0  0  0  0
   26.1424   -0.2106   51.7831 C   0  0  1  0  0  0  0  0  0  0  0  0
   25.5388    0.8040   52.8276 C   0  0  0  0  0  0  0  0  0  0  0  0
   24.0578    1.1619   52.3907 C   0  0  2  0  0  0  0  0  0  0  0  0
   27.5280   -0.5700   52.1937 N   0  0  0  0  0  0  0  0  0  0  0  0
   23.5002    2.1174   53.3742 N   0  0  0  0  0  0  0  0  0  0  0  0
   23.0266   -2.3574   51.2411 O   0  0  0  0  0  0  0  0  0  0  0  0
   25.7851   -2.3937   50.7405 O   0  0  0  0  0  0  0  0  0  0  0  0
  1  2  1  0  0  0  0
  1 12  1  1  0  0  0
  1 13  1  0  0  0  0
  2  3  1  0  0  0  0
  2 10  1  6  0  0  0
  4  3  1  6  0  0  0
  4  5  1  0  0  0  0
  4 14  1  0  0  0  0
  5  6  1  0  0  0  0
  5 13  1  6  0  0  0
  6  7  1  0  0  0  0
  6 15  1  6  0  0  0
  7  8  1  0  0  0  0
  7 11  1  1  0  0  0
  8 14  1  0  0  0  0
  8 16  1  1  0  0  0
  9 11  1  0  0  0  0
 17 16  1  1  0  0  0
 17 18  1  0  0  0  0
 17 24  1  0  0  0  0
 18 19  1  0  0  0  0
 18 25  1  6  0  0  0
 19 20  1  0  0  0  0
 19 26  1  6  0  0  0
 20 21  1  0  0  0  0
 20 23  1  1  0  0  0
 21 22  1  1  0  0  0
 21 24  1  0  0  0  0
 22 27  1  0  0  0  0
 28 12  1  6  0  0  0
 28 29  1  0  0  0  0
 28 33  1  0  0  0  0
 29 30  1  0  0  0  0
 29 36  1  1  0  0  0
 30 31  1  0  0  0  0
 30 37  1  6  0  0  0
 31 32  1  0  0  0  0
 31 34  1  1  0  0  0
 32 33  1  0  0  0  0
 33 35  1  1  0  0  0
M  END
>  <CHROM.1>
-179.25992707,75.91011180,-178.40268455,-122.81794919,-65.52079221,78.28376679
20.21674788,1.33703239,54.97183071,0.76623534,0.36513107,-1.87000688

>  <Name>
2oe8_lig

>  <RI>
0

>  <Rbt.Current_Directory>
/home/itssahil/PROJECTS/Mol_Feturizer/New_Systems/rnas/2oe8

>  <Rbt.Executable>
rbdock ($Id: //depot/dev/client3/rdock/2013.1/src/exe/rbdock.cxx#4 $)

>  <Rbt.Library>
libRbt.so (2013.1, Build901 2013/11/27)

>  <Rbt.Parameter_File>
/export/apps/rDock/src/rDock_2013.1_src/data/scripts/dock_solv.prm

>  <Rbt.Receptor>
prm/pocket_docking_8.prm

>  <SCORE>
-20.177

>  <SCORE.INTER>
-16.7353

>  <SCORE.INTER.CONST>
1

>  <SCORE.INTER.POLAR>
-1.38365

>  <SCORE.INTER.ROT>
6

>  <SCORE.INTER.SOLV>
12.5802

>  <SCORE.INTER.VDW>
-18.3381

>  <SCORE.INTER.norm>
-0.452304

>  <SCORE.INTRA>
-3.44172

>  <SCORE.INTRA.DIHEDRAL>
-7.3238

>  <SCORE.INTRA.DIHEDRAL.0>
16.4056

>  <SCORE.INTRA.POLAR>
0

>  <SCORE.INTRA.POLAR.0>
0

>  <SCORE.INTRA.REPUL>
0

>  <SCORE.INTRA.REPUL.0>
0

>  <SCORE.INTRA.SOLV>
-1.70769

>  <SCORE.INTRA.SOLV.lig_0>
-90.9627

>  <SCORE.INTRA.VDW>
1.07402

>  <SCORE.INTRA.VDW.0>
-3.28744

>  <SCORE.INTRA.norm>
-0.0930196

>  <SCORE.RESTR>
0

>  <SCORE.RESTR.CAVITY>
0

>  <SCORE.RESTR.norm>
0

>  <SCORE.SYSTEM>
0

>  <SCORE.SYSTEM.CONST>
0

>  <SCORE.SYSTEM.DIHEDRAL>
0

>  <SCORE.SYSTEM.SOLV>
0

>  <SCORE.SYSTEM.norm>
0

>  <SCORE.heavy>
37

>  <SCORE.norm>
-0.545324

>  <RMSD>
10.171

$$$$
2oe8_lig
 OpenBabel11021811463D
libRbt.so/2013.1/901 2013/11/27
 37 40  0  0  0  0  0  0  0  0999 V2000
   20.6831   -2.1796   50.9230 C   0  0  1  0  0  0  0  0  0  0  0  0
   21.9779   -2.5675   51.7333 C   0  0  1  0  0  0  0  0  0  0  0  0
   21.6485   -2.5934   53.2404 C   0  0  0  0  0  0  0  0  0  0  0  0
   21.1622   -1.1551   53.6020 C   0  0  1  0  0  0  0  0  0  0  0  0
   19.8477   -0.7356   52.7642 C   0  0  1  0  0  0  0  0  0  0  0  0
   19.3671    0.7055   53.1051 C   0  0  1  0  0  0  0  0  0  0  0  0
   19.0810    0.7509   54.6617 C   0  0  1  0  0  0  0  0  0  0  0  0
   20.3706    0.2923   55.4276 C   0  0  2  0  0  0  0  0  0  0  0  0
   19.6431    3.2770   55.1083 C   0  0  0  0  0  0  0  0  0  0  0  0
   22.4825   -3.9107   51.3052 N   0  0  0  0  0  0  0  0  0  0  0  0
   18.6462    2.1456   55.1035 N   0  0  0  0  0  0  0  0  0  0  0  0
   19.6349   -3.1391   51.1088 O   0  0  0  0  0  0  0  0  0  0  0  0
   20.1586   -0.8435   51.3320 O   0  0  0  0  0  0  0  0  0  0  0  0
   20.8411   -1.0648   55.0219 O   0  0  0  0  0  0  0  0  0  0  0  0
   20.4116    1.5995   52.7170 O   0  0  0  0  0  0  0  0  0  0  0  0
   20.1038    0.2715   56.7824 O   0  0  0  0  0  0  0  0  0  0  0  0
   21.2059   -0.2062   57.5724 C   0  0  2  0  0  0  0  0  0  0  0  0
   20.8042   -0.2793   59.0654 C   0  0  1  0  0  0  0  0  0  0  0  0
   20.5347    1.1359   59.6628 C   0  0  2  0  0  0  0  0  0  0  0  0
   21.8117    2.0131   59.5048 C   0  0  1  0  0  0  0  0  0  0  0  0
   22.1154    2.1097   57.9519 C   0  0  1  0  0  0  0  0  0  0  0  0
   23.3645    2.9379   57.6643 C   0  0  0  0  0  0  0  0  0  0  0  0
   21.5566    3.3666   60.0755 N   0  0  0  0  0  0  0  0  0  0  0  0
   22.3564    0.7219   57.4195 O   0  0  0  0  0  0  0  0  0  0  0  0
   19.6466   -1.1317   59.1548 O   0  0  0  0  0  0  0  0  0  0  0  0
   20.2235    0.9893   61.0325 O   0  0  0  0  0  0  0  0  0  0  0  0
   23.5444    3.0457   56.2769 O   0  0  0  0  0  0  0  0  0  0  0  0
   19.2101   -3.7532   49.9096 C   0  0  1  0  0  0  0  0  0  0  0  0
   18.2399   -4.9214   50.2781 C   0  0  1  0  0  0  0  0  0  0  0  0
   17.7884   -5.6275   48.9665 C   0  0  2  0  0  0  0  0  0  0  0  0
   17.0723   -4.6214   48.0134 C   0  0  1  0  0  0  0  0  0  0  0  0
   18.0402   -3.4330   47.6449 C   0  0  0  0  0  0  0  0  0  0  0  0
   18.4925   -2.7129   48.9825 C   0  0  2  0  0  0  0  0  0  0  0  0
   16.6555   -5.3187   46.7653 N   0  0  0  0  0  0  0  0  0  0  0  0
   19.3975   -1.5966   48.6273 N   0  0  0  0  0  0  0  0  0  0  0  0
   18.9069   -5.8783   51.1222 O   0  0  0  0  0  0  0  0  0  0  0  0
   16.9054   -6.6765   49.3283 O   0  0  0  0  0  0  0  0  0  0  0  0
  1  2  1  0  0  0  0
  1 12  1  1  0  0  0
  1 13  1  0  0  0  0
  2  3  1  0  0  0  0
  2 10  1  6  0  0  0
  4  3  1  6  0  0  0
  4  5  1  0  0  0  0
  4 14  1  0  0  0  0
  5  6  1  0  0  0  0
  5 13  1  6  0  0  0
  6  7  1  0  0  0  0
  6 15  1  1  0  0  0
  7  8  1  0  0  0  0
  7 11  1  1  0  0  0
  8 14  1  0  0  0  0
  8 16  1  1  0  0  0
  9 11  1  0  0  0  0
 17 16  1  6  0  0  0
 17 18  1  0  0  0  0
 17 24  1  0  0  0  0
 18 19  1  0  0  0  0
 18 25  1  6  0  0  0
 19 20  1  0  0  0  0
 19 26  1  1  0  0  0
 20 21  1  0  0  0  0
 20 23  1  6  0  0  0
 21 22  1  1  0  0  0
 21 24  1  0  0  0  0
 22 27  1  0  0  0  0
 28 12  1  1  0  0  0
 28 29  1  0  0  0  0
 28 33  1  0  0  0  0
 29 30  1  0  0  0  0
 29 36  1  1  0  0  0
 30 31  1  0  0  0  0
 30 37  1  1  0  0  0
 31 32  1  0  0  0  0
 31 34  1  6  0  0  0
 32 33  1  0  0  0  0
 33 35  1  6  0  0  0
M  END
>  <CHROM.1>
-120.21411115,-70.08380833,176.88311650,-176.67959508,-177.01321087,171.21445643
20.11526683,-1.03985073,53.79927719,-2.37433259,1.21056356,1.76615835

>  <Name>
2oe8_lig

>  <RI>
0

>  <Rbt.Current_Directory>
/home/itssahil/PROJECTS/Mol_Feturizer/New_Systems/rnas/2oe8

>  <Rbt.Executable>
rbdock ($Id: //depot/dev/client3/rdock/2013.1/src/exe/rbdock.cxx#4 $)

>  <Rbt.Library>
libRbt.so (2013.1, Build901 2013/11/27)

>  <Rbt.Parameter_File>
/export/apps/rDock/src/rDock_2013.1_src/data/scripts/dock_solv.prm

>  <Rbt.Receptor>
prm/pocket_docking_5.prm

>  <SCORE>
-18.0981

>  <SCORE.INTER>
-15.4285

>  <SCORE.INTER.CONST>
1

>  <SCORE.INTER.POLAR>
-0.665797

>  <SCORE.INTER.ROT>
6

>  <SCORE.INTER.SOLV>
16.8297

>  <SCORE.INTER.VDW>
-21.2763

>  <SCORE.INTER.norm>
-0.416986

>  <SCORE.INTRA>
-2.66963

>  <SCORE.INTRA.DIHEDRAL>
-8.60217

>  <SCORE.INTRA.DIHEDRAL.0>
16.4056

>  <SCORE.INTRA.POLAR>
0

>  <SCORE.INTRA.POLAR.0>
0

>  <SCORE.INTRA.REPUL>
0

>  <SCORE.INTRA.REPUL.0>
0

>  <SCORE.INTRA.SOLV>
-0.884408

>  <SCORE.INTRA.SOLV.lig_0>
-90.9627

>  <SCORE.INTRA.VDW>
2.07366

>  <SCORE.INTRA.VDW.0>
-3.28744

>  <SCORE.INTRA.norm>
-0.0721523

>  <SCORE.RESTR>
0

>  <SCORE.RESTR.CAVITY>
0

>  <SCORE.RESTR.norm>
0

>  <SCORE.SYSTEM>
0

>  <SCORE.SYSTEM.CONST>
0

>  <SCORE.SYSTEM.DIHEDRAL>
0

>  <SCORE.SYSTEM.SOLV>
0

>  <SCORE.SYSTEM.norm>
0

>  <SCORE.heavy>
37

>  <SCORE.norm>
-0.489139

>  <RMSD>
10.173

$$$$
2oe8_lig
 OpenBabel11021811463D
libRbt.so/2013.1/901 2013/11/27
 37 40  0  0  0  0  0  0  0  0999 V2000
   19.3775   -2.3546   49.1010 C   0  0  1  0  0  0  0  0  0  0  0  0
   20.5186   -3.0580   49.9295 C   0  0  1  0  0  0  0  0  0  0  0  0
   20.1428   -3.0492   51.4260 C   0  0  0  0  0  0  0  0  0  0  0  0
   19.9939   -1.5480   51.8260 C   0  0  1  0  0  0  0  0  0  0  0  0
   18.8418   -0.8084   50.9706 C   0  0  1  0  0  0  0  0  0  0  0  0
   18.6998    0.6948   51.3502 C   0  0  1  0  0  0  0  0  0  0  0  0
   18.3811    0.7615   52.8997 C   0  0  1  0  0  0  0  0  0  0  0  0
   19.5021   -0.0082   53.6812 C   0  0  2  0  0  0  0  0  0  0  0  0
   19.4092    3.1654   53.1464 C   0  0  0  0  0  0  0  0  0  0  0  0
   20.7097   -4.4693   49.4669 N   0  0  0  0  0  0  0  0  0  0  0  0
   18.2694    2.2060   53.3796 N   0  0  0  0  0  0  0  0  0  0  0  0
   18.1288   -3.0467   49.2260 O   0  0  0  0  0  0  0  0  0  0  0  0
   19.1660   -0.9451   49.5438 O   0  0  0  0  0  0  0  0  0  0  0  0
   19.6561   -1.4256   53.2396 O   0  0  0  0  0  0  0  0  0  0  0  0
   19.9362    1.3300   51.0207 O   0  0  0  0  0  0  0  0  0  0  0  0
   19.1933   -0.0047   55.0273 O   0  0  0  0  0  0  0  0  0  0  0  0
   19.8744    1.0243   55.7648 C   0  0  2  0  0  0  0  0  0  0  0  0
   20.4691    0.4444   57.0709 C   0  0  1  0  0  0  0  0  0  0  0  0
   19.3550   -0.0148   58.0609 C   0  0  2  0  0  0  0  0  0  0  0  0
   18.4330    1.1948   58.3955 C   0  0  1  0  0  0  0  0  0  0  0  0
   17.7991    1.6836   57.0271 C   0  0  1  0  0  0  0  0  0  0  0  0
   16.8796    2.8861   57.2205 C   0  0  0  0  0  0  0  0  0  0  0  0
   17.3672    0.7584   59.3421 N   0  0  0  0  0  0  0  0  0  0  0  0
   18.9108    2.1041   56.1025 O   0  0  0  0  0  0  0  0  0  0  0  0
   21.3401   -0.6407   56.6984 O   0  0  0  0  0  0  0  0  0  0  0  0
   19.9732   -0.4836   59.2409 O   0  0  0  0  0  0  0  0  0  0  0  0
   17.6148    3.9551   57.7550 O   0  0  0  0  0  0  0  0  0  0  0  0
   18.0044   -4.1523   48.3554 C   0  0  1  0  0  0  0  0  0  0  0  0
   17.2009   -5.2682   49.0975 C   0  0  1  0  0  0  0  0  0  0  0  0
   17.0834   -6.5055   48.1604 C   0  0  2  0  0  0  0  0  0  0  0  0
   16.3632   -6.1266   46.8296 C   0  0  1  0  0  0  0  0  0  0  0  0
   17.1610   -4.9931   46.0791 C   0  0  0  0  0  0  0  0  0  0  0  0
   17.2729   -3.7331   47.0341 C   0  0  2  0  0  0  0  0  0  0  0  0
   16.2682   -7.3239   45.9492 N   0  0  0  0  0  0  0  0  0  0  0  0
   18.0197   -2.6727   46.3205 N   0  0  0  0  0  0  0  0  0  0  0  0
   17.8818   -5.6558   50.3055 O   0  0  0  0  0  0  0  0  0  0  0  0
   16.3456   -7.4982   48.8541 O   0  0  0  0  0  0  0  0  0  0  0  0
  1  2  1  0  0  0  0
  1 12  1  1  0  0  0
  1 13  1  0  0  0  0
  2  3  1  0  0  0  0
  2 10  1  6  0  0  0
  4  3  1  6  0  0  0
  4  5  1  0  0  0  0
  4 14  1  0  0  0  0
  5  6  1  0  0  0  0
  5 13  1  6  0  0  0
  6  7  1  0  0  0  0
  6 15  1  1  0  0  0
  7  8  1  0  0  0  0
  7 11  1  1  0  0  0
  8 14  1  0  0  0  0
  8 16  1  1  0  0  0
  9 11  1  0  0  0  0
 17 16  1  1  0  0  0
 17 18  1  0  0  0  0
 17 24  1  0  0  0  0
 18 19  1  0  0  0  0
 18 25  1  6  0  0  0
 19 20  1  0  0  0  0
 19 26  1  1  0  0  0
 20 21  1  0  0  0  0
 20 23  1  1  0  0  0
 21 22  1  1  0  0  0
 21 24  1  0  0  0  0
 22 27  1  0  0  0  0
 28 12  1  1  0  0  0
 28 29  1  0  0  0  0
 28 33  1  0  0  0  0
 29 30  1  0  0  0  0
 29 36  1  1  0  0  0
 30 31  1  0  0  0  0
 30 37  1  1  0  0  0
 31 32  1  0  0  0  0
 31 34  1  6  0  0  0
 32 33  1  0  0  0  0
 33 35  1  6  0  0  0
M  END
>  <CHROM.1>
-82.59566773,-55.54830716,-97.57212278,-133.99938438,60.68251354,144.58635929
18.64906650,-1.41934690,52.34738532,-2.37684090,1.41694718,1.75446101

>  <Name>
2oe8_lig

>  <RI>
0

>  <Rbt.Current_Directory>
/home/itssahil/PROJECTS/Mol_Feturizer/New_Systems/rnas/2oe8

>  <Rbt.Executable>
rbdock ($Id: //depot/dev/client3/rdock/2013.1/src/exe/rbdock.cxx#4 $)

>  <Rbt.Library>
libRbt.so (2013.1, Build901 2013/11/27)

>  <Rbt.Parameter_File>
/export/apps/rDock/src/rDock_2013.1_src/data/scripts/dock_solv.prm

>  <Rbt.Receptor>
prm/pocket_docking_4.prm

>  <SCORE>
-25.6634

>  <SCORE.INTER>
-28.2524

>  <SCORE.INTER.CONST>
1

>  <SCORE.INTER.POLAR>
-2.90301

>  <SCORE.INTER.ROT>
6

>  <SCORE.INTER.SOLV>
18.1479

>  <SCORE.INTER.VDW>
-22.8076

>  <SCORE.INTER.norm>
-0.763579

>  <SCORE.INTRA>
2.58905

>  <SCORE.INTRA.DIHEDRAL>
1.72077

>  <SCORE.INTRA.DIHEDRAL.0>
16.4056

>  <SCORE.INTRA.POLAR>
0

>  <SCORE.INTRA.POLAR.0>
0

>  <SCORE.INTRA.REPUL>
0

>  <SCORE.INTRA.REPUL.0>
0

>  <SCORE.INTRA.SOLV>
1.97945

>  <SCORE.INTRA.SOLV.lig_0>
-90.9627

>  <SCORE.INTRA.VDW>
0.738943

>  <SCORE.INTRA.VDW.0>
-3.28744

>  <SCORE.INTRA.norm>
0.0699743

>  <SCORE.RESTR>
0

>  <SCORE.RESTR.CAVITY>
0

>  <SCORE.RESTR.norm>
0

>  <SCORE.SYSTEM>
0

>  <SCORE.SYSTEM.CONST>
0

>  <SCORE.SYSTEM.DIHEDRAL>
0

>  <SCORE.SYSTEM.SOLV>
0

>  <SCORE.SYSTEM.norm>
0

>  <SCORE.heavy>
37

>  <SCORE.norm>
-0.693604

>  <RMSD>
10.175

$$$$
2oe8_lig
 OpenBabel11021811463D
libRbt.so/2013.1/901 2013/11/27
 37 40  0  0  0  0  0  0  0  0999 V2000
   19.5489   -2.5198   49.3817 C   0  0  1  0  0  0  0  0  0  0  0  0
   20.4843   -3.2452   50.4220 C   0  0  1  0  0  0  0  0  0  0  0  0
   19.9333   -3.0228   51.8459 C   0  0  0  0  0  0  0  0  0  0  0  0
   19.9249   -1.4784   52.0706 C   0  0  1  0  0  0  0  0  0  0  0  0
   18.9866   -0.7191   50.9987 C   0  0  1  0  0  0  0  0  0  0  0  0
   18.9878    0.8242   51.2039 C   0  0  1  0  0  0  0  0  0  0  0  0
   18.4937    1.1033   52.6821 C   0  0  1  0  0  0  0  0  0  0  0  0
   19.4067    0.3093   53.6800 C   0  0  2  0  0  0  0  0  0  0  0  0
   17.6585    3.1344   54.1221 C   0  0  0  0  0  0  0  0  0  0  0  0
   20.5530   -4.7127   50.1323 N   0  0  0  0  0  0  0  0  0  0  0  0
   18.5053    2.5969   52.9961 N   0  0  0  0  0  0  0  0  0  0  0  0
   18.2178   -3.0505   49.4061 O   0  0  0  0  0  0  0  0  0  0  0  0
   19.4623   -1.0540   49.6492 O   0  0  0  0  0  0  0  0  0  0  0  0
   19.4356   -1.1577   53.4066 O   0  0  0  0  0  0  0  0  0  0  0  0
   20.3245    1.2766   50.9819 O   0  0  0  0  0  0  0  0  0  0  0  0
   18.9394    0.5017   54.9652 O   0  0  0  0  0  0  0  0  0  0  0  0
   19.8576    1.2246   55.8025 C   0  0  2  0  0  0  0  0  0  0  0  0
   20.4096    0.3017   56.9157 C   0  0  1  0  0  0  0  0  0  0  0  0
   19.2938   -0.1319   57.9152 C   0  0  2  0  0  0  0  0  0  0  0  0
   18.6535    1.1359   58.5538 C   0  0  1  0  0  0  0  0  0  0  0  0
   18.0410    1.9904   57.3672 C   0  0  1  0  0  0  0  0  0  0  0  0
   17.3926    3.2786   57.8662 C   0  0  0  0  0  0  0  0  0  0  0  0
   17.5865    0.7240   59.5100 N   0  0  0  0  0  0  0  0  0  0  0  0
   19.1511    2.3743   56.4251 O   0  0  0  0  0  0  0  0  0  0  0  0
   21.0222   -0.8295   56.2676 O   0  0  0  0  0  0  0  0  0  0  0  0
   19.8826   -0.9275   58.9225 O   0  0  0  0  0  0  0  0  0  0  0  0
   16.2328    2.9672   58.5921 O   0  0  0  0  0  0  0  0  0  0  0  0
   18.0294   -4.1474   48.5360 C   0  0  1  0  0  0  0  0  0  0  0  0
   17.2004   -5.2333   49.2944 C   0  0  1  0  0  0  0  0  0  0  0  0
   17.0121   -6.4619   48.3573 C   0  0  2  0  0  0  0  0  0  0  0  0
   16.2760   -6.0504   47.0449 C   0  0  1  0  0  0  0  0  0  0  0  0
   17.0998   -4.9466   46.2784 C   0  0  0  0  0  0  0  0  0  0  0  0
   17.2839   -3.6952   47.2336 C   0  0  2  0  0  0  0  0  0  0  0  0
   16.1130   -7.2401   46.1641 N   0  0  0  0  0  0  0  0  0  0  0  0
   18.0547   -2.6626   46.5050 N   0  0  0  0  0  0  0  0  0  0  0  0
   17.8940   -5.6514   50.4849 O   0  0  0  0  0  0  0  0  0  0  0  0
   16.2525   -7.4271   49.0660 O   0  0  0  0  0  0  0  0  0  0  0  0
  1  2  1  0  0  0  0
  1 12  1  1  0  0  0
  1 13  1  0  0  0  0
  2  3  1  0  0  0  0
  2 10  1  6  0  0  0
  4  3  1  6  0  0  0
  4  5  1  0  0  0  0
  4 14  1  0  0  0  0
  5  6  1  0  0  0  0
  5 13  1  6  0  0  0
  6  7  1  0  0  0  0
  6 15  1  1  0  0  0
  7  8  1  0  0  0  0
  7 11  1  1  0  0  0
  8 14  1  0  0  0  0
  8 16  1  1  0  0  0
  9 11  1  0  0  0  0
 17 16  1  6  0  0  0
 17 18  1  0  0  0  0
 17 24  1  0  0  0  0
 18 19  1  0  0  0  0
 18 25  1  6  0  0  0
 19 20  1  0  0  0  0
 19 26  1  1  0  0  0
 20 21  1  0  0  0  0
 20 23  1  1  0  0  0
 21 22  1  1  0  0  0
 21 24  1  0  0  0  0
 22 27  1  0  0  0  0
 28 12  1  1  0  0  0
 28 29  1  0  0  0  0
 28 33  1  0  0  0  0
 29 30  1  0  0  0  0
 29 36  1  1  0  0  0
 30 31  1  0  0  0  0
 30 37  1  1  0  0  0
 31 32  1  0  0  0  0
 31 34  1  6  0  0  0
 32 33  1  0  0  0  0
 33 35  1  6  0  0  0
M  END
>  <CHROM.1>
-88.66843541,159.04406418,-114.42935316,-112.40228088,-69.08298938,136.69680972
18.58736001,-1.39824594,52.51435158,-2.22659647,1.41408917,1.59952031

>  <Name>
2oe8_lig

>  <RI>
0

>  <Rbt.Current_Directory>
/home/itssahil/PROJECTS/Mol_Feturizer/New_Systems/rnas/2oe8

>  <Rbt.Executable>
rbdock ($Id: //depot/dev/client3/rdock/2013.1/src/exe/rbdock.cxx#4 $)

>  <Rbt.Library>
libRbt.so (2013.1, Build901 2013/11/27)

>  <Rbt.Parameter_File>
/export/apps/rDock/src/rDock_2013.1_src/data/scripts/dock_solv.prm

>  <Rbt.Receptor>
prm/pocket_docking_4.prm

>  <SCORE>
-22.1347

>  <SCORE.INTER>
-26.7588

>  <SCORE.INTER.CONST>
1

>  <SCORE.INTER.POLAR>
-2.88464

>  <SCORE.INTER.ROT>
6

>  <SCORE.INTER.SOLV>
18.7889

>  <SCORE.INTER.VDW>
-22.0867

>  <SCORE.INTER.norm>
-0.723211

>  <SCORE.INTRA>
4.62408

>  <SCORE.INTRA.DIHEDRAL>
7.40525

>  <SCORE.INTRA.DIHEDRAL.0>
16.4056

>  <SCORE.INTRA.POLAR>
0

>  <SCORE.INTRA.POLAR.0>
0

>  <SCORE.INTRA.REPUL>
0

>  <SCORE.INTRA.REPUL.0>
0

>  <SCORE.INTRA.SOLV>
1.58447

>  <SCORE.INTRA.SOLV.lig_0>
-90.9627

>  <SCORE.INTRA.VDW>
0.129219

>  <SCORE.INTRA.VDW.0>
-3.28744

>  <SCORE.INTRA.norm>
0.124975

>  <SCORE.RESTR>
0

>  <SCORE.RESTR.CAVITY>
0

>  <SCORE.RESTR.norm>
0

>  <SCORE.SYSTEM>
0

>  <SCORE.SYSTEM.CONST>
0

>  <SCORE.SYSTEM.DIHEDRAL>
0

>  <SCORE.SYSTEM.SOLV>
0

>  <SCORE.SYSTEM.norm>
0

>  <SCORE.heavy>
37

>  <SCORE.norm>
-0.598236

>  <RMSD>
10.189

$$$$
2oe8_lig
 OpenBabel11021811463D
libRbt.so/2013.1/901 2013/11/27
 37 40  0  0  0  0  0  0  0  0999 V2000
   21.0455   -0.1218   52.1902 C   0  0  1  0  0  0  0  0  0  0  0  0
   19.6513    0.3924   51.6656 C   0  0  1  0  0  0  0  0  0  0  0  0
   19.4149    1.8311   52.1703 C   0  0  0  0  0  0  0  0  0  0  0  0
   19.4412    1.7530   53.7289 C   0  0  1  0  0  0  0  0  0  0  0  0
   20.8570    1.2079   54.2805 C   0  0  1  0  0  0  0  0  0  0  0  0
   20.8849    1.1087   55.8340 C   0  0  1  0  0  0  0  0  0  0  0  0
   20.5770    2.5534   56.4040 C   0  0  1  0  0  0  0  0  0  0  0  0
   19.2177    3.0558   55.8043 C   0  0  2  0  0  0  0  0  0  0  0  0
   20.9448    3.7814   58.6961 C   0  0  0  0  0  0  0  0  0  0  0  0
   19.6133    0.3714   50.1688 N   0  0  0  0  0  0  0  0  0  0  0  0
   20.5363    2.5487   57.9297 N   0  0  0  0  0  0  0  0  0  0  0  0
   22.1257    0.6807   51.6970 O   0  0  0  0  0  0  0  0  0  0  0  0
   21.1101   -0.1098   53.6813 O   0  0  0  0  0  0  0  0  0  0  0  0
   19.2054    3.0689   54.3118 O   0  0  0  0  0  0  0  0  0  0  0  0
   19.8941    0.1516   56.2118 O   0  0  0  0  0  0  0  0  0  0  0  0
   18.9779    4.3402   56.2512 O   0  0  0  0  0  0  0  0  0  0  0  0
   17.6425    4.7977   55.9787 C   0  0  2  0  0  0  0  0  0  0  0  0
   17.3474    6.0944   56.7706 C   0  0  1  0  0  0  0  0  0  0  0  0
   17.3218    5.8407   58.3091 C   0  0  2  0  0  0  0  0  0  0  0  0
   16.2410    4.7682   58.6362 C   0  0  1  0  0  0  0  0  0  0  0  0
   16.6504    3.4491   57.8580 C   0  0  1  0  0  0  0  0  0  0  0  0
   15.6518    2.3179   58.0861 C   0  0  0  0  0  0  0  0  0  0  0  0
   16.2145    4.5240   60.1066 N   0  0  0  0  0  0  0  0  0  0  0  0
   16.6729    3.7462   56.3820 O   0  0  0  0  0  0  0  0  0  0  0  0
   18.3510    7.0589   56.3998 O   0  0  0  0  0  0  0  0  0  0  0  0
   16.9999    7.0543   58.9556 O   0  0  0  0  0  0  0  0  0  0  0  0
   16.1473    1.1352   57.5162 O   0  0  0  0  0  0  0  0  0  0  0  0
   23.4001    0.2269   52.1041 C   0  0  1  0  0  0  0  0  0  0  0  0
   23.8070   -0.9697   51.1854 C   0  0  1  0  0  0  0  0  0  0  0  0
   25.1968   -1.5004   51.6435 C   0  0  2  0  0  0  0  0  0  0  0  0
   26.2744   -0.3754   51.5609 C   0  0  1  0  0  0  0  0  0  0  0  0
   25.8666    0.8413   52.4764 C   0  0  0  0  0  0  0  0  0  0  0  0
   24.4542    1.3825   52.0027 C   0  0  2  0  0  0  0  0  0  0  0  0
   27.5919   -0.9056   52.0089 N   0  0  0  0  0  0  0  0  0  0  0  0
   24.0809    2.5266   52.8646 N   0  0  0  0  0  0  0  0  0  0  0  0
   22.8402   -2.0317   51.2894 O   0  0  0  0  0  0  0  0  0  0  0  0
   25.5445   -2.5788   50.7908 O   0  0  0  0  0  0  0  0  0  0  0  0
  1  2  1  0  0  0  0
  1 12  1  6  0  0  0
  1 13  1  0  0  0  0
  2  3  1  0  0  0  0
  2 10  1  6  0  0  0
  4  3  1  6  0  0  0
  4  5  1  0  0  0  0
  4 14  1  0  0  0  0
  5  6  1  0  0  0  0
  5 13  1  6  0  0  0
  6  7  1  0  0  0  0
  6 15  1  1  0  0  0
  7  8  1  0  0  0  0
  7 11  1  1  0  0  0
  8 14  1  0  0  0  0
  8 16  1  1  0  0  0
  9 11  1  0  0  0  0
 17 16  1  1  0  0  0
 17 18  1  0  0  0  0
 17 24  1  0  0  0  0
 18 19  1  0  0  0  0
 18 25  1  1  0  0  0
 19 20  1  0  0  0  0
 19 26  1  1  0  0  0
 20 21  1  0  0  0  0
 20 23  1  1  0  0  0
 21 22  1  6  0  0  0
 21 24  1  0  0  0  0
 22 27  1  0  0  0  0
 28 12  1  6  0  0  0
 28 29  1  0  0  0  0
 28 33  1  0  0  0  0
 29 30  1  0  0  0  0
 29 36  1  1  0  0  0
 30 31  1  0  0  0  0
 30 37  1  6  0  0  0
 31 32  1  0  0  0  0
 31 34  1  1  0  0  0
 32 33  1  0  0  0  0
 33 35  1  1  0  0  0
M  END
>  <CHROM.1>
-177.87453064,149.41536053,-168.44005411,167.41778461,-172.65757210,79.74046550
20.45015488,2.00647696,54.72336240,0.84721485,-0.09286540,-2.34639943

>  <Name>
2oe8_lig

>  <RI>
0

>  <Rbt.Current_Directory>
/home/itssahil/PROJECTS/Mol_Feturizer/New_Systems/rnas/2oe8

>  <Rbt.Executable>
rbdock ($Id: //depot/dev/client3/rdock/2013.1/src/exe/rbdock.cxx#4 $)

>  <Rbt.Library>
libRbt.so (2013.1, Build901 2013/11/27)

>  <Rbt.Parameter_File>
/export/apps/rDock/src/rDock_2013.1_src/data/scripts/dock_solv.prm

>  <Rbt.Receptor>
prm/pocket_docking_8.prm

>  <SCORE>
-24.0136

>  <SCORE.INTER>
-17.1936

>  <SCORE.INTER.CONST>
1

>  <SCORE.INTER.POLAR>
-1.98556

>  <SCORE.INTER.ROT>
6

>  <SCORE.INTER.SOLV>
12.6218

>  <SCORE.INTER.VDW>
-16.6511

>  <SCORE.INTER.norm>
-0.464691

>  <SCORE.INTRA>
-6.82007

>  <SCORE.INTRA.DIHEDRAL>
-12.3595

>  <SCORE.INTRA.DIHEDRAL.0>
16.4056

>  <SCORE.INTRA.POLAR>
0

>  <SCORE.INTRA.POLAR.0>
0

>  <SCORE.INTRA.REPUL>
0.0179153

>  <SCORE.INTRA.REPUL.0>
0

>  <SCORE.INTRA.SOLV>
-2.53781

>  <SCORE.INTRA.SOLV.lig_0>
-90.9627

>  <SCORE.INTRA.VDW>
0.539036

>  <SCORE.INTRA.VDW.0>
-3.28744

>  <SCORE.INTRA.norm>
-0.184326

>  <SCORE.RESTR>
0

>  <SCORE.RESTR.CAVITY>
0

>  <SCORE.RESTR.norm>
0

>  <SCORE.SYSTEM>
0

>  <SCORE.SYSTEM.CONST>
0

>  <SCORE.SYSTEM.DIHEDRAL>
0

>  <SCORE.SYSTEM.SOLV>
0

>  <SCORE.SYSTEM.norm>
0

>  <SCORE.heavy>
37

>  <SCORE.norm>
-0.649017

>  <RMSD>
10.192

$$$$
2oe8_lig
 OpenBabel11021811463D
libRbt.so/2013.1/901 2013/11/27
 37 40  0  0  0  0  0  0  0  0999 V2000
   20.9972   -0.7297   52.3186 C   0  0  1  0  0  0  0  0  0  0  0  0
   19.4368   -0.5593   52.1786 C   0  0  1  0  0  0  0  0  0  0  0  0
   18.9436    0.4865   53.2002 C   0  0  0  0  0  0  0  0  0  0  0  0
   19.3300   -0.0671   54.6073 C   0  0  1  0  0  0  0  0  0  0  0  0
   20.9248   -0.2666   54.7586 C   0  0  1  0  0  0  0  0  0  0  0  0
   21.3172   -0.8368   56.1532 C   0  0  1  0  0  0  0  0  0  0  0  0
   20.7696    0.1704   57.2452 C   0  0  1  0  0  0  0  0  0  0  0  0
   19.2286    0.3653   57.0275 C   0  0  2  0  0  0  0  0  0  0  0  0
   21.1249    0.6486   59.8029 C   0  0  0  0  0  0  0  0  0  0  0  0
   19.0791   -0.1174   50.7933 N   0  0  0  0  0  0  0  0  0  0  0  0
   21.0664   -0.3292   58.6565 N   0  0  0  0  0  0  0  0  0  0  0  0
   21.6907    0.4928   52.0385 O   0  0  0  0  0  0  0  0  0  0  0  0
   21.3808   -1.1693   53.6924 O   0  0  0  0  0  0  0  0  0  0  0  0
   18.8871    0.8447   55.6559 O   0  0  0  0  0  0  0  0  0  0  0  0
   20.7233   -2.1317   56.2599 O   0  0  0  0  0  0  0  0  0  0  0  0
   18.7606    1.2908   57.9393 O   0  0  0  0  0  0  0  0  0  0  0  0
   17.3257    1.3422   58.0127 C   0  0  2  0  0  0  0  0  0  0  0  0
   16.8403    2.8119   58.0081 C   0  0  1  0  0  0  0  0  0  0  0  0
   17.2827    3.5722   59.2959 C   0  0  2  0  0  0  0  0  0  0  0  0
   16.7185    2.8367   60.5473 C   0  0  1  0  0  0  0  0  0  0  0  0
   17.3189    1.3696   60.5294 C   0  0  1  0  0  0  0  0  0  0  0  0
   16.8239    0.5352   61.7073 C   0  0  0  0  0  0  0  0  0  0  0  0
   17.1399    3.5619   61.7799 N   0  0  0  0  0  0  0  0  0  0  0  0
   16.8756    0.6816   59.2654 O   0  0  0  0  0  0  0  0  0  0  0  0
   17.3575    3.4286   56.8135 O   0  0  0  0  0  0  0  0  0  0  0  0
   16.7630    4.8841   59.2394 O   0  0  0  0  0  0  0  0  0  0  0  0
   17.3219   -0.7720   61.5959 O   0  0  0  0  0  0  0  0  0  0  0  0
   23.0498    0.4740   52.4236 C   0  0  1  0  0  0  0  0  0  0  0  0
   23.8547   -0.2998   51.3304 C   0  0  1  0  0  0  0  0  0  0  0  0
   25.3504   -0.3555   51.7580 C   0  0  2  0  0  0  0  0  0  0  0  0
   25.9318    1.0818   51.9297 C   0  0  1  0  0  0  0  0  0  0  0  0
   25.1186    1.8741   53.0232 C   0  0  0  0  0  0  0  0  0  0  0  0
   23.5977    1.9340   52.5810 C   0  0  2  0  0  0  0  0  0  0  0  0
   27.3600    1.0017   52.3437 N   0  0  0  0  0  0  0  0  0  0  0  0
   22.8424    2.6825   53.6108 N   0  0  0  0  0  0  0  0  0  0  0  0
   23.3532   -1.6428   51.1965 O   0  0  0  0  0  0  0  0  0  0  0  0
   26.0576   -1.0553   50.7475 O   0  0  0  0  0  0  0  0  0  0  0  0
  1  2  1  0  0  0  0
  1 12  1  1  0  0  0
  1 13  1  0  0  0  0
  2  3  1  0  0  0  0
  2 10  1  6  0  0  0
  4  3  1  6  0  0  0
  4  5  1  0  0  0  0
  4 14  1  0  0  0  0
  5  6  1  0  0  0  0
  5 13  1  6  0  0  0
  6  7  1  0  0  0  0
  6 15  1  1  0  0  0
  7  8  1  0  0  0  0
  7 11  1  1  0  0  0
  8 14  1  0  0  0  0
  8 16  1  1  0  0  0
  9 11  1  0  0  0  0
 17 16  1  1  0  0  0
 17 18  1  0  0  0  0
 17 24  1  0  0  0  0
 18 19  1  0  0  0  0
 18 25  1  6  0  0  0
 19 20  1  0  0  0  0
 19 26  1  6  0  0  0
 20 21  1  0  0  0  0
 20 23  1  1  0  0  0
 21 22  1  1  0  0  0
 21 24  1  0  0  0  0
 22 27  1  0  0  0  0
 28 12  1  6  0  0  0
 28 29  1  0  0  0  0
 28 33  1  0  0  0  0
 29 30  1  0  0  0  0
 29 36  1  1  0  0  0
 30 31  1  0  0  0  0
 30 37  1  6  0  0  0
 31 32  1  0  0  0  0
 31 34  1  1  0  0  0
 32 33  1  0  0  0  0
 33 35  1  1  0  0  0
M  END
>  <CHROM.1>
167.18912834,156.82825605,-167.94772977,-134.47591736,176.49400384,79.33001821
20.46086112,0.74445207,55.70412922,0.88829240,0.08110689,-1.73216636

>  <Name>
2oe8_lig

>  <RI>
0

>  <Rbt.Current_Directory>
/home/itssahil/PROJECTS/Mol_Feturizer/New_Systems/rnas/2oe8

>  <Rbt.Executable>
rbdock ($Id: //depot/dev/client3/rdock/2013.1/src/exe/rbdock.cxx#4 $)

>  <Rbt.Library>
libRbt.so (2013.1, Build901 2013/11/27)

>  <Rbt.Parameter_File>
/export/apps/rDock/src/rDock_2013.1_src/data/scripts/dock_solv.prm

>  <Rbt.Receptor>
prm/pocket_docking_8.prm

>  <SCORE>
-19.8662

>  <SCORE.INTER>
-15.9682

>  <SCORE.INTER.CONST>
1

>  <SCORE.INTER.POLAR>
-1.72952

>  <SCORE.INTER.ROT>
6

>  <SCORE.INTER.SOLV>
16.8009

>  <SCORE.INTER.VDW>
-18.0807

>  <SCORE.INTER.norm>
-0.431574

>  <SCORE.INTRA>
-3.898

>  <SCORE.INTRA.DIHEDRAL>
-6.53388

>  <SCORE.INTRA.DIHEDRAL.0>
16.4056

>  <SCORE.INTRA.POLAR>
0

>  <SCORE.INTRA.POLAR.0>
0

>  <SCORE.INTRA.REPUL>
0

>  <SCORE.INTRA.REPUL.0>
0

>  <SCORE.INTRA.SOLV>
-2.70047

>  <SCORE.INTRA.SOLV.lig_0>
-90.9627

>  <SCORE.INTRA.VDW>
0.719171

>  <SCORE.INTRA.VDW.0>
-3.28744

>  <SCORE.INTRA.norm>
-0.105351

>  <SCORE.RESTR>
0

>  <SCORE.RESTR.CAVITY>
0

>  <SCORE.RESTR.norm>
0

>  <SCORE.SYSTEM>
0

>  <SCORE.SYSTEM.CONST>
0

>  <SCORE.SYSTEM.DIHEDRAL>
0

>  <SCORE.SYSTEM.SOLV>
0

>  <SCORE.SYSTEM.norm>
0

>  <SCORE.heavy>
37

>  <SCORE.norm>
-0.536925

>  <RMSD>
10.199

$$$$
2oe8_lig
 OpenBabel11021811463D
libRbt.so/2013.1/901 2013/11/27
 37 40  0  0  0  0  0  0  0  0999 V2000
   19.4979   -2.4259   49.3145 C   0  0  1  0  0  0  0  0  0  0  0  0
   20.5012   -3.1205   50.3116 C   0  0  1  0  0  0  0  0  0  0  0  0
   19.9712   -2.9749   51.7533 C   0  0  0  0  0  0  0  0  0  0  0  0
   19.8715   -1.4412   52.0251 C   0  0  1  0  0  0  0  0  0  0  0  0
   18.8624   -0.7121   50.9974 C   0  0  1  0  0  0  0  0  0  0  0  0
   18.7718    0.8216   51.2495 C   0  0  1  0  0  0  0  0  0  0  0  0
   18.2964    1.0259   52.7459 C   0  0  1  0  0  0  0  0  0  0  0  0
   19.2806    0.2626   53.6991 C   0  0  2  0  0  0  0  0  0  0  0  0
   19.4525    3.3712   52.9901 C   0  0  0  0  0  0  0  0  0  0  0  0
   20.6548   -4.5717   49.9760 N   0  0  0  0  0  0  0  0  0  0  0  0
   18.2218    2.5074   53.1049 N   0  0  0  0  0  0  0  0  0  0  0  0
   18.2037   -3.0403   49.3518 O   0  0  0  0  0  0  0  0  0  0  0  0
   19.3261   -0.9769   49.6283 O   0  0  0  0  0  0  0  0  0  0  0  0
   19.3948   -1.1911   53.3806 O   0  0  0  0  0  0  0  0  0  0  0  0
   20.0719    1.3639   51.0123 O   0  0  0  0  0  0  0  0  0  0  0  0
   18.8327    0.3876   54.9994 O   0  0  0  0  0  0  0  0  0  0  0  0
   19.4552    1.4684   55.7145 C   0  0  2  0  0  0  0  0  0  0  0  0
   20.2566    0.9226   56.9209 C   0  0  1  0  0  0  0  0  0  0  0  0
   19.3235    0.2852   57.9957 C   0  0  2  0  0  0  0  0  0  0  0  0
   18.2987    1.3508   58.4849 C   0  0  1  0  0  0  0  0  0  0  0  0
   17.4632    1.8036   57.2159 C   0  0  1  0  0  0  0  0  0  0  0  0
   16.4264    2.8678   57.5643 C   0  0  0  0  0  0  0  0  0  0  0  0
   17.4055    0.7440   59.5128 N   0  0  0  0  0  0  0  0  0  0  0  0
   18.4060    2.3998   56.2044 O   0  0  0  0  0  0  0  0  0  0  0  0
   21.2115   -0.0249   56.4057 O   0  0  0  0  0  0  0  0  0  0  0  0
   20.1204   -0.1428   59.0802 O   0  0  0  0  0  0  0  0  0  0  0  0
   17.0771    4.0141   58.0457 O   0  0  0  0  0  0  0  0  0  0  0  0
   18.0707   -4.1348   48.4686 C   0  0  1  0  0  0  0  0  0  0  0  0
   17.2467   -5.2474   49.1931 C   0  0  1  0  0  0  0  0  0  0  0  0
   17.1194   -6.4731   48.2421 C   0  0  2  0  0  0  0  0  0  0  0  0
   16.4140   -6.0704   46.9102 C   0  0  1  0  0  0  0  0  0  0  0  0
   17.2326   -4.9400   46.1775 C   0  0  0  0  0  0  0  0  0  0  0  0
   17.3546   -3.6918   47.1467 C   0  0  2  0  0  0  0  0  0  0  0  0
   16.3093   -7.2570   46.0165 N   0  0  0  0  0  0  0  0  0  0  0  0
   18.1208   -2.6342   46.4497 N   0  0  0  0  0  0  0  0  0  0  0  0
   17.9136   -5.6569   50.4018 O   0  0  0  0  0  0  0  0  0  0  0  0
   16.3632   -7.4629   48.9200 O   0  0  0  0  0  0  0  0  0  0  0  0
  1  2  1  0  0  0  0
  1 12  1  1  0  0  0
  1 13  1  0  0  0  0
  2  3  1  0  0  0  0
  2 10  1  6  0  0  0
  4  3  1  6  0  0  0
  4  5  1  0  0  0  0
  4 14  1  0  0  0  0
  5  6  1  0  0  0  0
  5 13  1  6  0  0  0
  6  7  1  0  0  0  0
  6 15  1  1  0  0  0
  7  8  1  0  0  0  0
  7 11  1  1  0  0  0
  8 14  1  0  0  0  0
  8 16  1  1  0  0  0
  9 11  1  0  0  0  0
 17 16  1  1  0  0  0
 17 18  1  0  0  0  0
 17 24  1  0  0  0  0
 18 19  1  0  0  0  0
 18 25  1  6  0  0  0
 19 20  1  0  0  0  0
 19 26  1  1  0  0  0
 20 21  1  0  0  0  0
 20 23  1  1  0  0  0
 21 22  1  1  0  0  0
 21 24  1  0  0  0  0
 22 27  1  0  0  0  0
 28 12  1  1  0  0  0
 28 29  1  0  0  0  0
 28 33  1  0  0  0  0
 29 30  1  0  0  0  0
 29 36  1  1  0  0  0
 30 31  1  0  0  0  0
 30 37  1  1  0  0  0
 31 32  1  0  0  0  0
 31 34  1  6  0  0  0
 32 33  1  0  0  0  0
 33 35  1  6  0  0  0
M  END
>  <CHROM.1>
-87.69984301,-58.38623683,-95.25848242,-117.43185674,62.00788999,140.17951445
18.57324975,-1.28283606,52.41910107,-2.05285199,1.38424209,1.40754333

>  <Name>
2oe8_lig

>  <RI>
0

>  <Rbt.Current_Directory>
/home/itssahil/PROJECTS/Mol_Feturizer/New_Systems/rnas/2oe8

>  <Rbt.Executable>
rbdock ($Id: //depot/dev/client3/rdock/2013.1/src/exe/rbdock.cxx#4 $)

>  <Rbt.Library>
libRbt.so (2013.1, Build901 2013/11/27)

>  <Rbt.Parameter_File>
/export/apps/rDock/src/rDock_2013.1_src/data/scripts/dock_solv.prm

>  <Rbt.Receptor>
prm/pocket_docking_4.prm

>  <SCORE>
-25.6927

>  <SCORE.INTER>
-28.9991

>  <SCORE.INTER.CONST>
1

>  <SCORE.INTER.POLAR>
-2.90387

>  <SCORE.INTER.ROT>
6

>  <SCORE.INTER.SOLV>
18.0478

>  <SCORE.INTER.VDW>
-23.2691

>  <SCORE.INTER.norm>
-0.783758

>  <SCORE.INTRA>
3.30637

>  <SCORE.INTRA.DIHEDRAL>
3.88796

>  <SCORE.INTRA.DIHEDRAL.0>
16.4056

>  <SCORE.INTRA.POLAR>
0

>  <SCORE.INTRA.POLAR.0>
0

>  <SCORE.INTRA.REPUL>
0

>  <SCORE.INTRA.REPUL.0>
0

>  <SCORE.INTRA.SOLV>
1.49904

>  <SCORE.INTRA.SOLV.lig_0>
-90.9627

>  <SCORE.INTRA.VDW>
0.612866

>  <SCORE.INTRA.VDW.0>
-3.28744

>  <SCORE.INTRA.norm>
0.0893613

>  <SCORE.RESTR>
0

>  <SCORE.RESTR.CAVITY>
0

>  <SCORE.RESTR.norm>
0

>  <SCORE.SYSTEM>
0

>  <SCORE.SYSTEM.CONST>
0

>  <SCORE.SYSTEM.DIHEDRAL>
0

>  <SCORE.SYSTEM.SOLV>
0

>  <SCORE.SYSTEM.norm>
0

>  <SCORE.heavy>
37

>  <SCORE.norm>
-0.694397

>  <RMSD>
10.215

$$$$
2oe8_lig
 OpenBabel11021811463D
libRbt.so/2013.1/901 2013/11/27
 37 40  0  0  0  0  0  0  0  0999 V2000
   20.8186   -2.3232   50.9123 C   0  0  1  0  0  0  0  0  0  0  0  0
   22.1301   -2.6458   51.7241 C   0  0  1  0  0  0  0  0  0  0  0  0
   21.7945   -2.7192   53.2283 C   0  0  0  0  0  0  0  0  0  0  0  0
   21.2190   -1.3202   53.6122 C   0  0  1  0  0  0  0  0  0  0  0  0
   19.8859   -0.9667   52.7732 C   0  0  1  0  0  0  0  0  0  0  0  0
   19.3161    0.4359   53.1365 C   0  0  1  0  0  0  0  0  0  0  0  0
   19.0191    0.4354   54.6918 C   0  0  1  0  0  0  0  0  0  0  0  0
   20.3300    0.0427   55.4580 C   0  0  2  0  0  0  0  0  0  0  0  0
   19.4075    2.9946   55.1346 C   0  0  0  0  0  0  0  0  0  0  0  0
   22.7185   -3.9477   51.2756 N   0  0  0  0  0  0  0  0  0  0  0  0
   18.4972    1.7927   55.1553 N   0  0  0  0  0  0  0  0  0  0  0  0
   19.8300   -3.3482   51.0740 O   0  0  0  0  0  0  0  0  0  0  0  0
   20.2109   -1.0293   51.3414 O   0  0  0  0  0  0  0  0  0  0  0  0
   20.8851   -1.2755   55.0313 O   0  0  0  0  0  0  0  0  0  0  0  0
   20.3059    1.3990   52.7714 O   0  0  0  0  0  0  0  0  0  0  0  0
   20.0574   -0.0190   56.8104 O   0  0  0  0  0  0  0  0  0  0  0  0
   21.1895   -0.4183   57.6016 C   0  0  2  0  0  0  0  0  0  0  0  0
   20.8295   -0.3888   59.1066 C   0  0  1  0  0  0  0  0  0  0  0  0
   20.5486    1.0614   59.6070 C   0  0  2  0  0  0  0  0  0  0  0  0
   21.8035    1.9469   59.3497 C   0  0  1  0  0  0  0  0  0  0  0  0
   22.0635    1.9348   57.7859 C   0  0  1  0  0  0  0  0  0  0  0  0
   23.2881    2.7614   57.4038 C   0  0  0  0  0  0  0  0  0  0  0  0
   21.5375    3.3338   59.8274 N   0  0  0  0  0  0  0  0  0  0  0  0
   22.3171    0.5162   57.3493 O   0  0  0  0  0  0  0  0  0  0  0  0
   19.6915   -1.2525   59.2904 O   0  0  0  0  0  0  0  0  0  0  0  0
   20.2771    1.0101   60.9919 O   0  0  0  0  0  0  0  0  0  0  0  0
   23.0454    4.1142   57.6870 O   0  0  0  0  0  0  0  0  0  0  0  0
   19.3416   -3.8619   49.8519 C   0  0  1  0  0  0  0  0  0  0  0  0
   18.4449   -5.1017   50.1688 C   0  0  1  0  0  0  0  0  0  0  0  0
   17.9251   -5.6972   48.8279 C   0  0  2  0  0  0  0  0  0  0  0  0
   17.1044   -4.6363   48.0314 C   0  0  1  0  0  0  0  0  0  0  0  0
   17.9980   -3.3765   47.7168 C   0  0  0  0  0  0  0  0  0  0  0  0
   18.5201   -2.7696   49.0847 C   0  0  2  0  0  0  0  0  0  0  0  0
   16.6234   -5.2276   46.7521 N   0  0  0  0  0  0  0  0  0  0  0  0
   19.3547   -1.5855   48.7804 N   0  0  0  0  0  0  0  0  0  0  0  0
   19.2069   -6.1054   50.8654 O   0  0  0  0  0  0  0  0  0  0  0  0
   17.1104   -6.8141   49.1440 O   0  0  0  0  0  0  0  0  0  0  0  0
  1  2  1  0  0  0  0
  1 12  1  1  0  0  0
  1 13  1  0  0  0  0
  2  3  1  0  0  0  0
  2 10  1  6  0  0  0
  4  3  1  6  0  0  0
  4  5  1  0  0  0  0
  4 14  1  0  0  0  0
  5  6  1  0  0  0  0
  5 13  1  6  0  0  0
  6  7  1  0  0  0  0
  6 15  1  1  0  0  0
  7  8  1  0  0  0  0
  7 11  1  1  0  0  0
  8 14  1  0  0  0  0
  8 16  1  1  0  0  0
  9 11  1  0  0  0  0
 17 16  1  6  0  0  0
 17 18  1  0  0  0  0
 17 24  1  0  0  0  0
 18 19  1  0  0  0  0
 18 25  1  6  0  0  0
 19 20  1  0  0  0  0
 19 26  1  1  0  0  0
 20 21  1  0  0  0  0
 20 23  1  6  0  0  0
 21 22  1  1  0  0  0
 21 24  1  0  0  0  0
 22 27  1  0  0  0  0
 28 12  1  1  0  0  0
 28 29  1  0  0  0  0
 28 33  1  0  0  0  0
 29 30  1  0  0  0  0
 29 36  1  6  0  0  0
 30 31  1  0  0  0  0
 30 37  1  1  0  0  0
 31 32  1  0  0  0  0
 31 34  1  6  0  0  0
 32 33  1  0  0  0  0
 33 35  1  6  0  0  0
M  END
>  <CHROM.1>
-126.87333666,-67.63733499,177.99260443,176.89035308,-65.72649518,171.64521688
20.13329253,-1.14694810,53.81476072,-2.69571652,1.30170296,2.10336138

>  <Name>
2oe8_lig

>  <RI>
0

>  <Rbt.Current_Directory>
/home/itssahil/PROJECTS/Mol_Feturizer/New_Systems/rnas/2oe8

>  <Rbt.Executable>
rbdock ($Id: //depot/dev/client3/rdock/2013.1/src/exe/rbdock.cxx#4 $)

>  <Rbt.Library>
libRbt.so (2013.1, Build901 2013/11/27)

>  <Rbt.Parameter_File>
/export/apps/rDock/src/rDock_2013.1_src/data/scripts/dock_solv.prm

>  <Rbt.Receptor>
prm/pocket_docking_5.prm

>  <SCORE>
-16.9155

>  <SCORE.INTER>
-14.9852

>  <SCORE.INTER.CONST>
1

>  <SCORE.INTER.POLAR>
-0.835434

>  <SCORE.INTER.ROT>
6

>  <SCORE.INTER.SOLV>
16.8875

>  <SCORE.INTER.VDW>
-20.4345

>  <SCORE.INTER.norm>
-0.405005

>  <SCORE.INTRA>
-1.95923

>  <SCORE.INTRA.DIHEDRAL>
-8.84733

>  <SCORE.INTRA.DIHEDRAL.0>
16.4056

>  <SCORE.INTRA.POLAR>
0

>  <SCORE.INTRA.POLAR.0>
0

>  <SCORE.INTRA.REPUL>
0

>  <SCORE.INTRA.REPUL.0>
0

>  <SCORE.INTRA.SOLV>
0.168026

>  <SCORE.INTRA.SOLV.lig_0>
-90.9627

>  <SCORE.INTRA.VDW>
2.38042

>  <SCORE.INTRA.VDW.0>
-3.28744

>  <SCORE.INTRA.norm>
-0.0529521

>  <SCORE.RESTR>
0.0289349

>  <SCORE.RESTR.CAVITY>
0.0289349

>  <SCORE.RESTR.norm>
0.000782025

>  <SCORE.SYSTEM>
0

>  <SCORE.SYSTEM.CONST>
0

>  <SCORE.SYSTEM.DIHEDRAL>
0

>  <SCORE.SYSTEM.SOLV>
0

>  <SCORE.SYSTEM.norm>
0

>  <SCORE.heavy>
37

>  <SCORE.norm>
-0.457175

>  <RMSD>
10.217

$$$$
2oe8_lig
 OpenBabel11021811463D
libRbt.so/2013.1/901 2013/11/27
 37 40  0  0  0  0  0  0  0  0999 V2000
   16.5508   -5.1305   45.9447 C   0  0  1  0  0  0  0  0  0  0  0  0
   16.3579   -3.6013   45.6161 C   0  0  1  0  0  0  0  0  0  0  0  0
   17.6610   -2.8412   45.9396 C   0  0  0  0  0  0  0  0  0  0  0  0
   17.9268   -3.0656   47.4611 C   0  0  1  0  0  0  0  0  0  0  0  0
   18.1061   -4.6301   47.8165 C   0  0  1  0  0  0  0  0  0  0  0  0
   18.3527   -4.8643   49.3358 C   0  0  1  0  0  0  0  0  0  0  0  0
   19.6469   -4.0441   49.7351 C   0  0  1  0  0  0  0  0  0  0  0  0
   19.4412   -2.5433   49.3288 C   0  0  2  0  0  0  0  0  0  0  0  0
   21.2579   -3.6748   51.7758 C   0  0  0  0  0  0  0  0  0  0  0  0
   16.0115   -3.4144   44.1714 N   0  0  0  0  0  0  0  0  0  0  0  0
   19.9455   -4.1739   51.2262 N   0  0  0  0  0  0  0  0  0  0  0  0
   17.5891   -5.7162   45.1490 O   0  0  0  0  0  0  0  0  0  0  0  0
   16.8983   -5.3445   47.3803 O   0  0  0  0  0  0  0  0  0  0  0  0
   19.1364   -2.3658   47.8785 O   0  0  0  0  0  0  0  0  0  0  0  0
   17.1865   -4.4113   50.0255 O   0  0  0  0  0  0  0  0  0  0  0  0
   20.5926   -1.8383   49.6193 O   0  0  0  0  0  0  0  0  0  0  0  0
   20.5096   -0.4453   49.2736 C   0  0  2  0  0  0  0  0  0  0  0  0
   21.8967    0.2265   49.4161 C   0  0  1  0  0  0  0  0  0  0  0  0
   22.3728    0.2636   50.9007 C   0  0  2  0  0  0  0  0  0  0  0  0
   21.3256    1.0339   51.7581 C   0  0  1  0  0  0  0  0  0  0  0  0
   19.9555    0.2469   51.6291 C   0  0  1  0  0  0  0  0  0  0  0  0
   18.8348    0.9173   52.4187 C   0  0  0  0  0  0  0  0  0  0  0  0
   21.7786    1.0709   53.1779 N   0  0  0  0  0  0  0  0  0  0  0  0
   19.5439    0.2276   50.1807 O   0  0  0  0  0  0  0  0  0  0  0  0
   22.8118   -0.5008   48.5744 O   0  0  0  0  0  0  0  0  0  0  0  0
   23.6160    0.9314   50.9534 O   0  0  0  0  0  0  0  0  0  0  0  0
   17.7297    0.0550   52.4853 O   0  0  0  0  0  0  0  0  0  0  0  0
   17.4712   -7.1167   45.0061 C   0  0  1  0  0  0  0  0  0  0  0  0
   17.7373   -7.7722   46.3994 C   0  0  1  0  0  0  0  0  0  0  0  0
   17.6416   -9.3186   46.2497 C   0  0  2  0  0  0  0  0  0  0  0  0
   16.2342   -9.7386   45.7239 C   0  0  1  0  0  0  0  0  0  0  0  0
   15.9522   -9.0728   44.3232 C   0  0  0  0  0  0  0  0  0  0  0  0
   16.0444   -7.4984   44.4814 C   0  0  2  0  0  0  0  0  0  0  0  0
   16.1697  -11.2198   45.5842 N   0  0  0  0  0  0  0  0  0  0  0  0
   15.7747   -6.8814   43.1631 N   0  0  0  0  0  0  0  0  0  0  0  0
   19.0524   -7.4257   46.8723 O   0  0  0  0  0  0  0  0  0  0  0  0
   17.8797   -9.8869   47.5269 O   0  0  0  0  0  0  0  0  0  0  0  0
  1  2  1  0  0  0  0
  1 12  1  6  0  0  0
  1 13  1  0  0  0  0
  2  3  1  0  0  0  0
  2 10  1  6  0  0  0
  4  3  1  6  0  0  0
  4  5  1  0  0  0  0
  4 14  1  0  0  0  0
  5  6  1  0  0  0  0
  5 13  1  1  0  0  0
  6  7  1  0  0  0  0
  6 15  1  1  0  0  0
  7  8  1  0  0  0  0
  7 11  1  1  0  0  0
  8 14  1  0  0  0  0
  8 16  1  6  0  0  0
  9 11  1  0  0  0  0
 17 16  1  1  0  0  0
 17 18  1  0  0  0  0
 17 24  1  0  0  0  0
 18 19  1  0  0  0  0
 18 25  1  6  0  0  0
 19 20  1  0  0  0  0
 19 26  1  6  0  0  0
 20 21  1  0  0  0  0
 20 23  1  1  0  0  0
 21 22  1  1  0  0  0
 21 24  1  0  0  0  0
 22 27  1  0  0  0  0
 28 12  1  1  0  0  0
 28 29  1  0  0  0  0
 28 33  1  0  0  0  0
 29 30  1  0  0  0  0
 29 36  1  6  0  0  0
 30 31  1  0  0  0  0
 30 37  1  1  0  0  0
 31 32  1  0  0  0  0
 31 34  1  6  0  0  0
 32 33  1  0  0  0  0
 33 35  1  6  0  0  0
M  END
>  <CHROM.1>
-156.80926873,169.38616450,179.59345494,-171.06332983,-168.61186414,-68.07911549
18.75877645,-3.85150070,48.26711601,2.44678818,1.02776470,2.95853916

>  <Name>
2oe8_lig

>  <RI>
0

>  <Rbt.Current_Directory>
/home/itssahil/PROJECTS/Mol_Feturizer/New_Systems/rnas/2oe8

>  <Rbt.Executable>
rbdock ($Id: //depot/dev/client3/rdock/2013.1/src/exe/rbdock.cxx#4 $)

>  <Rbt.Library>
libRbt.so (2013.1, Build901 2013/11/27)

>  <Rbt.Parameter_File>
/export/apps/rDock/src/rDock_2013.1_src/data/scripts/dock_solv.prm

>  <Rbt.Receptor>
prm/pocket_docking_8.prm

>  <SCORE>
-24.5354

>  <SCORE.INTER>
-19.5087

>  <SCORE.INTER.CONST>
1

>  <SCORE.INTER.POLAR>
-2.19425

>  <SCORE.INTER.ROT>
6

>  <SCORE.INTER.SOLV>
12.3879

>  <SCORE.INTER.VDW>
-17.421

>  <SCORE.INTER.norm>
-0.527263

>  <SCORE.INTRA>
-5.02664

>  <SCORE.INTRA.DIHEDRAL>
-12.7592

>  <SCORE.INTRA.DIHEDRAL.0>
16.4056

>  <SCORE.INTRA.POLAR>
0

>  <SCORE.INTRA.POLAR.0>
0

>  <SCORE.INTRA.REPUL>
0

>  <SCORE.INTRA.REPUL.0>
0

>  <SCORE.INTRA.SOLV>
-1.10257

>  <SCORE.INTRA.SOLV.lig_0>
-90.9627

>  <SCORE.INTRA.VDW>
1.90426

>  <SCORE.INTRA.VDW.0>
-3.28744

>  <SCORE.INTRA.norm>
-0.135855

>  <SCORE.RESTR>
0

>  <SCORE.RESTR.CAVITY>
0

>  <SCORE.RESTR.norm>
0

>  <SCORE.SYSTEM>
0

>  <SCORE.SYSTEM.CONST>
0

>  <SCORE.SYSTEM.DIHEDRAL>
0

>  <SCORE.SYSTEM.SOLV>
0

>  <SCORE.SYSTEM.norm>
0

>  <SCORE.heavy>
37

>  <SCORE.norm>
-0.663118

>  <RMSD>
10.217

$$$$
2oe8_lig
 OpenBabel11021811463D
libRbt.so/2013.1/901 2013/11/27
 37 40  0  0  0  0  0  0  0  0999 V2000
   21.4831   -2.6938   50.4703 C   0  0  1  0  0  0  0  0  0  0  0  0
   22.8868   -2.7128   51.1863 C   0  0  1  0  0  0  0  0  0  0  0  0
   22.6816   -2.6466   52.7141 C   0  0  0  0  0  0  0  0  0  0  0  0
   21.9210   -1.3123   52.9914 C   0  0  1  0  0  0  0  0  0  0  0  0
   20.4892   -1.2696   52.2470 C   0  0  1  0  0  0  0  0  0  0  0  0
   19.7321    0.0665   52.5030 C   0  0  1  0  0  0  0  0  0  0  0  0
   19.5571    0.2164   54.0695 C   0  0  1  0  0  0  0  0  0  0  0  0
   20.9679    0.1228   54.7482 C   0  0  2  0  0  0  0  0  0  0  0  0
   19.4807    2.8409   54.0169 C   0  0  0  0  0  0  0  0  0  0  0  0
   23.6397   -3.9580   50.8330 N   0  0  0  0  0  0  0  0  0  0  0  0
   18.8619    1.5278   54.4252 N   0  0  0  0  0  0  0  0  0  0  0  0
   20.6857   -3.8265   50.8379 O   0  0  0  0  0  0  0  0  0  0  0  0
   20.7110   -1.4617   50.8071 O   0  0  0  0  0  0  0  0  0  0  0  0
   21.6923   -1.1407   54.4215 O   0  0  0  0  0  0  0  0  0  0  0  0
   20.5253    1.1133   51.9409 O   0  0  0  0  0  0  0  0  0  0  0  0
   20.8115    0.1908   56.1186 O   0  0  0  0  0  0  0  0  0  0  0  0
   22.0570    0.2914   56.8295 C   0  0  2  0  0  0  0  0  0  0  0  0
   21.8923   -0.2303   58.2774 C   0  0  1  0  0  0  0  0  0  0  0  0
   20.9389    0.6761   59.1149 C   0  0  2  0  0  0  0  0  0  0  0  0
   21.5002    2.1285   59.1407 C   0  0  1  0  0  0  0  0  0  0  0  0
   21.5655    2.6242   57.6363 C   0  0  1  0  0  0  0  0  0  0  0  0
   22.1196    4.0418   57.5253 C   0  0  0  0  0  0  0  0  0  0  0  0
   20.5904    2.9970   59.9411 N   0  0  0  0  0  0  0  0  0  0  0  0
   22.4858    1.7138   56.8672 O   0  0  0  0  0  0  0  0  0  0  0  0
   21.4104   -1.5850   58.1908 O   0  0  0  0  0  0  0  0  0  0  0  0
   20.8791    0.1647   60.4299 O   0  0  0  0  0  0  0  0  0  0  0  0
   23.4656    4.0497   57.9221 O   0  0  0  0  0  0  0  0  0  0  0  0
   19.9136   -4.3447   49.7743 C   0  0  1  0  0  0  0  0  0  0  0  0
   20.7178   -5.5088   49.1111 C   0  0  1  0  0  0  0  0  0  0  0  0
   19.8917   -6.0687   47.9166 C   0  0  2  0  0  0  0  0  0  0  0  0
   18.5023   -6.5888   48.3990 C   0  0  1  0  0  0  0  0  0  0  0  0
   17.6879   -5.4234   49.0797 C   0  0  0  0  0  0  0  0  0  0  0  0
   18.5296   -4.8604   50.2990 C   0  0  2  0  0  0  0  0  0  0  0  0
   17.7300   -7.1135   47.2388 N   0  0  0  0  0  0  0  0  0  0  0  0
   17.7564   -3.7698   50.9345 N   0  0  0  0  0  0  0  0  0  0  0  0
   21.9840   -5.0275   48.6230 O   0  0  0  0  0  0  0  0  0  0  0  0
   20.6395   -7.1258   47.3384 O   0  0  0  0  0  0  0  0  0  0  0  0
  1  2  1  0  0  0  0
  1 12  1  1  0  0  0
  1 13  1  0  0  0  0
  2  3  1  0  0  0  0
  2 10  1  1  0  0  0
  4  3  1  1  0  0  0
  4  5  1  0  0  0  0
  4 14  1  0  0  0  0
  5  6  1  0  0  0  0
  5 13  1  6  0  0  0
  6  7  1  0  0  0  0
  6 15  1  1  0  0  0
  7  8  1  0  0  0  0
  7 11  1  6  0  0  0
  8 14  1  0  0  0  0
  8 16  1  1  0  0  0
  9 11  1  0  0  0  0
 17 16  1  6  0  0  0
 17 18  1  0  0  0  0
 17 24  1  0  0  0  0
 18 19  1  0  0  0  0
 18 25  1  6  0  0  0
 19 20  1  0  0  0  0
 19 26  1  1  0  0  0
 20 21  1  0  0  0  0
 20 23  1  1  0  0  0
 21 22  1  1  0  0  0
 21 24  1  0  0  0  0
 22 27  1  0  0  0  0
 28 12  1  1  0  0  0
 28 29  1  0  0  0  0
 28 33  1  0  0  0  0
 29 30  1  0  0  0  0
 29 36  1  6  0  0  0
 30 31  1  0  0  0  0
 30 37  1  1  0  0  0
 31 32  1  0  0  0  0
 31 34  1  6  0  0  0
 32 33  1  0  0  0  0
 33 35  1  6  0  0  0
M  END
>  <CHROM.1>
-142.60868490,-59.40703104,-172.25262750,-155.93334360,66.28298718,94.52825724
20.79161269,-1.42781371,53.40667473,1.80067466,0.91828677,-2.42537465

>  <Name>
2oe8_lig

>  <RI>
0

>  <Rbt.Current_Directory>
/home/itssahil/PROJECTS/Mol_Feturizer/New_Systems/rnas/2oe8

>  <Rbt.Executable>
rbdock ($Id: //depot/dev/client3/rdock/2013.1/src/exe/rbdock.cxx#4 $)

>  <Rbt.Library>
libRbt.so (2013.1, Build901 2013/11/27)

>  <Rbt.Parameter_File>
/export/apps/rDock/src/rDock_2013.1_src/data/scripts/dock_solv.prm

>  <Rbt.Receptor>
prm/pocket_docking_7.prm

>  <SCORE>
-12.1978

>  <SCORE.INTER>
-10.9011

>  <SCORE.INTER.CONST>
1

>  <SCORE.INTER.POLAR>
-1.18284

>  <SCORE.INTER.ROT>
6

>  <SCORE.INTER.SOLV>
14.7877

>  <SCORE.INTER.VDW>
-15.8538

>  <SCORE.INTER.norm>
-0.294625

>  <SCORE.INTRA>
-1.29665

>  <SCORE.INTRA.DIHEDRAL>
-4.0445

>  <SCORE.INTRA.DIHEDRAL.0>
16.4056

>  <SCORE.INTRA.POLAR>
0

>  <SCORE.INTRA.POLAR.0>
0

>  <SCORE.INTRA.REPUL>
0

>  <SCORE.INTRA.REPUL.0>
0

>  <SCORE.INTRA.SOLV>
-0.343481

>  <SCORE.INTRA.SOLV.lig_0>
-90.9627

>  <SCORE.INTRA.VDW>
0.897339

>  <SCORE.INTRA.VDW.0>
-3.28744

>  <SCORE.INTRA.norm>
-0.0350447

>  <SCORE.RESTR>
0

>  <SCORE.RESTR.CAVITY>
0

>  <SCORE.RESTR.norm>
0

>  <SCORE.SYSTEM>
0

>  <SCORE.SYSTEM.CONST>
0

>  <SCORE.SYSTEM.DIHEDRAL>
0

>  <SCORE.SYSTEM.SOLV>
0

>  <SCORE.SYSTEM.norm>
0

>  <SCORE.heavy>
37

>  <SCORE.norm>
-0.329669

>  <RMSD>
10.233

$$$$
2oe8_lig
 OpenBabel11021811463D
libRbt.so/2013.1/901 2013/11/27
 37 40  0  0  0  0  0  0  0  0999 V2000
   21.6653   -2.9430   51.2312 C   0  0  1  0  0  0  0  0  0  0  0  0
   22.9128   -3.0850   52.1835 C   0  0  1  0  0  0  0  0  0  0  0  0
   22.4405   -3.0529   53.6520 C   0  0  0  0  0  0  0  0  0  0  0  0
   21.7303   -1.6770   53.8483 C   0  0  1  0  0  0  0  0  0  0  0  0
   20.4618   -1.5085   52.8642 C   0  0  1  0  0  0  0  0  0  0  0  0
   19.7589   -0.1305   53.0403 C   0  0  1  0  0  0  0  0  0  0  0  0
   19.3146   -0.0183   54.5559 C   0  0  1  0  0  0  0  0  0  0  0  0
   20.5710   -0.2340   55.4696 C   0  0  2  0  0  0  0  0  0  0  0  0
   19.5012    2.5656   54.9865 C   0  0  0  0  0  0  0  0  0  0  0  0
   23.6349   -4.3690   51.9150 N   0  0  0  0  0  0  0  0  0  0  0  0
   18.6531    1.3275   54.8399 N   0  0  0  0  0  0  0  0  0  0  0  0
   20.7432   -4.0269   51.4011 O   0  0  0  0  0  0  0  0  0  0  0  0
   20.9264   -1.6702   51.4795 O   0  0  0  0  0  0  0  0  0  0  0  0
   21.2592   -1.5350   55.2213 O   0  0  0  0  0  0  0  0  0  0  0  0
   20.7063    0.8742   52.6747 O   0  0  0  0  0  0  0  0  0  0  0  0
   20.1751   -0.1985   56.7921 O   0  0  0  0  0  0  0  0  0  0  0  0
   21.2461   -0.4616   57.7143 C   0  0  2  0  0  0  0  0  0  0  0  0
   20.7516   -0.2986   59.1718 C   0  0  1  0  0  0  0  0  0  0  0  0
   20.3705    1.1792   59.4926 C   0  0  2  0  0  0  0  0  0  0  0  0
   21.6080    2.0936   59.2526 C   0  0  1  0  0  0  0  0  0  0  0  0
   22.0077    1.9372   57.7265 C   0  0  1  0  0  0  0  0  0  0  0  0
   23.2285    2.7792   57.3663 C   0  0  0  0  0  0  0  0  0  0  0  0
   21.2463    3.5071   59.5589 N   0  0  0  0  0  0  0  0  0  0  0  0
   22.3546    0.4958   57.4632 O   0  0  0  0  0  0  0  0  0  0  0  0
   19.6362   -1.1932   59.3467 O   0  0  0  0  0  0  0  0  0  0  0  0
   19.9780    1.2541   60.8471 O   0  0  0  0  0  0  0  0  0  0  0  0
   22.9137    4.1400   57.5010 O   0  0  0  0  0  0  0  0  0  0  0  0
   20.1546   -4.4643   50.1936 C   0  0  1  0  0  0  0  0  0  0  0  0
   20.9446   -5.7160   49.6926 C   0  0  1  0  0  0  0  0  0  0  0  0
   20.3259   -6.1900   48.3452 C   0  0  2  0  0  0  0  0  0  0  0  0
   18.8181   -6.5483   48.5232 C   0  0  1  0  0  0  0  0  0  0  0  0
   18.0148   -5.2941   49.0393 C   0  0  0  0  0  0  0  0  0  0  0  0
   18.6438   -4.8185   50.4142 C   0  0  2  0  0  0  0  0  0  0  0  0
   18.2486   -6.9929   47.2211 N   0  0  0  0  0  0  0  0  0  0  0  0
   17.8816   -3.6435   50.8934 N   0  0  0  0  0  0  0  0  0  0  0  0
   22.3296   -5.3826   49.4830 O   0  0  0  0  0  0  0  0  0  0  0  0
   21.0553   -7.3283   47.9174 O   0  0  0  0  0  0  0  0  0  0  0  0
  1  2  1  0  0  0  0
  1 12  1  1  0  0  0
  1 13  1  0  0  0  0
  2  3  1  0  0  0  0
  2 10  1  6  0  0  0
  4  3  1  1  0  0  0
  4  5  1  0  0  0  0
  4 14  1  0  0  0  0
  5  6  1  0  0  0  0
  5 13  1  6  0  0  0
  6  7  1  0  0  0  0
  6 15  1  1  0  0  0
  7  8  1  0  0  0  0
  7 11  1  6  0  0  0
  8 14  1  0  0  0  0
  8 16  1  1  0  0  0
  9 11  1  0  0  0  0
 17 16  1  6  0  0  0
 17 18  1  0  0  0  0
 17 24  1  0  0  0  0
 18 19  1  0  0  0  0
 18 25  1  6  0  0  0
 19 20  1  0  0  0  0
 19 26  1  1  0  0  0
 20 21  1  0  0  0  0
 20 23  1  6  0  0  0
 21 22  1  1  0  0  0
 21 24  1  0  0  0  0
 22 27  1  0  0  0  0
 28 12  1  1  0  0  0
 28 29  1  0  0  0  0
 28 33  1  0  0  0  0
 29 30  1  0  0  0  0
 29 36  1  6  0  0  0
 30 31  1  0  0  0  0
 30 37  1  1  0  0  0
 31 32  1  0  0  0  0
 31 34  1  6  0  0  0
 32 33  1  0  0  0  0
 33 35  1  6  0  0  0
M  END
>  <CHROM.1>
-141.94182280,-76.61396749,176.72772395,175.69977040,-65.01822040,97.76850841
20.72385513,-1.60776045,53.90819760,-1.65748098,-0.01849599,0.89974623

>  <Name>
2oe8_lig

>  <RI>
0

>  <Rbt.Current_Directory>
/home/itssahil/PROJECTS/Mol_Feturizer/New_Systems/rnas/2oe8

>  <Rbt.Executable>
rbdock ($Id: //depot/dev/client3/rdock/2013.1/src/exe/rbdock.cxx#4 $)

>  <Rbt.Library>
libRbt.so (2013.1, Build901 2013/11/27)

>  <Rbt.Parameter_File>
/export/apps/rDock/src/rDock_2013.1_src/data/scripts/dock_solv.prm

>  <Rbt.Receptor>
prm/pocket_docking_5.prm

>  <SCORE>
-18.1478

>  <SCORE.INTER>
-16.5475

>  <SCORE.INTER.CONST>
1

>  <SCORE.INTER.POLAR>
-1.59273

>  <SCORE.INTER.ROT>
6

>  <SCORE.INTER.SOLV>
18.2719

>  <SCORE.INTER.VDW>
-19.4132

>  <SCORE.INTER.norm>
-0.44723

>  <SCORE.INTRA>
-1.61619

>  <SCORE.INTRA.DIHEDRAL>
-5.83395

>  <SCORE.INTRA.DIHEDRAL.0>
16.4056

>  <SCORE.INTRA.POLAR>
0

>  <SCORE.INTRA.POLAR.0>
0

>  <SCORE.INTRA.REPUL>
0

>  <SCORE.INTRA.REPUL.0>
0

>  <SCORE.INTRA.SOLV>
0.266611

>  <SCORE.INTRA.SOLV.lig_0>
-90.9627

>  <SCORE.INTRA.VDW>
1.16748

>  <SCORE.INTRA.VDW.0>
-3.28744

>  <SCORE.INTRA.norm>
-0.0436809

>  <SCORE.RESTR>
0.0158638

>  <SCORE.RESTR.CAVITY>
0.0158638

>  <SCORE.RESTR.norm>
0.000428752

>  <SCORE.SYSTEM>
0

>  <SCORE.SYSTEM.CONST>
0

>  <SCORE.SYSTEM.DIHEDRAL>
0

>  <SCORE.SYSTEM.SOLV>
0

>  <SCORE.SYSTEM.norm>
0

>  <SCORE.heavy>
37

>  <SCORE.norm>
-0.490482

>  <RMSD>
10.271

$$$$
2oe8_lig
 OpenBabel11021811463D
libRbt.so/2013.1/901 2013/11/27
 37 40  0  0  0  0  0  0  0  0999 V2000
   16.9339   -7.3313   47.8300 C   0  0  1  0  0  0  0  0  0  0  0  0
   16.6235   -8.6141   46.9689 C   0  0  1  0  0  0  0  0  0  0  0  0
   16.6860   -8.2508   45.4706 C   0  0  0  0  0  0  0  0  0  0  0  0
   15.6087   -7.1436   45.2483 C   0  0  1  0  0  0  0  0  0  0  0  0
   15.9022   -5.8303   46.1401 C   0  0  1  0  0  0  0  0  0  0  0  0
   14.8213   -4.7281   45.9385 C   0  0  1  0  0  0  0  0  0  0  0  0
   14.7972   -4.3680   44.3969 C   0  0  1  0  0  0  0  0  0  0  0  0
   14.5551   -5.6808   43.5736 C   0  0  2  0  0  0  0  0  0  0  0  0
   13.8962   -2.4018   42.9072 C   0  0  0  0  0  0  0  0  0  0  0  0
   17.6131   -9.6979   47.2657 N   0  0  0  0  0  0  0  0  0  0  0  0
   13.7289   -3.3220   44.0901 N   0  0  0  0  0  0  0  0  0  0  0  0
   18.2506   -6.8270   47.5732 O   0  0  0  0  0  0  0  0  0  0  0  0
   15.9611   -6.2341   47.5518 O   0  0  0  0  0  0  0  0  0  0  0  0
   15.5710   -6.7394   43.8474 O   0  0  0  0  0  0  0  0  0  0  0  0
   13.5793   -5.2698   46.3908 O   0  0  0  0  0  0  0  0  0  0  0  0
   14.5957   -5.3791   42.2266 O   0  0  0  0  0  0  0  0  0  0  0  0
   13.9909   -6.3872   41.3990 C   0  0  2  0  0  0  0  0  0  0  0  0
   14.1514   -6.0213   39.9037 C   0  0  1  0  0  0  0  0  0  0  0  0
   13.3482   -4.7372   39.5319 C   0  0  2  0  0  0  0  0  0  0  0  0
   11.8420   -4.9592   39.8596 C   0  0  1  0  0  0  0  0  0  0  0  0
   11.7465   -5.2484   41.4153 C   0  0  1  0  0  0  0  0  0  0  0  0
   10.3094   -5.5011   41.8624 C   0  0  0  0  0  0  0  0  0  0  0  0
   11.0719   -3.7329   39.5048 N   0  0  0  0  0  0  0  0  0  0  0  0
   12.5448   -6.4867   41.7265 O   0  0  0  0  0  0  0  0  0  0  0  0
   15.5611   -5.8677   39.6506 O   0  0  0  0  0  0  0  0  0  0  0  0
   13.5050   -4.4984   38.1489 O   0  0  0  0  0  0  0  0  0  0  0  0
    9.5517   -4.3340   41.6812 O   0  0  0  0  0  0  0  0  0  0  0  0
   18.9515   -6.4528   48.7414 C   0  0  1  0  0  0  0  0  0  0  0  0
   20.4822   -6.5452   48.4411 C   0  0  1  0  0  0  0  0  0  0  0  0
   21.2673   -6.1657   49.7305 C   0  0  2  0  0  0  0  0  0  0  0  0
   20.9025   -4.7224   50.1969 C   0  0  1  0  0  0  0  0  0  0  0  0
   19.3576   -4.6166   50.4915 C   0  0  0  0  0  0  0  0  0  0  0  0
   18.5621   -4.9977   49.1747 C   0  0  2  0  0  0  0  0  0  0  0  0
   21.6612   -4.3854   51.4332 N   0  0  0  0  0  0  0  0  0  0  0  0
   17.1132   -4.8921   49.4589 N   0  0  0  0  0  0  0  0  0  0  0  0
   20.8357   -7.8858   48.0524 O   0  0  0  0  0  0  0  0  0  0  0  0
   22.6503   -6.2508   49.4290 O   0  0  0  0  0  0  0  0  0  0  0  0
  1  2  1  0  0  0  0
  1 12  1  6  0  0  0
  1 13  1  0  0  0  0
  2  3  1  0  0  0  0
  2 10  1  6  0  0  0
  4  3  1  6  0  0  0
  4  5  1  0  0  0  0
  4 14  1  0  0  0  0
  5  6  1  0  0  0  0
  5 13  1  1  0  0  0
  6  7  1  0  0  0  0
  6 15  1  6  0  0  0
  7  8  1  0  0  0  0
  7 11  1  1  0  0  0
  8 14  1  0  0  0  0
  8 16  1  6  0  0  0
  9 11  1  0  0  0  0
 17 16  1  1  0  0  0
 17 18  1  0  0  0  0
 17 24  1  0  0  0  0
 18 19  1  0  0  0  0
 18 25  1  1  0  0  0
 19 20  1  0  0  0  0
 19 26  1  6  0  0  0
 20 21  1  0  0  0  0
 20 23  1  1  0  0  0
 21 22  1  6  0  0  0
 21 24  1  0  0  0  0
 22 27  1  0  0  0  0
 28 12  1  6  0  0  0
 28 29  1  0  0  0  0
 28 33  1  0  0  0  0
 29 30  1  0  0  0  0
 29 36  1  1  0  0  0
 30 31  1  0  0  0  0
 30 37  1  6  0  0  0
 31 32  1  0  0  0  0
 31 34  1  1  0  0  0
 32 33  1  0  0  0  0
 33 35  1  1  0  0  0
M  END
>  <CHROM.1>
-136.45413181,153.04570739,-161.88343665,-176.55157648,-64.92329058,154.95877724
15.88557929,-5.74245139,45.01646819,-0.67662362,0.57749965,-2.02859114

>  <Name>
2oe8_lig

>  <RI>
0

>  <Rbt.Current_Directory>
/home/itssahil/PROJECTS/Mol_Feturizer/New_Systems/rnas/2oe8

>  <Rbt.Executable>
rbdock ($Id: //depot/dev/client3/rdock/2013.1/src/exe/rbdock.cxx#4 $)

>  <Rbt.Library>
libRbt.so (2013.1, Build901 2013/11/27)

>  <Rbt.Parameter_File>
/export/apps/rDock/src/rDock_2013.1_src/data/scripts/dock_solv.prm

>  <Rbt.Receptor>
prm/blind_docking_100.prm

>  <SCORE>
-16.0854

>  <SCORE.INTER>
-13.6529

>  <SCORE.INTER.CONST>
1

>  <SCORE.INTER.POLAR>
-0.979796

>  <SCORE.INTER.ROT>
6

>  <SCORE.INTER.SOLV>
16.0917

>  <SCORE.INTER.VDW>
-18.7998

>  <SCORE.INTER.norm>
-0.368997

>  <SCORE.INTRA>
-2.43251

>  <SCORE.INTRA.DIHEDRAL>
-5.62694

>  <SCORE.INTRA.DIHEDRAL.0>
16.4056

>  <SCORE.INTRA.POLAR>
0

>  <SCORE.INTRA.POLAR.0>
0

>  <SCORE.INTRA.REPUL>
0

>  <SCORE.INTRA.REPUL.0>
0

>  <SCORE.INTRA.SOLV>
0.864942

>  <SCORE.INTRA.SOLV.lig_0>
-90.9627

>  <SCORE.INTRA.VDW>
-0.0515118

>  <SCORE.INTRA.VDW.0>
-3.28744

>  <SCORE.INTRA.norm>
-0.0657436

>  <SCORE.RESTR>
0

>  <SCORE.RESTR.CAVITY>
0

>  <SCORE.RESTR.norm>
0

>  <SCORE.SYSTEM>
0

>  <SCORE.SYSTEM.CONST>
0

>  <SCORE.SYSTEM.DIHEDRAL>
0

>  <SCORE.SYSTEM.SOLV>
0

>  <SCORE.SYSTEM.norm>
0

>  <SCORE.heavy>
37

>  <SCORE.norm>
-0.43474

>  <RMSD>
10.322

$$$$
2oe8_lig
 OpenBabel11021811463D
libRbt.so/2013.1/901 2013/11/27
 37 40  0  0  0  0  0  0  0  0999 V2000
   20.9811   -2.2294   51.1485 C   0  0  1  0  0  0  0  0  0  0  0  0
   22.2248   -2.6332   52.0281 C   0  0  1  0  0  0  0  0  0  0  0  0
   21.8166   -2.6419   53.5160 C   0  0  0  0  0  0  0  0  0  0  0  0
   21.3375   -1.1928   53.8420 C   0  0  1  0  0  0  0  0  0  0  0  0
   20.0762   -0.7571   52.9336 C   0  0  1  0  0  0  0  0  0  0  0  0
   19.6040    0.6947   53.2392 C   0  0  1  0  0  0  0  0  0  0  0  0
   19.2377    0.7570   54.7783 C   0  0  1  0  0  0  0  0  0  0  0  0
   20.4772    0.2820   55.6138 C   0  0  2  0  0  0  0  0  0  0  0  0
   17.8050    2.3464   56.3007 C   0  0  0  0  0  0  0  0  0  0  0  0
   22.7273   -3.9882   51.6361 N   0  0  0  0  0  0  0  0  0  0  0  0
   18.8051    2.1623   55.1872 N   0  0  0  0  0  0  0  0  0  0  0  0
   19.9078   -3.1692   51.2856 O   0  0  0  0  0  0  0  0  0  0  0  0
   20.4596   -0.8813   51.5204 O   0  0  0  0  0  0  0  0  0  0  0  0
   20.9443   -1.0861   55.2424 O   0  0  0  0  0  0  0  0  0  0  0  0
   20.6828    1.5676   52.9003 O   0  0  0  0  0  0  0  0  0  0  0  0
   20.1396    0.2762   56.9528 O   0  0  0  0  0  0  0  0  0  0  0  0
   21.1992   -0.1908   57.8050 C   0  0  2  0  0  0  0  0  0  0  0  0
   20.7029   -0.3017   59.2668 C   0  0  1  0  0  0  0  0  0  0  0  0
   20.3605    1.0951   59.8700 C   0  0  2  0  0  0  0  0  0  0  0  0
   21.6233    2.0046   59.8118 C   0  0  1  0  0  0  0  0  0  0  0  0
   22.0252    2.1379   58.2841 C   0  0  1  0  0  0  0  0  0  0  0  0
   23.2698    3.0002   58.0938 C   0  0  0  0  0  0  0  0  0  0  0  0
   21.2985    3.3406   60.3882 N   0  0  0  0  0  0  0  0  0  0  0  0
   22.3342    0.7665   57.7444 O   0  0  0  0  0  0  0  0  0  0  0  0
   19.5630   -1.1824   59.2650 O   0  0  0  0  0  0  0  0  0  0  0  0
   19.9642    0.9152   61.2135 O   0  0  0  0  0  0  0  0  0  0  0  0
   24.3340    2.4527   58.8265 O   0  0  0  0  0  0  0  0  0  0  0  0
   19.4540   -3.6941   50.0550 C   0  0  1  0  0  0  0  0  0  0  0  0
   18.5934   -4.9633   50.3551 C   0  0  1  0  0  0  0  0  0  0  0  0
   18.1125   -5.5707   49.0050 C   0  0  2  0  0  0  0  0  0  0  0  0
   17.2695   -4.5341   48.1999 C   0  0  1  0  0  0  0  0  0  0  0  0
   18.1263   -3.2449   47.9021 C   0  0  0  0  0  0  0  0  0  0  0  0
   18.6087   -2.6262   49.2793 C   0  0  2  0  0  0  0  0  0  0  0  0
   16.8264   -5.1362   46.9119 N   0  0  0  0  0  0  0  0  0  0  0  0
   19.4089   -1.4147   48.9907 N   0  0  0  0  0  0  0  0  0  0  0  0
   19.3774   -5.9442   51.0597 O   0  0  0  0  0  0  0  0  0  0  0  0
   17.3300   -6.7143   49.3059 O   0  0  0  0  0  0  0  0  0  0  0  0
  1  2  1  0  0  0  0
  1 12  1  1  0  0  0
  1 13  1  0  0  0  0
  2  3  1  0  0  0  0
  2 10  1  6  0  0  0
  4  3  1  6  0  0  0
  4  5  1  0  0  0  0
  4 14  1  0  0  0  0
  5  6  1  0  0  0  0
  5 13  1  6  0  0  0
  6  7  1  0  0  0  0
  6 15  1  1  0  0  0
  7  8  1  0  0  0  0
  7 11  1  1  0  0  0
  8 14  1  0  0  0  0
  8 16  1  1  0  0  0
  9 11  1  0  0  0  0
 17 16  1  6  0  0  0
 17 18  1  0  0  0  0
 17 24  1  0  0  0  0
 18 19  1  0  0  0  0
 18 25  1  6  0  0  0
 19 20  1  0  0  0  0
 19 26  1  1  0  0  0
 20 21  1  0  0  0  0
 20 23  1  6  0  0  0
 21 22  1  1  0  0  0
 21 24  1  0  0  0  0
 22 27  1  0  0  0  0
 28 12  1  1  0  0  0
 28 29  1  0  0  0  0
 28 33  1  0  0  0  0
 29 30  1  0  0  0  0
 29 36  1  6  0  0  0
 30 31  1  0  0  0  0
 30 37  1  1  0  0  0
 31 32  1  0  0  0  0
 31 34  1  6  0  0  0
 32 33  1  0  0  0  0
 33 35  1  6  0  0  0
M  END
>  <CHROM.1>
-125.66429096,149.38885842,177.97745704,-174.41230490,57.61086599,164.43134905
20.19858812,-1.08021567,54.09906145,-2.64367626,1.31127863,2.07929088

>  <Name>
2oe8_lig

>  <RI>
0

>  <Rbt.Current_Directory>
/home/itssahil/PROJECTS/Mol_Feturizer/New_Systems/rnas/2oe8

>  <Rbt.Executable>
rbdock ($Id: //depot/dev/client3/rdock/2013.1/src/exe/rbdock.cxx#4 $)

>  <Rbt.Library>
libRbt.so (2013.1, Build901 2013/11/27)

>  <Rbt.Parameter_File>
/export/apps/rDock/src/rDock_2013.1_src/data/scripts/dock_solv.prm

>  <Rbt.Receptor>
prm/pocket_docking_5.prm

>  <SCORE>
-19.4163

>  <SCORE.INTER>
-16.3955

>  <SCORE.INTER.CONST>
1

>  <SCORE.INTER.POLAR>
-1.12375

>  <SCORE.INTER.ROT>
6

>  <SCORE.INTER.SOLV>
18.7613

>  <SCORE.INTER.VDW>
-21.0383

>  <SCORE.INTER.norm>
-0.443123

>  <SCORE.INTRA>
-3.02072

>  <SCORE.INTRA.DIHEDRAL>
-7.40449

>  <SCORE.INTRA.DIHEDRAL.0>
16.4056

>  <SCORE.INTRA.POLAR>
0

>  <SCORE.INTRA.POLAR.0>
0

>  <SCORE.INTRA.REPUL>
0

>  <SCORE.INTRA.REPUL.0>
0

>  <SCORE.INTRA.SOLV>
-0.366469

>  <SCORE.INTRA.SOLV.lig_0>
-90.9627

>  <SCORE.INTRA.VDW>
0.864753

>  <SCORE.INTRA.VDW.0>
-3.28744

>  <SCORE.INTRA.norm>
-0.0816412

>  <SCORE.RESTR>
0

>  <SCORE.RESTR.CAVITY>
0

>  <SCORE.RESTR.norm>
0

>  <SCORE.SYSTEM>
0

>  <SCORE.SYSTEM.CONST>
0

>  <SCORE.SYSTEM.DIHEDRAL>
0

>  <SCORE.SYSTEM.SOLV>
0

>  <SCORE.SYSTEM.norm>
0

>  <SCORE.heavy>
37

>  <SCORE.norm>
-0.524764

>  <RMSD>
10.333

$$$$
2oe8_lig
 OpenBabel11021811463D
libRbt.so/2013.1/901 2013/11/27
 37 40  0  0  0  0  0  0  0  0999 V2000
   16.9672   -3.3265   45.5272 C   0  0  1  0  0  0  0  0  0  0  0  0
   18.2867   -2.5629   45.1280 C   0  0  1  0  0  0  0  0  0  0  0  0
   19.4796   -3.5396   45.1875 C   0  0  0  0  0  0  0  0  0  0  0  0
   19.5449   -4.0542   46.6595 C   0  0  1  0  0  0  0  0  0  0  0  0
   18.1911   -4.8210   47.0897 C   0  0  1  0  0  0  0  0  0  0  0  0
   18.2404   -5.3210   48.5633 C   0  0  1  0  0  0  0  0  0  0  0  0
   19.4954   -6.2774   48.6947 C   0  0  1  0  0  0  0  0  0  0  0  0
   20.7748   -5.5025   48.2229 C   0  0  2  0  0  0  0  0  0  0  0  0
   20.1980   -5.8667   51.1915 C   0  0  0  0  0  0  0  0  0  0  0  0
   18.1682   -1.9965   43.7469 N   0  0  0  0  0  0  0  0  0  0  0  0
   19.6564   -6.7849   50.1250 N   0  0  0  0  0  0  0  0  0  0  0  0
   16.6802   -4.3980   44.6198 O   0  0  0  0  0  0  0  0  0  0  0  0
   17.0597   -3.9023   46.9010 O   0  0  0  0  0  0  0  0  0  0  0  0
   20.6610   -4.9773   46.8304 O   0  0  0  0  0  0  0  0  0  0  0  0
   18.3471   -4.1650   49.3959 O   0  0  0  0  0  0  0  0  0  0  0  0
   21.8604   -6.3542   48.2777 O   0  0  0  0  0  0  0  0  0  0  0  0
   23.0660   -5.7743   47.7510 C   0  0  2  0  0  0  0  0  0  0  0  0
   24.2762   -6.6935   48.0443 C   0  0  1  0  0  0  0  0  0  0  0  0
   24.5742   -6.7895   49.5721 C   0  0  2  0  0  0  0  0  0  0  0  0
   24.8498   -5.3633   50.1335 C   0  0  1  0  0  0  0  0  0  0  0  0
   23.5436   -4.5042   49.8708 C   0  0  1  0  0  0  0  0  0  0  0  0
   23.6947   -3.0685   50.3658 C   0  0  0  0  0  0  0  0  0  0  0  0
   25.1351   -5.4524   51.5940 N   0  0  0  0  0  0  0  0  0  0  0  0
   23.2910   -4.4503   48.3873 O   0  0  0  0  0  0  0  0  0  0  0  0
   23.9830   -7.9816   47.4702 O   0  0  0  0  0  0  0  0  0  0  0  0
   25.7151   -7.6018   49.7534 O   0  0  0  0  0  0  0  0  0  0  0  0
   22.4942   -2.3730   50.1555 O   0  0  0  0  0  0  0  0  0  0  0  0
   15.2998   -4.5898   44.3883 C   0  0  1  0  0  0  0  0  0  0  0  0
   14.8122   -3.4778   43.4048 C   0  0  1  0  0  0  0  0  0  0  0  0
   13.2847   -3.6582   43.1655 C   0  0  2  0  0  0  0  0  0  0  0  0
   12.9797   -5.0672   42.5694 C   0  0  1  0  0  0  0  0  0  0  0  0
   13.4785   -6.1960   43.5500 C   0  0  0  0  0  0  0  0  0  0  0  0
   15.0351   -6.0125   43.7861 C   0  0  2  0  0  0  0  0  0  0  0  0
   11.5137   -5.2172   42.3549 N   0  0  0  0  0  0  0  0  0  0  0  0
   15.4956   -7.0782   44.7044 N   0  0  0  0  0  0  0  0  0  0  0  0
   15.0496   -2.1736   43.9669 O   0  0  0  0  0  0  0  0  0  0  0  0
   12.8705   -2.6430   42.2663 O   0  0  0  0  0  0  0  0  0  0  0  0
  1  2  1  0  0  0  0
  1 12  1  6  0  0  0
  1 13  1  0  0  0  0
  2  3  1  0  0  0  0
  2 10  1  6  0  0  0
  4  3  1  6  0  0  0
  4  5  1  0  0  0  0
  4 14  1  0  0  0  0
  5  6  1  0  0  0  0
  5 13  1  1  0  0  0
  6  7  1  0  0  0  0
  6 15  1  1  0  0  0
  7  8  1  0  0  0  0
  7 11  1  1  0  0  0
  8 14  1  0  0  0  0
  8 16  1  6  0  0  0
  9 11  1  0  0  0  0
 17 16  1  1  0  0  0
 17 18  1  0  0  0  0
 17 24  1  0  0  0  0
 18 19  1  0  0  0  0
 18 25  1  1  0  0  0
 19 20  1  0  0  0  0
 19 26  1  6  0  0  0
 20 21  1  0  0  0  0
 20 23  1  1  0  0  0
 21 22  1  6  0  0  0
 21 24  1  0  0  0  0
 22 27  1  0  0  0  0
 28 12  1  6  0  0  0
 28 29  1  0  0  0  0
 28 33  1  0  0  0  0
 29 30  1  0  0  0  0
 29 36  1  1  0  0  0
 30 31  1  0  0  0  0
 30 37  1  6  0  0  0
 31 32  1  0  0  0  0
 31 34  1  1  0  0  0
 32 33  1  0  0  0  0
 33 35  1  1  0  0  0
M  END
>  <CHROM.1>
-144.64247632,-75.30642502,174.77792680,171.22301406,-177.69430272,76.99137703
19.17112202,-4.85564398,46.87500532,-2.98631481,0.56926986,3.09614584

>  <Name>
2oe8_lig

>  <RI>
0

>  <Rbt.Current_Directory>
/home/itssahil/PROJECTS/Mol_Feturizer/New_Systems/rnas/2oe8

>  <Rbt.Executable>
rbdock ($Id: //depot/dev/client3/rdock/2013.1/src/exe/rbdock.cxx#4 $)

>  <Rbt.Library>
libRbt.so (2013.1, Build901 2013/11/27)

>  <Rbt.Parameter_File>
/export/apps/rDock/src/rDock_2013.1_src/data/scripts/dock_solv.prm

>  <Rbt.Receptor>
prm/blind_docking_60.prm

>  <SCORE>
-19.1266

>  <SCORE.INTER>
-15.4421

>  <SCORE.INTER.CONST>
1

>  <SCORE.INTER.POLAR>
-1.94946

>  <SCORE.INTER.ROT>
6

>  <SCORE.INTER.SOLV>
19.993

>  <SCORE.INTER.VDW>
-18.0609

>  <SCORE.INTER.norm>
-0.417353

>  <SCORE.INTRA>
-3.68627

>  <SCORE.INTRA.DIHEDRAL>
-9.7343

>  <SCORE.INTRA.DIHEDRAL.0>
16.4056

>  <SCORE.INTRA.POLAR>
0

>  <SCORE.INTRA.POLAR.0>
0

>  <SCORE.INTRA.REPUL>
0

>  <SCORE.INTRA.REPUL.0>
0

>  <SCORE.INTRA.SOLV>
-1.47732

>  <SCORE.INTRA.SOLV.lig_0>
-90.9627

>  <SCORE.INTRA.VDW>
1.91954

>  <SCORE.INTRA.VDW.0>
-3.28744

>  <SCORE.INTRA.norm>
-0.099629

>  <SCORE.RESTR>
0.00176397

>  <SCORE.RESTR.CAVITY>
0.00176397

>  <SCORE.RESTR.norm>
4.76748e-05

>  <SCORE.SYSTEM>
0

>  <SCORE.SYSTEM.CONST>
0

>  <SCORE.SYSTEM.DIHEDRAL>
0

>  <SCORE.SYSTEM.SOLV>
0

>  <SCORE.SYSTEM.norm>
0

>  <SCORE.heavy>
37

>  <SCORE.norm>
-0.516934

>  <RMSD>
10.340

$$$$
2oe8_lig
 OpenBabel11021811463D
libRbt.so/2013.1/901 2013/11/27
 37 40  0  0  0  0  0  0  0  0999 V2000
   18.9868   -4.0826   46.3080 C   0  0  1  0  0  0  0  0  0  0  0  0
   17.7271   -3.4005   46.9647 C   0  0  1  0  0  0  0  0  0  0  0  0
   16.4635   -3.7881   46.1686 C   0  0  0  0  0  0  0  0  0  0  0  0
   16.6937   -3.2732   44.7134 C   0  0  1  0  0  0  0  0  0  0  0  0
   17.9936   -3.9481   44.0346 C   0  0  1  0  0  0  0  0  0  0  0  0
   18.2415   -3.4253   42.5892 C   0  0  1  0  0  0  0  0  0  0  0  0
   16.9390   -3.7381   41.7450 C   0  0  1  0  0  0  0  0  0  0  0  0
   15.7014   -3.1017   42.4683 C   0  0  2  0  0  0  0  0  0  0  0  0
   16.3383   -3.9131   39.1945 C   0  0  0  0  0  0  0  0  0  0  0  0
   17.5774   -3.8356   48.3896 N   0  0  0  0  0  0  0  0  0  0  0  0
   17.0680   -3.2177   40.3161 N   0  0  0  0  0  0  0  0  0  0  0  0
   18.8913   -5.5122   46.3389 O   0  0  0  0  0  0  0  0  0  0  0  0
   19.1582   -3.6658   44.8852 O   0  0  0  0  0  0  0  0  0  0  0  0
   15.5387   -3.5735   43.8750 O   0  0  0  0  0  0  0  0  0  0  0  0
   18.5030   -2.0243   42.6881 O   0  0  0  0  0  0  0  0  0  0  0  0
   14.5567   -3.4260   41.7672 O   0  0  0  0  0  0  0  0  0  0  0  0
   13.3511   -2.9671   42.4019 C   0  0  2  0  0  0  0  0  0  0  0  0
   12.4864   -4.1716   42.8459 C   0  0  1  0  0  0  0  0  0  0  0  0
   11.9512   -4.9818   41.6256 C   0  0  2  0  0  0  0  0  0  0  0  0
   11.1116   -4.0413   40.7115 C   0  0  1  0  0  0  0  0  0  0  0  0
   12.0791   -2.8806   40.2318 C   0  0  1  0  0  0  0  0  0  0  0  0
   11.3639   -1.8750   39.3340 C   0  0  0  0  0  0  0  0  0  0  0  0
   10.5985   -4.8137   39.5441 N   0  0  0  0  0  0  0  0  0  0  0  0
   12.5781   -2.1366   41.4422 O   0  0  0  0  0  0  0  0  0  0  0  0
   13.2984   -4.9820   43.7170 O   0  0  0  0  0  0  0  0  0  0  0  0
   11.1361   -6.0289   42.1090 O   0  0  0  0  0  0  0  0  0  0  0  0
   12.1388   -0.7099   39.2276 O   0  0  0  0  0  0  0  0  0  0  0  0
   19.8694   -6.1278   47.1514 C   0  0  1  0  0  0  0  0  0  0  0  0
   19.5215   -7.6469   47.2655 C   0  0  1  0  0  0  0  0  0  0  0  0
   20.5743   -8.3321   48.1848 C   0  0  2  0  0  0  0  0  0  0  0  0
   22.0126   -8.1573   47.6065 C   0  0  1  0  0  0  0  0  0  0  0  0
   22.3683   -6.6271   47.4772 C   0  0  0  0  0  0  0  0  0  0  0  0
   21.2978   -5.9346   46.5357 C   0  0  2  0  0  0  0  0  0  0  0  0
   23.0007   -8.8158   48.5052 N   0  0  0  0  0  0  0  0  0  0  0  0
   21.6413   -4.4996   46.4167 N   0  0  0  0  0  0  0  0  0  0  0  0
   18.2124   -7.8186   47.8400 O   0  0  0  0  0  0  0  0  0  0  0  0
   20.2399   -9.7078   48.2654 O   0  0  0  0  0  0  0  0  0  0  0  0
  1  2  1  0  0  0  0
  1 12  1  6  0  0  0
  1 13  1  0  0  0  0
  2  3  1  0  0  0  0
  2 10  1  1  0  0  0
  4  3  1  1  0  0  0
  4  5  1  0  0  0  0
  4 14  1  0  0  0  0
  5  6  1  0  0  0  0
  5 13  1  1  0  0  0
  6  7  1  0  0  0  0
  6 15  1  1  0  0  0
  7  8  1  0  0  0  0
  7 11  1  6  0  0  0
  8 14  1  0  0  0  0
  8 16  1  6  0  0  0
  9 11  1  0  0  0  0
 17 16  1  6  0  0  0
 17 18  1  0  0  0  0
 17 24  1  0  0  0  0
 18 19  1  0  0  0  0
 18 25  1  1  0  0  0
 19 20  1  0  0  0  0
 19 26  1  1  0  0  0
 20 21  1  0  0  0  0
 20 23  1  6  0  0  0
 21 22  1  6  0  0  0
 21 24  1  0  0  0  0
 22 27  1  0  0  0  0
 28 12  1  6  0  0  0
 28 29  1  0  0  0  0
 28 33  1  0  0  0  0
 29 30  1  0  0  0  0
 29 36  1  1  0  0  0
 30 31  1  0  0  0  0
 30 37  1  6  0  0  0
 31 32  1  0  0  0  0
 31 34  1  1  0  0  0
 32 33  1  0  0  0  0
 33 35  1  1  0  0  0
M  END
>  <CHROM.1>
-114.58855370,150.76778572,175.88161568,-114.91791371,164.64649125,171.64699874
16.63999034,-4.61717787,44.05052803,-0.70474384,-0.30910531,-0.72908375

>  <Name>
2oe8_lig

>  <RI>
0

>  <Rbt.Current_Directory>
/home/itssahil/PROJECTS/Mol_Feturizer/New_Systems/rnas/2oe8

>  <Rbt.Executable>
rbdock ($Id: //depot/dev/client3/rdock/2013.1/src/exe/rbdock.cxx#4 $)

>  <Rbt.Library>
libRbt.so (2013.1, Build901 2013/11/27)

>  <Rbt.Parameter_File>
/export/apps/rDock/src/rDock_2013.1_src/data/scripts/dock_solv.prm

>  <Rbt.Receptor>
prm/blind_docking_60.prm

>  <SCORE>
-21.2847

>  <SCORE.INTER>
-22.0356

>  <SCORE.INTER.CONST>
1

>  <SCORE.INTER.POLAR>
-2.62403

>  <SCORE.INTER.ROT>
6

>  <SCORE.INTER.SOLV>
14.6231

>  <SCORE.INTER.VDW>
-18.418

>  <SCORE.INTER.norm>
-0.595557

>  <SCORE.INTRA>
0.743234

>  <SCORE.INTRA.DIHEDRAL>
-0.453413

>  <SCORE.INTRA.DIHEDRAL.0>
16.4056

>  <SCORE.INTRA.POLAR>
0

>  <SCORE.INTRA.POLAR.0>
0

>  <SCORE.INTRA.REPUL>
0

>  <SCORE.INTRA.REPUL.0>
0

>  <SCORE.INTRA.SOLV>
-0.824666

>  <SCORE.INTRA.SOLV.lig_0>
-90.9627

>  <SCORE.INTRA.VDW>
1.38227

>  <SCORE.INTRA.VDW.0>
-3.28744

>  <SCORE.INTRA.norm>
0.0200874

>  <SCORE.RESTR>
0.00765652

>  <SCORE.RESTR.CAVITY>
0.00765652

>  <SCORE.RESTR.norm>
0.000206933

>  <SCORE.SYSTEM>
0

>  <SCORE.SYSTEM.CONST>
0

>  <SCORE.SYSTEM.DIHEDRAL>
0

>  <SCORE.SYSTEM.SOLV>
0

>  <SCORE.SYSTEM.norm>
0

>  <SCORE.heavy>
37

>  <SCORE.norm>
-0.575263

>  <RMSD>
10.364

$$$$
2oe8_lig
 OpenBabel11021811463D
libRbt.so/2013.1/901 2013/11/27
 37 40  0  0  0  0  0  0  0  0999 V2000
   18.0282   -6.2254   46.7312 C   0  0  1  0  0  0  0  0  0  0  0  0
   17.4718   -6.4579   48.1871 C   0  0  1  0  0  0  0  0  0  0  0  0
   17.1293   -5.0961   48.8264 C   0  0  0  0  0  0  0  0  0  0  0  0
   18.4608   -4.2823   48.8510 C   0  0  1  0  0  0  0  0  0  0  0  0
   19.0542   -4.0537   47.3672 C   0  0  1  0  0  0  0  0  0  0  0  0
   20.3928   -3.2590   47.3844 C   0  0  1  0  0  0  0  0  0  0  0  0
   20.1094   -1.8738   48.0970 C   0  0  1  0  0  0  0  0  0  0  0  0
   19.4931   -2.1490   49.5128 C   0  0  2  0  0  0  0  0  0  0  0  0
   22.4725   -1.4479   49.1605 C   0  0  0  0  0  0  0  0  0  0  0  0
   16.2470   -7.3187   48.1498 N   0  0  0  0  0  0  0  0  0  0  0  0
   21.3812   -1.0369   48.2045 N   0  0  0  0  0  0  0  0  0  0  0  0
   17.0561   -5.5960   45.8869 O   0  0  0  0  0  0  0  0  0  0  0  0
   19.2501   -5.3683   46.7403 O   0  0  0  0  0  0  0  0  0  0  0  0
   18.2503   -2.9739   49.4601 O   0  0  0  0  0  0  0  0  0  0  0  0
   21.3438   -4.0529   48.0957 O   0  0  0  0  0  0  0  0  0  0  0  0
   19.1876   -0.9424   50.1110 O   0  0  0  0  0  0  0  0  0  0  0  0
   18.5939   -1.0865   51.4124 C   0  0  2  0  0  0  0  0  0  0  0  0
   18.5263    0.2852   52.1263 C   0  0  1  0  0  0  0  0  0  0  0  0
   19.9472    0.8400   52.4509 C   0  0  2  0  0  0  0  0  0  0  0  0
   20.7065   -0.1819   53.3477 C   0  0  1  0  0  0  0  0  0  0  0  0
   20.8078   -1.5324   52.5235 C   0  0  1  0  0  0  0  0  0  0  0  0
   21.5236   -2.6283   53.3080 C   0  0  0  0  0  0  0  0  0  0  0  0
   22.0652    0.3464   53.6596 N   0  0  0  0  0  0  0  0  0  0  0  0
   19.4153   -2.0214   52.2245 O   0  0  0  0  0  0  0  0  0  0  0  0
   17.7822    1.1748   51.2721 O   0  0  0  0  0  0  0  0  0  0  0  0
   19.8008    2.0634   53.1411 O   0  0  0  0  0  0  0  0  0  0  0  0
   22.8658   -2.2659   53.4985 O   0  0  0  0  0  0  0  0  0  0  0  0
   17.5951   -5.0874   44.6842 C   0  0  1  0  0  0  0  0  0  0  0  0
   17.8508   -6.2892   43.7189 C   0  0  1  0  0  0  0  0  0  0  0  0
   18.4746   -5.7461   42.4002 C   0  0  2  0  0  0  0  0  0  0  0  0
   17.5239   -4.7117   41.7222 C   0  0  1  0  0  0  0  0  0  0  0  0
   17.2511   -3.5005   42.6934 C   0  0  0  0  0  0  0  0  0  0  0  0
   16.6103   -4.0570   44.0320 C   0  0  2  0  0  0  0  0  0  0  0  0
   18.1445   -4.2035   40.4675 N   0  0  0  0  0  0  0  0  0  0  0  0
   16.3541   -2.9133   44.9362 N   0  0  0  0  0  0  0  0  0  0  0  0
   18.7628   -7.2278   44.3192 O   0  0  0  0  0  0  0  0  0  0  0  0
   18.6895   -6.8539   41.5415 O   0  0  0  0  0  0  0  0  0  0  0  0
  1  2  1  0  0  0  0
  1 12  1  6  0  0  0
  1 13  1  0  0  0  0
  2  3  1  0  0  0  0
  2 10  1  6  0  0  0
  4  3  1  6  0  0  0
  4  5  1  0  0  0  0
  4 14  1  0  0  0  0
  5  6  1  0  0  0  0
  5 13  1  1  0  0  0
  6  7  1  0  0  0  0
  6 15  1  1  0  0  0
  7  8  1  0  0  0  0
  7 11  1  1  0  0  0
  8 14  1  0  0  0  0
  8 16  1  6  0  0  0
  9 11  1  0  0  0  0
 17 16  1  6  0  0  0
 17 18  1  0  0  0  0
 17 24  1  0  0  0  0
 18 19  1  0  0  0  0
 18 25  1  6  0  0  0
 19 20  1  0  0  0  0
 19 26  1  1  0  0  0
 20 21  1  0  0  0  0
 20 23  1  6  0  0  0
 21 22  1  1  0  0  0
 21 24  1  0  0  0  0
 22 27  1  0  0  0  0
 28 12  1  1  0  0  0
 28 29  1  0  0  0  0
 28 33  1  0  0  0  0
 29 30  1  0  0  0  0
 29 36  1  1  0  0  0
 30 31  1  0  0  0  0
 30 37  1  6  0  0  0
 31 32  1  0  0  0  0
 31 34  1  6  0  0  0
 32 33  1  0  0  0  0
 33 35  1  1  0  0  0
M  END
>  <CHROM.1>
166.07402446,-71.00003044,179.06843041,169.34732422,-66.10868427,76.06114032
19.06927184,-3.17169198,48.14994655,-2.91791316,-1.31190002,-0.29001975

>  <Name>
2oe8_lig

>  <RI>
0

>  <Rbt.Current_Directory>
/home/itssahil/PROJECTS/Mol_Feturizer/New_Systems/rnas/2oe8

>  <Rbt.Executable>
rbdock ($Id: //depot/dev/client3/rdock/2013.1/src/exe/rbdock.cxx#4 $)

>  <Rbt.Library>
libRbt.so (2013.1, Build901 2013/11/27)

>  <Rbt.Parameter_File>
/export/apps/rDock/src/rDock_2013.1_src/data/scripts/dock_solv.prm

>  <Rbt.Receptor>
prm/blind_docking_60.prm

>  <SCORE>
-24.1408

>  <SCORE.INTER>
-19.2491

>  <SCORE.INTER.CONST>
1

>  <SCORE.INTER.POLAR>
-3.02397

>  <SCORE.INTER.ROT>
6

>  <SCORE.INTER.SOLV>
21.4463

>  <SCORE.INTER.VDW>
-17.5015

>  <SCORE.INTER.norm>
-0.520245

>  <SCORE.INTRA>
-4.89177

>  <SCORE.INTRA.DIHEDRAL>
-13.4443

>  <SCORE.INTRA.DIHEDRAL.0>
16.4056

>  <SCORE.INTRA.POLAR>
0

>  <SCORE.INTRA.POLAR.0>
0

>  <SCORE.INTRA.REPUL>
0

>  <SCORE.INTRA.REPUL.0>
0

>  <SCORE.INTRA.SOLV>
-1.56778

>  <SCORE.INTRA.SOLV.lig_0>
-90.9627

>  <SCORE.INTRA.VDW>
2.61429

>  <SCORE.INTRA.VDW.0>
-3.28744

>  <SCORE.INTRA.norm>
-0.13221

>  <SCORE.RESTR>
0

>  <SCORE.RESTR.CAVITY>
0

>  <SCORE.RESTR.norm>
0

>  <SCORE.SYSTEM>
0

>  <SCORE.SYSTEM.CONST>
0

>  <SCORE.SYSTEM.DIHEDRAL>
0

>  <SCORE.SYSTEM.SOLV>
0

>  <SCORE.SYSTEM.norm>
0

>  <SCORE.heavy>
37

>  <SCORE.norm>
-0.652455

>  <RMSD>
10.376

$$$$
2oe8_lig
 OpenBabel11021811463D
libRbt.so/2013.1/901 2013/11/27
 37 40  0  0  0  0  0  0  0  0999 V2000
   19.8064   -1.1781   52.3812 C   0  0  1  0  0  0  0  0  0  0  0  0
   19.6526    0.0684   51.4294 C   0  0  1  0  0  0  0  0  0  0  0  0
   20.8234    1.0436   51.6719 C   0  0  0  0  0  0  0  0  0  0  0  0
   20.7351    1.4614   53.1731 C   0  0  1  0  0  0  0  0  0  0  0  0
   20.8704    0.1914   54.1604 C   0  0  1  0  0  0  0  0  0  0  0  0
   20.7640    0.5973   55.6597 C   0  0  1  0  0  0  0  0  0  0  0  0
   21.9069    1.6556   55.9437 C   0  0  1  0  0  0  0  0  0  0  0  0
   21.7596    2.8445   54.9315 C   0  0  2  0  0  0  0  0  0  0  0  0
   22.8479    1.6336   58.3954 C   0  0  0  0  0  0  0  0  0  0  0  0
   19.6459   -0.3634   49.9957 N   0  0  0  0  0  0  0  0  0  0  0  0
   21.8548    2.1520   57.3860 N   0  0  0  0  0  0  0  0  0  0  0  0
   21.0168   -1.8991   52.1183 O   0  0  0  0  0  0  0  0  0  0  0  0
   19.8170   -0.7744   53.8181 O   0  0  0  0  0  0  0  0  0  0  0  0
   21.7949    2.4068   53.5049 O   0  0  0  0  0  0  0  0  0  0  0  0
   19.4575    1.1406   55.8563 O   0  0  0  0  0  0  0  0  0  0  0  0
   22.7921    3.7383   55.1363 O   0  0  0  0  0  0  0  0  0  0  0  0
   22.6558    4.9499   54.3745 C   0  0  2  0  0  0  0  0  0  0  0  0
   23.8895    5.8599   54.5881 C   0  0  1  0  0  0  0  0  0  0  0  0
   23.9792    6.3793   56.0558 C   0  0  2  0  0  0  0  0  0  0  0  0
   22.6806    7.1650   56.4042 C   0  0  1  0  0  0  0  0  0  0  0  0
   21.4716    6.1525   56.2416 C   0  0  1  0  0  0  0  0  0  0  0  0
   20.1290    6.8126   56.5422 C   0  0  0  0  0  0  0  0  0  0  0  0
   22.7640    7.6629   57.8069 N   0  0  0  0  0  0  0  0  0  0  0  0
   21.4333    5.6707   54.8155 O   0  0  0  0  0  0  0  0  0  0  0  0
   25.0526    5.0969   54.2141 O   0  0  0  0  0  0  0  0  0  0  0  0
   25.0968    7.2366   56.1575 O   0  0  0  0  0  0  0  0  0  0  0  0
   19.9338    7.8934   55.6688 O   0  0  0  0  0  0  0  0  0  0  0  0
   20.9231   -2.7809   51.0185 C   0  0  1  0  0  0  0  0  0  0  0  0
   22.3640   -3.2695   50.6624 C   0  0  1  0  0  0  0  0  0  0  0  0
   22.2791   -4.2181   49.4312 C   0  0  2  0  0  0  0  0  0  0  0  0
   21.3622   -5.4426   49.7371 C   0  0  1  0  0  0  0  0  0  0  0  0
   19.9087   -4.9587   50.1084 C   0  0  0  0  0  0  0  0  0  0  0  0
   19.9989   -3.9982   51.3661 C   0  0  2  0  0  0  0  0  0  0  0  0
   21.2929   -6.3309   48.5438 N   0  0  0  0  0  0  0  0  0  0  0  0
   18.6302   -3.5518   51.7102 N   0  0  0  0  0  0  0  0  0  0  0  0
   23.2059   -2.1482   50.3353 O   0  0  0  0  0  0  0  0  0  0  0  0
   23.5963   -4.6514   49.1343 O   0  0  0  0  0  0  0  0  0  0  0  0
  1  2  1  0  0  0  0
  1 12  1  6  0  0  0
  1 13  1  0  0  0  0
  2  3  1  0  0  0  0
  2 10  1  6  0  0  0
  4  3  1  6  0  0  0
  4  5  1  0  0  0  0
  4 14  1  0  0  0  0
  5  6  1  0  0  0  0
  5 13  1  6  0  0  0
  6  7  1  0  0  0  0
  6 15  1  6  0  0  0
  7  8  1  0  0  0  0
  7 11  1  1  0  0  0
  8 14  1  0  0  0  0
  8 16  1  6  0  0  0
  9 11  1  0  0  0  0
 17 16  1  1  0  0  0
 17 18  1  0  0  0  0
 17 24  1  0  0  0  0
 18 19  1  0  0  0  0
 18 25  1  1  0  0  0
 19 20  1  0  0  0  0
 19 26  1  6  0  0  0
 20 21  1  0  0  0  0
 20 23  1  1  0  0  0
 21 22  1  6  0  0  0
 21 24  1  0  0  0  0
 22 27  1  0  0  0  0
 28 12  1  1  0  0  0
 28 29  1  0  0  0  0
 28 33  1  0  0  0  0
 29 30  1  0  0  0  0
 29 36  1  6  0  0  0
 30 31  1  0  0  0  0
 30 37  1  1  0  0  0
 31 32  1  0  0  0  0
 31 34  1  6  0  0  0
 32 33  1  0  0  0  0
 33 35  1  6  0  0  0
M  END
>  <CHROM.1>
-81.14353268,103.24223731,-172.55143593,-176.47421960,59.27154098,168.47836245
21.59685509,1.24416108,53.54788546,1.70973326,-0.49568468,-2.54418983

>  <Name>
2oe8_lig

>  <RI>
0

>  <Rbt.Current_Directory>
/home/itssahil/PROJECTS/Mol_Feturizer/New_Systems/rnas/2oe8

>  <Rbt.Executable>
rbdock ($Id: //depot/dev/client3/rdock/2013.1/src/exe/rbdock.cxx#4 $)

>  <Rbt.Library>
libRbt.so (2013.1, Build901 2013/11/27)

>  <Rbt.Parameter_File>
/export/apps/rDock/src/rDock_2013.1_src/data/scripts/dock_solv.prm

>  <Rbt.Receptor>
prm/pocket_docking_8.prm

>  <SCORE>
-19.1848

>  <SCORE.INTER>
-14.6403

>  <SCORE.INTER.CONST>
1

>  <SCORE.INTER.POLAR>
-2.05903

>  <SCORE.INTER.ROT>
6

>  <SCORE.INTER.SOLV>
12.8342

>  <SCORE.INTER.VDW>
-14.7748

>  <SCORE.INTER.norm>
-0.395682

>  <SCORE.INTRA>
-4.54454

>  <SCORE.INTRA.DIHEDRAL>
-12.4113

>  <SCORE.INTRA.DIHEDRAL.0>
16.4056

>  <SCORE.INTRA.POLAR>
0

>  <SCORE.INTRA.POLAR.0>
0

>  <SCORE.INTRA.REPUL>
0

>  <SCORE.INTRA.REPUL.0>
0

>  <SCORE.INTRA.SOLV>
1.14544

>  <SCORE.INTRA.SOLV.lig_0>
-90.9627

>  <SCORE.INTRA.VDW>
1.0884

>  <SCORE.INTRA.VDW.0>
-3.28744

>  <SCORE.INTRA.norm>
-0.122825

>  <SCORE.RESTR>
0

>  <SCORE.RESTR.CAVITY>
0

>  <SCORE.RESTR.norm>
0

>  <SCORE.SYSTEM>
0

>  <SCORE.SYSTEM.CONST>
0

>  <SCORE.SYSTEM.DIHEDRAL>
0

>  <SCORE.SYSTEM.SOLV>
0

>  <SCORE.SYSTEM.norm>
0

>  <SCORE.heavy>
37

>  <SCORE.norm>
-0.518508

>  <RMSD>
10.378

$$$$
2oe8_lig
 OpenBabel11021811463D
libRbt.so/2013.1/901 2013/11/27
 37 40  0  0  0  0  0  0  0  0999 V2000
   19.4258   -4.9653   47.0143 C   0  0  1  0  0  0  0  0  0  0  0  0
   18.8070   -5.4478   48.3809 C   0  0  1  0  0  0  0  0  0  0  0  0
   18.3214   -4.2222   49.1826 C   0  0  0  0  0  0  0  0  0  0  0  0
   19.5806   -3.3294   49.4135 C   0  0  1  0  0  0  0  0  0  0  0  0
   20.2380   -2.8441   48.0212 C   0  0  1  0  0  0  0  0  0  0  0  0
   21.5061   -1.9685   48.2425 C   0  0  1  0  0  0  0  0  0  0  0  0
   21.0733   -0.7264   49.1240 C   0  0  1  0  0  0  0  0  0  0  0  0
   20.4007   -1.2494   50.4408 C   0  0  2  0  0  0  0  0  0  0  0  0
   22.0389    1.5666   49.9644 C   0  0  0  0  0  0  0  0  0  0  0  0
   17.6586   -6.3776   48.1381 N   0  0  0  0  0  0  0  0  0  0  0  0
   22.2664    0.1728   49.4359 N   0  0  0  0  0  0  0  0  0  0  0  0
   18.4567   -4.2885   46.2038 O   0  0  0  0  0  0  0  0  0  0  0  0
   20.5732   -4.0352   47.2285 O   0  0  0  0  0  0  0  0  0  0  0  0
   19.2324   -2.1428   50.1867 O   0  0  0  0  0  0  0  0  0  0  0  0
   22.4748   -2.7896   48.8969 O   0  0  0  0  0  0  0  0  0  0  0  0
   19.9666   -0.1683   51.1823 O   0  0  0  0  0  0  0  0  0  0  0  0
   19.3282   -0.5428   52.4148 C   0  0  2  0  0  0  0  0  0  0  0  0
   18.7623    0.7088   53.1281 C   0  0  1  0  0  0  0  0  0  0  0  0
   19.8968    1.6688   53.6010 C   0  0  2  0  0  0  0  0  0  0  0  0
   20.8517    0.9026   54.5634 C   0  0  1  0  0  0  0  0  0  0  0  0
   21.4531   -0.3140   53.7440 C   0  0  1  0  0  0  0  0  0  0  0  0
   22.4011   -1.1596   54.5897 C   0  0  0  0  0  0  0  0  0  0  0  0
   21.9371    1.8184   55.0170 N   0  0  0  0  0  0  0  0  0  0  0  0
   20.3223   -1.2036   53.3000 O   0  0  0  0  0  0  0  0  0  0  0  0
   17.8595    1.3526   52.2087 O   0  0  0  0  0  0  0  0  0  0  0  0
   19.3057    2.7559   54.2815 O   0  0  0  0  0  0  0  0  0  0  0  0
   21.6977   -1.7077   55.6732 O   0  0  0  0  0  0  0  0  0  0  0  0
   18.7110   -4.3853   44.8175 C   0  0  1  0  0  0  0  0  0  0  0  0
   18.1651   -5.7614   44.3175 C   0  0  1  0  0  0  0  0  0  0  0  0
   18.4670   -5.8950   42.7964 C   0  0  2  0  0  0  0  0  0  0  0  0
   17.8001   -4.7348   41.9948 C   0  0  1  0  0  0  0  0  0  0  0  0
   18.3367   -3.3414   42.5002 C   0  0  0  0  0  0  0  0  0  0  0  0
   18.0217   -3.2067   44.0477 C   0  0  2  0  0  0  0  0  0  0  0  0
   18.1077   -4.8817   40.5452 N   0  0  0  0  0  0  0  0  0  0  0  0
   18.5252   -1.8947   44.5129 N   0  0  0  0  0  0  0  0  0  0  0  0
   18.8081   -6.8404   45.0215 O   0  0  0  0  0  0  0  0  0  0  0  0
   17.9562   -7.1466   42.3679 O   0  0  0  0  0  0  0  0  0  0  0  0
  1  2  1  0  0  0  0
  1 12  1  6  0  0  0
  1 13  1  0  0  0  0
  2  3  1  0  0  0  0
  2 10  1  6  0  0  0
  4  3  1  6  0  0  0
  4  5  1  0  0  0  0
  4 14  1  0  0  0  0
  5  6  1  0  0  0  0
  5 13  1  6  0  0  0
  6  7  1  0  0  0  0
  6 15  1  1  0  0  0
  7  8  1  0  0  0  0
  7 11  1  1  0  0  0
  8 14  1  0  0  0  0
  8 16  1  1  0  0  0
  9 11  1  0  0  0  0
 17 16  1  6  0  0  0
 17 18  1  0  0  0  0
 17 24  1  0  0  0  0
 18 19  1  0  0  0  0
 18 25  1  6  0  0  0
 19 20  1  0  0  0  0
 19 26  1  1  0  0  0
 20 21  1  0  0  0  0
 20 23  1  6  0  0  0
 21 22  1  1  0  0  0
 21 24  1  0  0  0  0
 22 27  1  0  0  0  0
 28 12  1  1  0  0  0
 28 29  1  0  0  0  0
 28 33  1  0  0  0  0
 29 30  1  0  0  0  0
 29 36  1  1  0  0  0
 30 31  1  0  0  0  0
 30 37  1  6  0  0  0
 31 32  1  0  0  0  0
 31 34  1  6  0  0  0
 32 33  1  0  0  0  0
 33 35  1  1  0  0  0
M  END
>  <CHROM.1>
-152.12838836,165.09937774,179.83641034,-175.10943755,61.72651454,81.84027213
19.70453325,-2.33103246,48.87001296,-3.06157112,-1.37139986,-0.43916872

>  <Name>
2oe8_lig

>  <RI>
0

>  <Rbt.Current_Directory>
/home/itssahil/PROJECTS/Mol_Feturizer/New_Systems/rnas/2oe8

>  <Rbt.Executable>
rbdock ($Id: //depot/dev/client3/rdock/2013.1/src/exe/rbdock.cxx#4 $)

>  <Rbt.Library>
libRbt.so (2013.1, Build901 2013/11/27)

>  <Rbt.Parameter_File>
/export/apps/rDock/src/rDock_2013.1_src/data/scripts/dock_solv.prm

>  <Rbt.Receptor>
prm/pocket_docking_8.prm

>  <SCORE>
-19.2745

>  <SCORE.INTER>
-14.1628

>  <SCORE.INTER.CONST>
1

>  <SCORE.INTER.POLAR>
-1.20017

>  <SCORE.INTER.ROT>
6

>  <SCORE.INTER.SOLV>
18.5118

>  <SCORE.INTER.VDW>
-19.2119

>  <SCORE.INTER.norm>
-0.382779

>  <SCORE.INTRA>
-5.11164

>  <SCORE.INTRA.DIHEDRAL>
-10.7516

>  <SCORE.INTRA.DIHEDRAL.0>
16.4056

>  <SCORE.INTRA.POLAR>
0

>  <SCORE.INTRA.POLAR.0>
0

>  <SCORE.INTRA.REPUL>
0

>  <SCORE.INTRA.REPUL.0>
0

>  <SCORE.INTRA.SOLV>
-1.25553

>  <SCORE.INTRA.SOLV.lig_0>
-90.9627

>  <SCORE.INTRA.VDW>
0.891896

>  <SCORE.INTRA.VDW.0>
-3.28744

>  <SCORE.INTRA.norm>
-0.138153

>  <SCORE.RESTR>
0

>  <SCORE.RESTR.CAVITY>
0

>  <SCORE.RESTR.norm>
0

>  <SCORE.SYSTEM>
0

>  <SCORE.SYSTEM.CONST>
0

>  <SCORE.SYSTEM.DIHEDRAL>
0

>  <SCORE.SYSTEM.SOLV>
0

>  <SCORE.SYSTEM.norm>
0

>  <SCORE.heavy>
37

>  <SCORE.norm>
-0.520932

>  <RMSD>
10.384

$$$$
2oe8_lig
 OpenBabel11021811463D
libRbt.so/2013.1/901 2013/11/27
 37 40  0  0  0  0  0  0  0  0999 V2000
   19.4780   -4.9740   46.9998 C   0  0  1  0  0  0  0  0  0  0  0  0
   18.8761   -5.4914   48.3613 C   0  0  1  0  0  0  0  0  0  0  0  0
   18.3686   -4.2893   49.1847 C   0  0  0  0  0  0  0  0  0  0  0  0
   19.6097   -3.3738   49.4243 C   0  0  1  0  0  0  0  0  0  0  0  0
   20.2500   -2.8525   48.0371 C   0  0  1  0  0  0  0  0  0  0  0  0
   21.5005   -1.9538   48.2668 C   0  0  1  0  0  0  0  0  0  0  0  0
   21.0458   -0.7355   49.1700 C   0  0  1  0  0  0  0  0  0  0  0  0
   20.3907   -1.2935   50.4813 C   0  0  2  0  0  0  0  0  0  0  0  0
   21.9657    1.5954   49.9558 C   0  0  0  0  0  0  0  0  0  0  0  0
   17.7465   -6.4413   48.1087 N   0  0  0  0  0  0  0  0  0  0  0  0
   22.2211    0.1838   49.4910 N   0  0  0  0  0  0  0  0  0  0  0  0
   18.4910   -4.3051   46.2047 O   0  0  0  0  0  0  0  0  0  0  0  0
   20.6066   -4.0234   47.2239 O   0  0  0  0  0  0  0  0  0  0  0  0
   19.2403   -2.2073   50.2181 O   0  0  0  0  0  0  0  0  0  0  0  0
   22.4894   -2.7646   48.9035 O   0  0  0  0  0  0  0  0  0  0  0  0
   19.9374   -0.2339   51.2420 O   0  0  0  0  0  0  0  0  0  0  0  0
   19.3832   -0.6365   52.5060 C   0  0  2  0  0  0  0  0  0  0  0  0
   18.8089    0.5900   53.2553 C   0  0  1  0  0  0  0  0  0  0  0  0
   19.9292    1.5927   53.6695 C   0  0  2  0  0  0  0  0  0  0  0  0
   20.9651    0.8623   54.5742 C   0  0  1  0  0  0  0  0  0  0  0  0
   21.5677   -0.3274   53.7172 C   0  0  1  0  0  0  0  0  0  0  0  0
   22.5934   -1.1372   54.5054 C   0  0  0  0  0  0  0  0  0  0  0  0
   22.0372    1.8190   54.9718 N   0  0  0  0  0  0  0  0  0  0  0  0
   20.4498   -1.2598   53.3319 O   0  0  0  0  0  0  0  0  0  0  0  0
   17.8322    1.2001   52.3900 O   0  0  0  0  0  0  0  0  0  0  0  0
   19.3344    2.6540   54.3867 O   0  0  0  0  0  0  0  0  0  0  0  0
   21.9780   -1.6974   55.6352 O   0  0  0  0  0  0  0  0  0  0  0  0
   18.7329   -4.3864   44.8152 C   0  0  1  0  0  0  0  0  0  0  0  0
   18.2132   -5.7711   44.3109 C   0  0  1  0  0  0  0  0  0  0  0  0
   18.5022   -5.8872   42.7859 C   0  0  2  0  0  0  0  0  0  0  0  0
   17.8008   -4.7368   41.9995 C   0  0  1  0  0  0  0  0  0  0  0  0
   18.3109   -3.3352   42.5094 C   0  0  0  0  0  0  0  0  0  0  0  0
   18.0091   -3.2185   44.0610 C   0  0  2  0  0  0  0  0  0  0  0  0
   18.0966   -4.8666   40.5458 N   0  0  0  0  0  0  0  0  0  0  0  0
   18.4875   -1.8987   44.5305 N   0  0  0  0  0  0  0  0  0  0  0  0
   18.8878   -6.8400   45.0005 O   0  0  0  0  0  0  0  0  0  0  0  0
   18.0155   -7.1470   42.3536 O   0  0  0  0  0  0  0  0  0  0  0  0
  1  2  1  0  0  0  0
  1 12  1  1  0  0  0
  1 13  1  0  0  0  0
  2  3  1  0  0  0  0
  2 10  1  6  0  0  0
  4  3  1  6  0  0  0
  4  5  1  0  0  0  0
  4 14  1  0  0  0  0
  5  6  1  0  0  0  0
  5 13  1  6  0  0  0
  6  7  1  0  0  0  0
  6 15  1  1  0  0  0
  7  8  1  0  0  0  0
  7 11  1  1  0  0  0
  8 14  1  0  0  0  0
  8 16  1  1  0  0  0
  9 11  1  0  0  0  0
 17 16  1  6  0  0  0
 17 18  1  0  0  0  0
 17 24  1  0  0  0  0
 18 19  1  0  0  0  0
 18 25  1  6  0  0  0
 19 20  1  0  0  0  0
 19 26  1  1  0  0  0
 20 21  1  0  0  0  0
 20 23  1  6  0  0  0
 21 22  1  1  0  0  0
 21 24  1  0  0  0  0
 22 27  1  0  0  0  0
 28 12  1  1  0  0  0
 28 29  1  0  0  0  0
 28 33  1  0  0  0  0
 29 30  1  0  0  0  0
 29 36  1  1  0  0  0
 30 31  1  0  0  0  0
 30 37  1  6  0  0  0
 31 32  1  0  0  0  0
 31 34  1  6  0  0  0
 32 33  1  0  0  0  0
 33 35  1  1  0  0  0
M  END
>  <CHROM.1>
-151.49416626,161.03877755,-176.75435136,-176.04385146,60.76803372,81.38860201
19.74350368,-2.35732972,48.88738366,-2.91251220,-1.36209755,-0.28213481

>  <Name>
2oe8_lig

>  <RI>
0

>  <Rbt.Current_Directory>
/home/itssahil/PROJECTS/Mol_Feturizer/New_Systems/rnas/2oe8

>  <Rbt.Executable>
rbdock ($Id: //depot/dev/client3/rdock/2013.1/src/exe/rbdock.cxx#4 $)

>  <Rbt.Library>
libRbt.so (2013.1, Build901 2013/11/27)

>  <Rbt.Parameter_File>
/export/apps/rDock/src/rDock_2013.1_src/data/scripts/dock_solv.prm

>  <Rbt.Receptor>
prm/pocket_docking_6.prm

>  <SCORE>
-19.1674

>  <SCORE.INTER>
-13.9405

>  <SCORE.INTER.CONST>
1

>  <SCORE.INTER.POLAR>
-1.19825

>  <SCORE.INTER.ROT>
6

>  <SCORE.INTER.SOLV>
18.2351

>  <SCORE.INTER.VDW>
-18.9779

>  <SCORE.INTER.norm>
-0.37677

>  <SCORE.INTRA>
-5.22688

>  <SCORE.INTRA.DIHEDRAL>
-10.6097

>  <SCORE.INTRA.DIHEDRAL.0>
16.4056

>  <SCORE.INTRA.POLAR>
0

>  <SCORE.INTRA.POLAR.0>
0

>  <SCORE.INTRA.REPUL>
0

>  <SCORE.INTRA.REPUL.0>
0

>  <SCORE.INTRA.SOLV>
-1.2099

>  <SCORE.INTRA.SOLV.lig_0>
-90.9627

>  <SCORE.INTRA.VDW>
0.682923

>  <SCORE.INTRA.VDW.0>
-3.28744

>  <SCORE.INTRA.norm>
-0.141267

>  <SCORE.RESTR>
0

>  <SCORE.RESTR.CAVITY>
0

>  <SCORE.RESTR.norm>
0

>  <SCORE.SYSTEM>
0

>  <SCORE.SYSTEM.CONST>
0

>  <SCORE.SYSTEM.DIHEDRAL>
0

>  <SCORE.SYSTEM.SOLV>
0

>  <SCORE.SYSTEM.norm>
0

>  <SCORE.heavy>
37

>  <SCORE.norm>
-0.518037

>  <RMSD>
10.386

$$$$
2oe8_lig
 OpenBabel11021811463D
libRbt.so/2013.1/901 2013/11/27
 37 40  0  0  0  0  0  0  0  0999 V2000
   16.7080   -3.1936   45.1714 C   0  0  1  0  0  0  0  0  0  0  0  0
   18.0574   -2.5649   44.6545 C   0  0  1  0  0  0  0  0  0  0  0  0
   19.2172   -3.5428   44.9362 C   0  0  0  0  0  0  0  0  0  0  0  0
   19.2431   -3.7495   46.4830 C   0  0  1  0  0  0  0  0  0  0  0  0
   17.8588   -4.3740   47.0302 C   0  0  1  0  0  0  0  0  0  0  0  0
   17.8693   -4.5656   48.5753 C   0  0  1  0  0  0  0  0  0  0  0  0
   19.0905   -5.5108   48.9246 C   0  0  1  0  0  0  0  0  0  0  0  0
   20.4014   -4.8847   48.3335 C   0  0  2  0  0  0  0  0  0  0  0  0
   20.1326   -6.7895   50.9681 C   0  0  0  0  0  0  0  0  0  0  0  0
   17.9786   -2.2876   43.1851 N   0  0  0  0  0  0  0  0  0  0  0  0
   19.2131   -5.7217   50.4313 N   0  0  0  0  0  0  0  0  0  0  0  0
   16.4005   -4.4184   44.4937 O   0  0  0  0  0  0  0  0  0  0  0  0
   16.7607   -3.4809   46.6351 O   0  0  0  0  0  0  0  0  0  0  0  0
   20.3261   -4.6501   46.8614 O   0  0  0  0  0  0  0  0  0  0  0  0
   18.0005   -3.2682   49.1586 O   0  0  0  0  0  0  0  0  0  0  0  0
   21.4580   -5.7381   48.5830 O   0  0  0  0  0  0  0  0  0  0  0  0
   22.6782   -5.3373   47.9371 C   0  0  2  0  0  0  0  0  0  0  0  0
   23.7559   -6.4369   48.0961 C   0  0  1  0  0  0  0  0  0  0  0  0
   24.1901   -6.6119   49.5837 C   0  0  2  0  0  0  0  0  0  0  0  0
   24.7383   -5.2575   50.1227 C   0  0  1  0  0  0  0  0  0  0  0  0
   23.5602   -4.2034   50.0037 C   0  0  1  0  0  0  0  0  0  0  0  0
   23.9807   -2.8193   50.4898 C   0  0  0  0  0  0  0  0  0  0  0  0
   25.1544   -5.4223   51.5448 N   0  0  0  0  0  0  0  0  0  0  0  0
   23.1686   -4.0780   48.5552 O   0  0  0  0  0  0  0  0  0  0  0  0
   23.2104   -7.6518   47.5472 O   0  0  0  0  0  0  0  0  0  0  0  0
   25.2046   -7.5927   49.6393 O   0  0  0  0  0  0  0  0  0  0  0  0
   25.0370   -2.3463   49.6963 O   0  0  0  0  0  0  0  0  0  0  0  0
   15.0182   -4.6150   44.2786 C   0  0  1  0  0  0  0  0  0  0  0  0
   14.5345   -3.5629   43.2294 C   0  0  1  0  0  0  0  0  0  0  0  0
   13.0052   -3.7477   43.0060 C   0  0  2  0  0  0  0  0  0  0  0  0
   12.6891   -5.1889   42.4994 C   0  0  1  0  0  0  0  0  0  0  0  0
   13.1838   -6.2580   43.5468 C   0  0  0  0  0  0  0  0  0  0  0  0
   14.7423   -6.0705   43.7666 C   0  0  2  0  0  0  0  0  0  0  0  0
   11.2215   -5.3422   42.2988 N   0  0  0  0  0  0  0  0  0  0  0  0
   15.1990   -7.0802   44.7480 N   0  0  0  0  0  0  0  0  0  0  0  0
   14.7821   -2.2280   43.7087 O   0  0  0  0  0  0  0  0  0  0  0  0
   12.5945   -2.7875   42.0467 O   0  0  0  0  0  0  0  0  0  0  0  0
  1  2  1  0  0  0  0
  1 12  1  6  0  0  0
  1 13  1  0  0  0  0
  2  3  1  0  0  0  0
  2 10  1  6  0  0  0
  4  3  1  6  0  0  0
  4  5  1  0  0  0  0
  4 14  1  0  0  0  0
  5  6  1  0  0  0  0
  5 13  1  1  0  0  0
  6  7  1  0  0  0  0
  6 15  1  1  0  0  0
  7  8  1  0  0  0  0
  7 11  1  1  0  0  0
  8 14  1  0  0  0  0
  8 16  1  6  0  0  0
  9 11  1  0  0  0  0
 17 16  1  1  0  0  0
 17 18  1  0  0  0  0
 17 24  1  0  0  0  0
 18 19  1  0  0  0  0
 18 25  1  1  0  0  0
 19 20  1  0  0  0  0
 19 26  1  6  0  0  0
 20 21  1  0  0  0  0
 20 23  1  1  0  0  0
 21 22  1  6  0  0  0
 21 24  1  0  0  0  0
 22 27  1  0  0  0  0
 28 12  1  6  0  0  0
 28 29  1  0  0  0  0
 28 33  1  0  0  0  0
 29 30  1  0  0  0  0
 29 36  1  1  0  0  0
 30 31  1  0  0  0  0
 30 37  1  6  0  0  0
 31 32  1  0  0  0  0
 31 34  1  1  0  0  0
 32 33  1  0  0  0  0
 33 35  1  1  0  0  0
M  END
>  <CHROM.1>
-144.76440206,168.22279945,172.70127495,-172.04887570,61.48126444,68.68881811
18.97114480,-4.67701567,46.80136842,-2.85317648,0.51417828,2.76206283

>  <Name>
2oe8_lig

>  <RI>
0

>  <Rbt.Current_Directory>
/home/itssahil/PROJECTS/Mol_Feturizer/New_Systems/rnas/2oe8

>  <Rbt.Executable>
rbdock ($Id: //depot/dev/client3/rdock/2013.1/src/exe/rbdock.cxx#4 $)

>  <Rbt.Library>
libRbt.so (2013.1, Build901 2013/11/27)

>  <Rbt.Parameter_File>
/export/apps/rDock/src/rDock_2013.1_src/data/scripts/dock_solv.prm

>  <Rbt.Receptor>
prm/blind_docking_60.prm

>  <SCORE>
-18.067

>  <SCORE.INTER>
-14.4681

>  <SCORE.INTER.CONST>
1

>  <SCORE.INTER.POLAR>
-1.35757

>  <SCORE.INTER.ROT>
6

>  <SCORE.INTER.SOLV>
20.388

>  <SCORE.INTER.VDW>
-19.5162

>  <SCORE.INTER.norm>
-0.391029

>  <SCORE.INTRA>
-3.59895

>  <SCORE.INTRA.DIHEDRAL>
-10.7464

>  <SCORE.INTRA.DIHEDRAL.0>
16.4056

>  <SCORE.INTRA.POLAR>
0

>  <SCORE.INTRA.POLAR.0>
0

>  <SCORE.INTRA.REPUL>
0

>  <SCORE.INTRA.REPUL.0>
0

>  <SCORE.INTRA.SOLV>
-1.49709

>  <SCORE.INTRA.SOLV.lig_0>
-90.9627

>  <SCORE.INTRA.VDW>
2.5228

>  <SCORE.INTRA.VDW.0>
-3.28744

>  <SCORE.INTRA.norm>
-0.0972689

>  <SCORE.RESTR>
0

>  <SCORE.RESTR.CAVITY>
0

>  <SCORE.RESTR.norm>
0

>  <SCORE.SYSTEM>
0

>  <SCORE.SYSTEM.CONST>
0

>  <SCORE.SYSTEM.DIHEDRAL>
0

>  <SCORE.SYSTEM.SOLV>
0

>  <SCORE.SYSTEM.norm>
0

>  <SCORE.heavy>
37

>  <SCORE.norm>
-0.488298

>  <RMSD>
10.425

$$$$
2oe8_lig
 OpenBabel11021811463D
libRbt.so/2013.1/901 2013/11/27
 37 40  0  0  0  0  0  0  0  0999 V2000
   21.4637    0.1015   51.4927 C   0  0  1  0  0  0  0  0  0  0  0  0
   21.9401   -0.8824   52.6277 C   0  0  1  0  0  0  0  0  0  0  0  0
   20.8806   -0.9200   53.7487 C   0  0  0  0  0  0  0  0  0  0  0  0
   20.7597    0.5428   54.2794 C   0  0  1  0  0  0  0  0  0  0  0  0
   20.2922    1.5664   53.1220 C   0  0  1  0  0  0  0  0  0  0  0  0
   20.1877    3.0314   53.6386 C   0  0  1  0  0  0  0  0  0  0  0  0
   19.1589    3.0344   54.8422 C   0  0  1  0  0  0  0  0  0  0  0  0
   19.6321    1.9936   55.9159 C   0  0  2  0  0  0  0  0  0  0  0  0
   17.8381    4.7542   56.3234 C   0  0  0  0  0  0  0  0  0  0  0  0
   22.1402   -2.2608   52.0779 N   0  0  0  0  0  0  0  0  0  0  0  0
   19.0231    4.4278   55.4499 N   0  0  0  0  0  0  0  0  0  0  0  0
   20.2348   -0.3328   50.8967 O   0  0  0  0  0  0  0  0  0  0  0  0
   21.2556    1.4839   52.0154 O   0  0  0  0  0  0  0  0  0  0  0  0
   19.7893    0.6151   55.3657 O   0  0  0  0  0  0  0  0  0  0  0  0
   21.4991    3.4293   54.0420 O   0  0  0  0  0  0  0  0  0  0  0  0
   18.7037    1.9496   56.9372 O   0  0  0  0  0  0  0  0  0  0  0  0
   19.0713    1.0569   58.0025 C   0  0  2  0  0  0  0  0  0  0  0  0
   17.9216    0.9492   59.0333 C   0  0  1  0  0  0  0  0  0  0  0  0
   17.6817    2.2989   59.7767 C   0  0  2  0  0  0  0  0  0  0  0  0
   18.9935    2.7306   60.4964 C   0  0  1  0  0  0  0  0  0  0  0  0
   20.1009    2.8986   59.3745 C   0  0  1  0  0  0  0  0  0  0  0  0
   21.4497    3.3077   59.9597 C   0  0  0  0  0  0  0  0  0  0  0  0
   18.7666    4.0207   61.2082 N   0  0  0  0  0  0  0  0  0  0  0  0
   20.2883    1.5764   58.6787 O   0  0  0  0  0  0  0  0  0  0  0  0
   16.7492    0.5102   58.3208 O   0  0  0  0  0  0  0  0  0  0  0  0
   16.6566    2.1070   60.7289 O   0  0  0  0  0  0  0  0  0  0  0  0
   22.4029    3.3772   58.9323 O   0  0  0  0  0  0  0  0  0  0  0  0
   20.3563   -1.5300   50.1567 C   0  0  1  0  0  0  0  0  0  0  0  0
   18.9435   -2.1914   50.0656 C   0  0  1  0  0  0  0  0  0  0  0  0
   19.0684   -3.5288   49.2790 C   0  0  2  0  0  0  0  0  0  0  0  0
   19.6324   -3.2785   47.8462 C   0  0  1  0  0  0  0  0  0  0  0  0
   21.0533   -2.6010   47.9280 C   0  0  0  0  0  0  0  0  0  0  0  0
   20.9206   -1.2369   48.7240 C   0  0  2  0  0  0  0  0  0  0  0  0
   19.7476   -4.5718   47.1169 N   0  0  0  0  0  0  0  0  0  0  0  0
   22.2578   -0.6058   48.7928 N   0  0  0  0  0  0  0  0  0  0  0  0
   18.4341   -2.4667   51.3839 O   0  0  0  0  0  0  0  0  0  0  0  0
   17.7741   -4.1034   49.2052 O   0  0  0  0  0  0  0  0  0  0  0  0
  1  2  1  0  0  0  0
  1 12  1  1  0  0  0
  1 13  1  0  0  0  0
  2  3  1  0  0  0  0
  2 10  1  6  0  0  0
  4  3  1  6  0  0  0
  4  5  1  0  0  0  0
  4 14  1  0  0  0  0
  5  6  1  0  0  0  0
  5 13  1  6  0  0  0
  6  7  1  0  0  0  0
  6 15  1  1  0  0  0
  7  8  1  0  0  0  0
  7 11  1  1  0  0  0
  8 14  1  0  0  0  0
  8 16  1  1  0  0  0
  9 11  1  0  0  0  0
 17 16  1  6  0  0  0
 17 18  1  0  0  0  0
 17 24  1  0  0  0  0
 18 19  1  0  0  0  0
 18 25  1  6  0  0  0
 19 20  1  0  0  0  0
 19 26  1  1  0  0  0
 20 21  1  0  0  0  0
 20 23  1  6  0  0  0
 21 22  1  1  0  0  0
 21 24  1  0  0  0  0
 22 27  1  0  0  0  0
 28 12  1  1  0  0  0
 28 29  1  0  0  0  0
 28 33  1  0  0  0  0
 29 30  1  0  0  0  0
 29 36  1  1  0  0  0
 30 31  1  0  0  0  0
 30 37  1  6  0  0  0
 31 32  1  0  0  0  0
 31 34  1  1  0  0  0
 32 33  1  0  0  0  0
 33 35  1  1  0  0  0
M  END
>  <CHROM.1>
-67.48724879,162.53030212,-177.80634026,-174.14036850,177.13114756,157.26110097
19.79448504,0.59363757,54.31214827,-1.43887676,0.72545276,0.99997990

>  <Name>
2oe8_lig

>  <RI>
0

>  <Rbt.Current_Directory>
/home/itssahil/PROJECTS/Mol_Feturizer/New_Systems/rnas/2oe8

>  <Rbt.Executable>
rbdock ($Id: //depot/dev/client3/rdock/2013.1/src/exe/rbdock.cxx#4 $)

>  <Rbt.Library>
libRbt.so (2013.1, Build901 2013/11/27)

>  <Rbt.Parameter_File>
/export/apps/rDock/src/rDock_2013.1_src/data/scripts/dock_solv.prm

>  <Rbt.Receptor>
prm/pocket_docking_8.prm

>  <SCORE>
-21.089

>  <SCORE.INTER>
-16.0256

>  <SCORE.INTER.CONST>
1

>  <SCORE.INTER.POLAR>
-2.3501

>  <SCORE.INTER.ROT>
6

>  <SCORE.INTER.SOLV>
9.76929

>  <SCORE.INTER.VDW>
-13.7065

>  <SCORE.INTER.norm>
-0.433126

>  <SCORE.INTRA>
-5.06333

>  <SCORE.INTRA.DIHEDRAL>
-13.3445

>  <SCORE.INTRA.DIHEDRAL.0>
16.4056

>  <SCORE.INTRA.POLAR>
0

>  <SCORE.INTRA.POLAR.0>
0

>  <SCORE.INTRA.REPUL>
0

>  <SCORE.INTRA.REPUL.0>
0

>  <SCORE.INTRA.SOLV>
1.16054

>  <SCORE.INTRA.SOLV.lig_0>
-90.9627

>  <SCORE.INTRA.VDW>
1.02864

>  <SCORE.INTRA.VDW.0>
-3.28744

>  <SCORE.INTRA.norm>
-0.136847

>  <SCORE.RESTR>
0

>  <SCORE.RESTR.CAVITY>
0

>  <SCORE.RESTR.norm>
0

>  <SCORE.SYSTEM>
0

>  <SCORE.SYSTEM.CONST>
0

>  <SCORE.SYSTEM.DIHEDRAL>
0

>  <SCORE.SYSTEM.SOLV>
0

>  <SCORE.SYSTEM.norm>
0

>  <SCORE.heavy>
37

>  <SCORE.norm>
-0.569972

>  <RMSD>
10.426

$$$$
2oe8_lig
 OpenBabel11021811463D
libRbt.so/2013.1/901 2013/11/27
 37 40  0  0  0  0  0  0  0  0999 V2000
   17.4847   -5.7611   46.3661 C   0  0  1  0  0  0  0  0  0  0  0  0
   16.9673   -4.9112   47.5882 C   0  0  1  0  0  0  0  0  0  0  0  0
   18.1244   -4.0517   48.1387 C   0  0  0  0  0  0  0  0  0  0  0  0
   19.2384   -5.0538   48.5753 C   0  0  1  0  0  0  0  0  0  0  0  0
   19.7641   -5.9465   47.3372 C   0  0  1  0  0  0  0  0  0  0  0  0
   20.8623   -6.9623   47.7682 C   0  0  1  0  0  0  0  0  0  0  0  0
   22.0489   -6.1309   48.4068 C   0  0  1  0  0  0  0  0  0  0  0  0
   21.4798   -5.2484   49.5717 C   0  0  2  0  0  0  0  0  0  0  0  0
   24.4266   -7.2027   48.1000 C   0  0  0  0  0  0  0  0  0  0  0  0
   15.8362   -4.0239   47.1693 N   0  0  0  0  0  0  0  0  0  0  0  0
   23.1614   -7.0489   48.9058 N   0  0  0  0  0  0  0  0  0  0  0  0
   17.9363   -4.9253   45.2931 O   0  0  0  0  0  0  0  0  0  0  0  0
   18.6145   -6.6546   46.7571 O   0  0  0  0  0  0  0  0  0  0  0  0
   20.3803   -4.3388   49.1339 O   0  0  0  0  0  0  0  0  0  0  0  0
   20.2611   -7.8596   48.7032 O   0  0  0  0  0  0  0  0  0  0  0  0
   22.5010   -4.4761   50.0892 O   0  0  0  0  0  0  0  0  0  0  0  0
   23.0852   -3.5843   49.1247 C   0  0  2  0  0  0  0  0  0  0  0  0
   24.4278   -3.0256   49.6545 C   0  0  1  0  0  0  0  0  0  0  0  0
   24.2229   -2.1077   50.8985 C   0  0  2  0  0  0  0  0  0  0  0  0
   23.2771   -0.9301   50.5193 C   0  0  1  0  0  0  0  0  0  0  0  0
   21.9009   -1.5723   50.0647 C   0  0  1  0  0  0  0  0  0  0  0  0
   20.8853   -0.5119   49.6485 C   0  0  0  0  0  0  0  0  0  0  0  0
   23.0798   -0.0509   51.7070 N   0  0  0  0  0  0  0  0  0  0  0  0
   22.1510   -2.4566   48.8719 O   0  0  0  0  0  0  0  0  0  0  0  0
   25.2728   -4.1540   49.9503 O   0  0  0  0  0  0  0  0  0  0  0  0
   25.4815   -1.6011   51.2906 O   0  0  0  0  0  0  0  0  0  0  0  0
   19.6500   -1.1246   49.3886 O   0  0  0  0  0  0  0  0  0  0  0  0
   17.2083   -5.0991   44.0949 C   0  0  1  0  0  0  0  0  0  0  0  0
   17.0634   -6.6325   43.8316 C   0  0  1  0  0  0  0  0  0  0  0  0
   16.2898   -6.8386   42.4967 C   0  0  2  0  0  0  0  0  0  0  0  0
   14.8798   -6.1747   42.5650 C   0  0  1  0  0  0  0  0  0  0  0  0
   15.0156   -4.6288   42.8416 C   0  0  0  0  0  0  0  0  0  0  0  0
   15.7982   -4.4235   44.2045 C   0  0  2  0  0  0  0  0  0  0  0  0
   14.1627   -6.3806   41.2761 N   0  0  0  0  0  0  0  0  0  0  0  0
   15.9179   -2.9701   44.4584 N   0  0  0  0  0  0  0  0  0  0  0  0
   18.3614   -7.2463   43.7228 O   0  0  0  0  0  0  0  0  0  0  0  0
   16.1665   -8.2355   42.2857 O   0  0  0  0  0  0  0  0  0  0  0  0
  1  2  1  0  0  0  0
  1 12  1  6  0  0  0
  1 13  1  0  0  0  0
  2  3  1  0  0  0  0
  2 10  1  6  0  0  0
  4  3  1  6  0  0  0
  4  5  1  0  0  0  0
  4 14  1  0  0  0  0
  5  6  1  0  0  0  0
  5 13  1  1  0  0  0
  6  7  1  0  0  0  0
  6 15  1  1  0  0  0
  7  8  1  0  0  0  0
  7 11  1  1  0  0  0
  8 14  1  0  0  0  0
  8 16  1  6  0  0  0
  9 11  1  0  0  0  0
 17 16  1  1  0  0  0
 17 18  1  0  0  0  0
 17 24  1  0  0  0  0
 18 19  1  0  0  0  0
 18 25  1  1  0  0  0
 19 20  1  0  0  0  0
 19 26  1  6  0  0  0
 20 21  1  0  0  0  0
 20 23  1  1  0  0  0
 21 22  1  6  0  0  0
 21 24  1  0  0  0  0
 22 27  1  0  0  0  0
 28 12  1  1  0  0  0
 28 29  1  0  0  0  0
 28 33  1  0  0  0  0
 29 30  1  0  0  0  0
 29 36  1  6  0  0  0
 30 31  1  0  0  0  0
 30 37  1  1  0  0  0
 31 32  1  0  0  0  0
 31 34  1  6  0  0  0
 32 33  1  0  0  0  0
 33 35  1  6  0  0  0
M  END
>  <CHROM.1>
-118.54213683,102.81562774,60.68418730,-165.63075424,-174.02998209,-46.41671849
19.86506887,-4.61403569,47.34186010,2.56378901,0.56903975,-2.71059329

>  <Name>
2oe8_lig

>  <RI>
0

>  <Rbt.Current_Directory>
/home/itssahil/PROJECTS/Mol_Feturizer/New_Systems/rnas/2oe8

>  <Rbt.Executable>
rbdock ($Id: //depot/dev/client3/rdock/2013.1/src/exe/rbdock.cxx#4 $)

>  <Rbt.Library>
libRbt.so (2013.1, Build901 2013/11/27)

>  <Rbt.Parameter_File>
/export/apps/rDock/src/rDock_2013.1_src/data/scripts/dock_solv.prm

>  <Rbt.Receptor>
prm/blind_docking_60.prm

>  <SCORE>
-13.8512

>  <SCORE.INTER>
-13.839

>  <SCORE.INTER.CONST>
1

>  <SCORE.INTER.POLAR>
-2.07397

>  <SCORE.INTER.ROT>
6

>  <SCORE.INTER.SOLV>
12.9613

>  <SCORE.INTER.VDW>
-14.2332

>  <SCORE.INTER.norm>
-0.374028

>  <SCORE.INTRA>
-0.0121115

>  <SCORE.INTRA.DIHEDRAL>
-6.25722

>  <SCORE.INTRA.DIHEDRAL.0>
16.4056

>  <SCORE.INTRA.POLAR>
0

>  <SCORE.INTRA.POLAR.0>
0

>  <SCORE.INTRA.REPUL>
0

>  <SCORE.INTRA.REPUL.0>
0

>  <SCORE.INTRA.SOLV>
2.24327

>  <SCORE.INTRA.SOLV.lig_0>
-90.9627

>  <SCORE.INTRA.VDW>
1.99487

>  <SCORE.INTRA.VDW.0>
-3.28744

>  <SCORE.INTRA.norm>
-0.000327338

>  <SCORE.RESTR>
0

>  <SCORE.RESTR.CAVITY>
0

>  <SCORE.RESTR.norm>
0

>  <SCORE.SYSTEM>
0

>  <SCORE.SYSTEM.CONST>
0

>  <SCORE.SYSTEM.DIHEDRAL>
0

>  <SCORE.SYSTEM.SOLV>
0

>  <SCORE.SYSTEM.norm>
0

>  <SCORE.heavy>
37

>  <SCORE.norm>
-0.374356

>  <RMSD>
10.471

$$$$
2oe8_lig
 OpenBabel11021811463D
libRbt.so/2013.1/901 2013/11/27
 37 40  0  0  0  0  0  0  0  0999 V2000
   16.3691   -4.8260   44.8593 C   0  0  1  0  0  0  0  0  0  0  0  0
   16.5677   -3.2962   44.5372 C   0  0  1  0  0  0  0  0  0  0  0  0
   17.9850   -2.8637   44.9670 C   0  0  0  0  0  0  0  0  0  0  0  0
   18.0745   -3.1369   46.5010 C   0  0  1  0  0  0  0  0  0  0  0  0
   17.8523   -4.6977   46.8485 C   0  0  1  0  0  0  0  0  0  0  0  0
   17.9210   -4.9759   48.3788 C   0  0  1  0  0  0  0  0  0  0  0  0
   19.3380   -4.4826   48.8843 C   0  0  1  0  0  0  0  0  0  0  0  0
   19.5235   -2.9777   48.4833 C   0  0  2  0  0  0  0  0  0  0  0  0
   19.6681   -6.0559   50.9609 C   0  0  0  0  0  0  0  0  0  0  0  0
   16.3856   -3.0399   43.0732 N   0  0  0  0  0  0  0  0  0  0  0  0
   19.4839   -4.6717   50.3918 N   0  0  0  0  0  0  0  0  0  0  0  0
   17.2970   -5.6443   44.1359 O   0  0  0  0  0  0  0  0  0  0  0  0
   16.5466   -5.1088   46.3140 O   0  0  0  0  0  0  0  0  0  0  0  0
   19.3798   -2.7405   47.0167 O   0  0  0  0  0  0  0  0  0  0  0  0
   16.8458   -4.2568   48.9852 O   0  0  0  0  0  0  0  0  0  0  0  0
   20.7833   -2.5632   48.8682 O   0  0  0  0  0  0  0  0  0  0  0  0
   21.0287   -1.1707   48.6078 C   0  0  2  0  0  0  0  0  0  0  0  0
   22.4315   -0.7675   49.1227 C   0  0  1  0  0  0  0  0  0  0  0  0
   22.5249   -0.8532   50.6771 C   0  0  2  0  0  0  0  0  0  0  0  0
   21.4465    0.0753   51.3096 C   0  0  1  0  0  0  0  0  0  0  0  0
   20.0367   -0.4446   50.8040 C   0  0  1  0  0  0  0  0  0  0  0  0
   18.8878    0.4007   51.3466 C   0  0  0  0  0  0  0  0  0  0  0  0
   21.5339   -0.0047   52.7957 N   0  0  0  0  0  0  0  0  0  0  0  0
   19.9989   -0.3541   49.3014 O   0  0  0  0  0  0  0  0  0  0  0  0
   23.3875   -1.6299   48.4768 O   0  0  0  0  0  0  0  0  0  0  0  0
   23.8121   -0.4255   51.0703 O   0  0  0  0  0  0  0  0  0  0  0  0
   18.7954    0.2269   52.7359 O   0  0  0  0  0  0  0  0  0  0  0  0
   16.9423   -7.0114   44.1055 C   0  0  1  0  0  0  0  0  0  0  0  0
   17.0796   -7.5821   45.5537 C   0  0  1  0  0  0  0  0  0  0  0  0
   16.7218   -9.0968   45.5290 C   0  0  2  0  0  0  0  0  0  0  0  0
   15.2681   -9.3146   45.0066 C   0  0  1  0  0  0  0  0  0  0  0  0
   15.1171   -8.7317   43.5498 C   0  0  0  0  0  0  0  0  0  0  0  0
   15.4761   -7.1883   43.5805 C   0  0  2  0  0  0  0  0  0  0  0  0
   14.9522  -10.7698   44.9872 N   0  0  0  0  0  0  0  0  0  0  0  0
   15.3281   -6.6484   42.2102 N   0  0  0  0  0  0  0  0  0  0  0  0
   18.4302   -7.4253   46.0274 O   0  0  0  0  0  0  0  0  0  0  0  0
   16.8474   -9.5870   46.8538 O   0  0  0  0  0  0  0  0  0  0  0  0
  1  2  1  0  0  0  0
  1 12  1  6  0  0  0
  1 13  1  0  0  0  0
  2  3  1  0  0  0  0
  2 10  1  6  0  0  0
  4  3  1  6  0  0  0
  4  5  1  0  0  0  0
  4 14  1  0  0  0  0
  5  6  1  0  0  0  0
  5 13  1  1  0  0  0
  6  7  1  0  0  0  0
  6 15  1  1  0  0  0
  7  8  1  0  0  0  0
  7 11  1  1  0  0  0
  8 14  1  0  0  0  0
  8 16  1  6  0  0  0
  9 11  1  0  0  0  0
 17 16  1  1  0  0  0
 17 18  1  0  0  0  0
 17 24  1  0  0  0  0
 18 19  1  0  0  0  0
 18 25  1  6  0  0  0
 19 20  1  0  0  0  0
 19 26  1  1  0  0  0
 20 21  1  0  0  0  0
 20 23  1  1  0  0  0
 21 22  1  1  0  0  0
 21 24  1  0  0  0  0
 22 27  1  0  0  0  0
 28 12  1  1  0  0  0
 28 29  1  0  0  0  0
 28 33  1  0  0  0  0
 29 30  1  0  0  0  0
 29 36  1  6  0  0  0
 30 31  1  0  0  0  0
 30 37  1  1  0  0  0
 31 32  1  0  0  0  0
 31 34  1  6  0  0  0
 32 33  1  0  0  0  0
 33 35  1  6  0  0  0
M  END
>  <CHROM.1>
-164.05179762,72.97790931,-176.90119553,177.44357411,-67.02942044,-67.92268901
18.57660525,-4.13050732,47.52606915,2.94696732,1.05484408,2.51743771

>  <Name>
2oe8_lig

>  <RI>
0

>  <Rbt.Current_Directory>
/home/itssahil/PROJECTS/Mol_Feturizer/New_Systems/rnas/2oe8

>  <Rbt.Executable>
rbdock ($Id: //depot/dev/client3/rdock/2013.1/src/exe/rbdock.cxx#4 $)

>  <Rbt.Library>
libRbt.so (2013.1, Build901 2013/11/27)

>  <Rbt.Parameter_File>
/export/apps/rDock/src/rDock_2013.1_src/data/scripts/dock_solv.prm

>  <Rbt.Receptor>
prm/blind_docking_60.prm

>  <SCORE>
-23.8046

>  <SCORE.INTER>
-18.9266

>  <SCORE.INTER.CONST>
1

>  <SCORE.INTER.POLAR>
-1.91101

>  <SCORE.INTER.ROT>
6

>  <SCORE.INTER.SOLV>
10.016

>  <SCORE.INTER.VDW>
-17.1864

>  <SCORE.INTER.norm>
-0.511531

>  <SCORE.INTRA>
-4.87792

>  <SCORE.INTRA.DIHEDRAL>
-14.4626

>  <SCORE.INTRA.DIHEDRAL.0>
16.4056

>  <SCORE.INTRA.POLAR>
0

>  <SCORE.INTRA.POLAR.0>
0

>  <SCORE.INTRA.REPUL>
0

>  <SCORE.INTRA.REPUL.0>
0

>  <SCORE.INTRA.SOLV>
-0.409846

>  <SCORE.INTRA.SOLV.lig_0>
-90.9627

>  <SCORE.INTRA.VDW>
2.55831

>  <SCORE.INTRA.VDW.0>
-3.28744

>  <SCORE.INTRA.norm>
-0.131836

>  <SCORE.RESTR>
0

>  <SCORE.RESTR.CAVITY>
0

>  <SCORE.RESTR.norm>
0

>  <SCORE.SYSTEM>
0

>  <SCORE.SYSTEM.CONST>
0

>  <SCORE.SYSTEM.DIHEDRAL>
0

>  <SCORE.SYSTEM.SOLV>
0

>  <SCORE.SYSTEM.norm>
0

>  <SCORE.heavy>
37

>  <SCORE.norm>
-0.643367

>  <RMSD>
10.529

$$$$
2oe8_lig
 OpenBabel11021811463D
libRbt.so/2013.1/901 2013/11/27
 37 40  0  0  0  0  0  0  0  0999 V2000
   18.5124   -5.6880   46.1599 C   0  0  1  0  0  0  0  0  0  0  0  0
   17.5477   -4.6704   46.8791 C   0  0  1  0  0  0  0  0  0  0  0  0
   18.3420   -3.4099   47.2801 C   0  0  0  0  0  0  0  0  0  0  0  0
   19.4713   -3.8973   48.2409 C   0  0  1  0  0  0  0  0  0  0  0  0
   20.4560   -4.9567   47.5240 C   0  0  1  0  0  0  0  0  0  0  0  0
   21.5744   -5.4626   48.4818 C   0  0  1  0  0  0  0  0  0  0  0  0
   22.3791   -4.1928   48.9788 C   0  0  1  0  0  0  0  0  0  0  0  0
   21.3740   -3.1767   49.6246 C   0  0  2  0  0  0  0  0  0  0  0  0
   24.8821   -4.8139   49.4745 C   0  0  0  0  0  0  0  0  0  0  0  0
   16.4189   -4.2869   45.9729 N   0  0  0  0  0  0  0  0  0  0  0  0
   23.4751   -4.5845   49.9661 N   0  0  0  0  0  0  0  0  0  0  0  0
   19.0628   -5.1363   44.9571 O   0  0  0  0  0  0  0  0  0  0  0  0
   19.6482   -6.0860   47.0426 O   0  0  0  0  0  0  0  0  0  0  0  0
   20.2760   -2.7704   48.6988 O   0  0  0  0  0  0  0  0  0  0  0  0
   20.9293   -6.1525   49.5536 O   0  0  0  0  0  0  0  0  0  0  0  0
   22.0644   -2.0420   50.0026 O   0  0  0  0  0  0  0  0  0  0  0  0
   21.4629   -1.3526   51.1116 C   0  0  2  0  0  0  0  0  0  0  0  0
   20.8435   -0.0149   50.6399 C   0  0  1  0  0  0  0  0  0  0  0  0
   21.9337    0.9894   50.1551 C   0  0  2  0  0  0  0  0  0  0  0  0
   22.9397    1.2561   51.3135 C   0  0  1  0  0  0  0  0  0  0  0  0
   23.5914   -0.1396   51.6886 C   0  0  1  0  0  0  0  0  0  0  0  0
   24.5929   -0.0135   52.8331 C   0  0  0  0  0  0  0  0  0  0  0  0
   23.9829    2.2162   50.8525 N   0  0  0  0  0  0  0  0  0  0  0  0
   22.5016   -1.0765   52.1380 O   0  0  0  0  0  0  0  0  0  0  0  0
   19.8965   -0.3261   49.6001 O   0  0  0  0  0  0  0  0  0  0  0  0
   21.2971    2.1957   49.7893 O   0  0  0  0  0  0  0  0  0  0  0  0
   25.6895    0.7541   52.4119 O   0  0  0  0  0  0  0  0  0  0  0  0
   18.1488   -5.1005   43.8805 C   0  0  1  0  0  0  0  0  0  0  0  0
   18.7016   -4.1102   42.8055 C   0  0  1  0  0  0  0  0  0  0  0  0
   17.6879   -4.0370   41.6265 C   0  0  2  0  0  0  0  0  0  0  0  0
   17.4729   -5.4458   40.9920 C   0  0  1  0  0  0  0  0  0  0  0  0
   16.9256   -6.4548   42.0723 C   0  0  0  0  0  0  0  0  0  0  0  0
   17.9635   -6.5312   43.2678 C   0  0  2  0  0  0  0  0  0  0  0  0
   16.4964   -5.3503   39.8717 N   0  0  0  0  0  0  0  0  0  0  0  0
   17.4440   -7.4832   44.2753 N   0  0  0  0  0  0  0  0  0  0  0  0
   18.8612   -2.7958   43.3712 O   0  0  0  0  0  0  0  0  0  0  0  0
   18.2160   -3.1391   40.6644 O   0  0  0  0  0  0  0  0  0  0  0  0
  1  2  1  0  0  0  0
  1 12  1  6  0  0  0
  1 13  1  0  0  0  0
  2  3  1  0  0  0  0
  2 10  1  6  0  0  0
  4  3  1  6  0  0  0
  4  5  1  0  0  0  0
  4 14  1  0  0  0  0
  5  6  1  0  0  0  0
  5 13  1  1  0  0  0
  6  7  1  0  0  0  0
  6 15  1  1  0  0  0
  7  8  1  0  0  0  0
  7 11  1  1  0  0  0
  8 14  1  0  0  0  0
  8 16  1  6  0  0  0
  9 11  1  0  0  0  0
 17 16  1  6  0  0  0
 17 18  1  0  0  0  0
 17 24  1  0  0  0  0
 18 19  1  0  0  0  0
 18 25  1  6  0  0  0
 19 20  1  0  0  0  0
 19 26  1  1  0  0  0
 20 21  1  0  0  0  0
 20 23  1  6  0  0  0
 21 22  1  1  0  0  0
 21 24  1  0  0  0  0
 22 27  1  0  0  0  0
 28 12  1  1  0  0  0
 28 29  1  0  0  0  0
 28 33  1  0  0  0  0
 29 30  1  0  0  0  0
 29 36  1  1  0  0  0
 30 31  1  0  0  0  0
 30 37  1  6  0  0  0
 31 32  1  0  0  0  0
 31 34  1  6  0  0  0
 32 33  1  0  0  0  0
 33 35  1  1  0  0  0
M  END
>  <CHROM.1>
-75.52465271,94.92510508,-152.14111752,-109.63063075,-65.97608165,162.94854914
20.38664376,-3.13664464,47.44522512,-2.71122624,-1.00556007,-0.03417509

>  <Name>
2oe8_lig

>  <RI>
0

>  <Rbt.Current_Directory>
/home/itssahil/PROJECTS/Mol_Feturizer/New_Systems/rnas/2oe8

>  <Rbt.Executable>
rbdock ($Id: //depot/dev/client3/rdock/2013.1/src/exe/rbdock.cxx#4 $)

>  <Rbt.Library>
libRbt.so (2013.1, Build901 2013/11/27)

>  <Rbt.Parameter_File>
/export/apps/rDock/src/rDock_2013.1_src/data/scripts/dock_solv.prm

>  <Rbt.Receptor>
prm/blind_docking_60.prm

>  <SCORE>
-19.9324

>  <SCORE.INTER>
-20.0205

>  <SCORE.INTER.CONST>
1

>  <SCORE.INTER.POLAR>
-1.98509

>  <SCORE.INTER.ROT>
6

>  <SCORE.INTER.SOLV>
15.1382

>  <SCORE.INTER.VDW>
-19.3761

>  <SCORE.INTER.norm>
-0.541094

>  <SCORE.INTRA>
0.0834464

>  <SCORE.INTRA.DIHEDRAL>
-3.14864

>  <SCORE.INTRA.DIHEDRAL.0>
16.4056

>  <SCORE.INTRA.POLAR>
0

>  <SCORE.INTRA.POLAR.0>
0

>  <SCORE.INTRA.REPUL>
0

>  <SCORE.INTRA.REPUL.0>
0

>  <SCORE.INTRA.SOLV>
2.12124

>  <SCORE.INTRA.SOLV.lig_0>
-90.9627

>  <SCORE.INTRA.VDW>
0.597143

>  <SCORE.INTRA.VDW.0>
-3.28744

>  <SCORE.INTRA.norm>
0.00225531

>  <SCORE.RESTR>
0.00468274

>  <SCORE.RESTR.CAVITY>
0.00468274

>  <SCORE.RESTR.norm>
0.00012656

>  <SCORE.SYSTEM>
0

>  <SCORE.SYSTEM.CONST>
0

>  <SCORE.SYSTEM.DIHEDRAL>
0

>  <SCORE.SYSTEM.SOLV>
0

>  <SCORE.SYSTEM.norm>
0

>  <SCORE.heavy>
37

>  <SCORE.norm>
-0.538712

>  <RMSD>
10.548

$$$$
2oe8_lig
 OpenBabel11021811463D
libRbt.so/2013.1/901 2013/11/27
 37 40  0  0  0  0  0  0  0  0999 V2000
   15.5306   -5.3745   45.9426 C   0  0  1  0  0  0  0  0  0  0  0  0
   15.6557   -3.8755   45.4726 C   0  0  1  0  0  0  0  0  0  0  0  0
   17.1332   -3.4377   45.5500 C   0  0  0  0  0  0  0  0  0  0  0  0
   17.5556   -3.6014   47.0435 C   0  0  1  0  0  0  0  0  0  0  0  0
   17.4130   -5.1290   47.5456 C   0  0  1  0  0  0  0  0  0  0  0  0
   17.8143   -5.2975   49.0404 C   0  0  1  0  0  0  0  0  0  0  0  0
   19.3081   -4.7937   49.1870 C   0  0  1  0  0  0  0  0  0  0  0  0
   19.4031   -3.3250   48.6450 C   0  0  2  0  0  0  0  0  0  0  0  0
   21.2354   -4.6612   50.9660 C   0  0  0  0  0  0  0  0  0  0  0  0
   15.1582   -3.7222   44.0686 N   0  0  0  0  0  0  0  0  0  0  0  0
   19.7798   -4.8763   50.6362 N   0  0  0  0  0  0  0  0  0  0  0  0
   16.2770   -6.2587   45.0970 O   0  0  0  0  0  0  0  0  0  0  0  0
   16.0215   -5.5549   47.3405 O   0  0  0  0  0  0  0  0  0  0  0  0
   18.9426   -3.1915   47.2315 O   0  0  0  0  0  0  0  0  0  0  0  0
   16.8985   -4.5182   49.8117 O   0  0  0  0  0  0  0  0  0  0  0  0
   20.7171   -2.9057   48.7143 O   0  0  0  0  0  0  0  0  0  0  0  0
   20.8804   -1.5003   48.4588 C   0  0  2  0  0  0  0  0  0  0  0  0
   22.3122   -1.0491   48.8356 C   0  0  1  0  0  0  0  0  0  0  0  0
   22.5686   -1.1565   50.3701 C   0  0  2  0  0  0  0  0  0  0  0  0
   21.5260   -0.2830   51.1286 C   0  0  1  0  0  0  0  0  0  0  0  0
   20.0928   -0.8512   50.7595 C   0  0  1  0  0  0  0  0  0  0  0  0
   18.9742   -0.0622   51.4340 C   0  0  0  0  0  0  0  0  0  0  0  0
   21.7692   -0.3838   52.5960 N   0  0  0  0  0  0  0  0  0  0  0  0
   19.8968   -0.7376   49.2708 O   0  0  0  0  0  0  0  0  0  0  0  0
   23.2291   -1.8613   48.0776 O   0  0  0  0  0  0  0  0  0  0  0  0
   23.8719   -0.6836   50.6382 O   0  0  0  0  0  0  0  0  0  0  0  0
   17.7544   -0.7312   51.2507 O   0  0  0  0  0  0  0  0  0  0  0  0
   16.0695   -7.6263   45.3840 C   0  0  1  0  0  0  0  0  0  0  0  0
   14.7039   -8.0535   44.7560 C   0  0  1  0  0  0  0  0  0  0  0  0
   14.4473   -9.5516   45.0918 C   0  0  2  0  0  0  0  0  0  0  0  0
   15.5942  -10.4493   44.5330 C   0  0  1  0  0  0  0  0  0  0  0  0
   16.9779  -10.0182   45.1527 C   0  0  0  0  0  0  0  0  0  0  0  0
   17.2383   -8.4942   44.8032 C   0  0  2  0  0  0  0  0  0  0  0  0
   15.3288  -11.8750   44.8715 N   0  0  0  0  0  0  0  0  0  0  0  0
   18.5407   -8.0989   45.3853 N   0  0  0  0  0  0  0  0  0  0  0  0
   13.6330   -7.2593   45.2996 O   0  0  0  0  0  0  0  0  0  0  0  0
   13.2080   -9.9145   44.5057 O   0  0  0  0  0  0  0  0  0  0  0  0
  1  2  1  0  0  0  0
  1 12  1  6  0  0  0
  1 13  1  0  0  0  0
  2  3  1  0  0  0  0
  2 10  1  6  0  0  0
  4  3  1  6  0  0  0
  4  5  1  0  0  0  0
  4 14  1  0  0  0  0
  5  6  1  0  0  0  0
  5 13  1  1  0  0  0
  6  7  1  0  0  0  0
  6 15  1  1  0  0  0
  7  8  1  0  0  0  0
  7 11  1  1  0  0  0
  8 14  1  0  0  0  0
  8 16  1  6  0  0  0
  9 11  1  0  0  0  0
 17 16  1  1  0  0  0
 17 18  1  0  0  0  0
 17 24  1  0  0  0  0
 18 19  1  0  0  0  0
 18 25  1  6  0  0  0
 19 20  1  0  0  0  0
 19 26  1  6  0  0  0
 20 21  1  0  0  0  0
 20 23  1  1  0  0  0
 21 22  1  1  0  0  0
 21 24  1  0  0  0  0
 22 27  1  0  0  0  0
 28 12  1  6  0  0  0
 28 29  1  0  0  0  0
 28 33  1  0  0  0  0
 29 30  1  0  0  0  0
 29 36  1  1  0  0  0
 30 31  1  0  0  0  0
 30 37  1  6  0  0  0
 31 32  1  0  0  0  0
 31 34  1  1  0  0  0
 32 33  1  0  0  0  0
 33 35  1  1  0  0  0
M  END
>  <CHROM.1>
-172.98873381,170.01875921,-169.91702098,168.36558576,-170.55393119,78.45729506
18.21089109,-4.59514694,47.72322455,2.21199498,0.40468096,-2.79718130

>  <Name>
2oe8_lig

>  <RI>
0

>  <Rbt.Current_Directory>
/home/itssahil/PROJECTS/Mol_Feturizer/New_Systems/rnas/2oe8

>  <Rbt.Executable>
rbdock ($Id: //depot/dev/client3/rdock/2013.1/src/exe/rbdock.cxx#4 $)

>  <Rbt.Library>
libRbt.so (2013.1, Build901 2013/11/27)

>  <Rbt.Parameter_File>
/export/apps/rDock/src/rDock_2013.1_src/data/scripts/dock_solv.prm

>  <Rbt.Receptor>
prm/pocket_docking_8.prm

>  <SCORE>
-24.55

>  <SCORE.INTER>
-18.0307

>  <SCORE.INTER.CONST>
1

>  <SCORE.INTER.POLAR>
-1.82591

>  <SCORE.INTER.ROT>
6

>  <SCORE.INTER.SOLV>
11.6299

>  <SCORE.INTER.VDW>
-17.4107

>  <SCORE.INTER.norm>
-0.487316

>  <SCORE.INTRA>
-6.5193

>  <SCORE.INTRA.DIHEDRAL>
-13.0146

>  <SCORE.INTRA.DIHEDRAL.0>
16.4056

>  <SCORE.INTRA.POLAR>
0

>  <SCORE.INTRA.POLAR.0>
0

>  <SCORE.INTRA.REPUL>
0.0140752

>  <SCORE.INTRA.REPUL.0>
0

>  <SCORE.INTRA.SOLV>
-2.25252

>  <SCORE.INTRA.SOLV.lig_0>
-90.9627

>  <SCORE.INTRA.VDW>
1.04388

>  <SCORE.INTRA.VDW.0>
-3.28744

>  <SCORE.INTRA.norm>
-0.176197

>  <SCORE.RESTR>
0

>  <SCORE.RESTR.CAVITY>
0

>  <SCORE.RESTR.norm>
0

>  <SCORE.SYSTEM>
0

>  <SCORE.SYSTEM.CONST>
0

>  <SCORE.SYSTEM.DIHEDRAL>
0

>  <SCORE.SYSTEM.SOLV>
0

>  <SCORE.SYSTEM.norm>
0

>  <SCORE.heavy>
37

>  <SCORE.norm>
-0.663514

>  <RMSD>
10.552

$$$$
2oe8_lig
 OpenBabel11021811463D
libRbt.so/2013.1/901 2013/11/27
 37 40  0  0  0  0  0  0  0  0999 V2000
   16.8976   -4.9064   44.6143 C   0  0  1  0  0  0  0  0  0  0  0  0
   16.9510   -3.3565   44.3341 C   0  0  1  0  0  0  0  0  0  0  0  0
   18.2372   -2.7699   44.9524 C   0  0  0  0  0  0  0  0  0  0  0  0
   18.1570   -3.0677   46.4823 C   0  0  1  0  0  0  0  0  0  0  0  0
   18.0808   -4.6517   46.7841 C   0  0  1  0  0  0  0  0  0  0  0  0
   17.9812   -4.9567   48.3076 C   0  0  1  0  0  0  0  0  0  0  0  0
   19.2499   -4.3117   49.0013 C   0  0  1  0  0  0  0  0  0  0  0  0
   19.3037   -2.7862   48.6411 C   0  0  2  0  0  0  0  0  0  0  0  0
   19.2931   -5.9130   51.0823 C   0  0  0  0  0  0  0  0  0  0  0  0
   16.9329   -3.0883   42.8610 N   0  0  0  0  0  0  0  0  0  0  0  0
   19.2185   -4.5186   50.5131 N   0  0  0  0  0  0  0  0  0  0  0  0
   18.0041   -5.5915   44.0141 O   0  0  0  0  0  0  0  0  0  0  0  0
   16.9155   -5.2013   46.0773 O   0  0  0  0  0  0  0  0  0  0  0  0
   19.3261   -2.5322   47.1704 O   0  0  0  0  0  0  0  0  0  0  0  0
   16.7570   -4.3848   48.7715 O   0  0  0  0  0  0  0  0  0  0  0  0
   20.4430   -2.2350   49.1936 O   0  0  0  0  0  0  0  0  0  0  0  0
   20.5185   -0.8079   49.0369 C   0  0  2  0  0  0  0  0  0  0  0  0
   21.8935   -0.2869   49.5204 C   0  0  1  0  0  0  0  0  0  0  0  0
   22.0783   -0.4791   51.0569 C   0  0  2  0  0  0  0  0  0  0  0  0
   20.9389    0.2689   51.8101 C   0  0  1  0  0  0  0  0  0  0  0  0
   19.5705   -0.3691   51.3268 C   0  0  1  0  0  0  0  0  0  0  0  0
   18.3656    0.2954   51.9868 C   0  0  0  0  0  0  0  0  0  0  0  0
   21.1136    0.0868   53.2794 N   0  0  0  0  0  0  0  0  0  0  0  0
   19.4431   -0.1696   49.8397 O   0  0  0  0  0  0  0  0  0  0  0  0
   22.9034   -0.9825   48.7646 O   0  0  0  0  0  0  0  0  0  0  0  0
   23.3294    0.0620   51.4263 O   0  0  0  0  0  0  0  0  0  0  0  0
   18.3598    1.6643   51.6783 O   0  0  0  0  0  0  0  0  0  0  0  0
   17.8408   -6.9938   43.9613 C   0  0  1  0  0  0  0  0  0  0  0  0
   17.9977   -7.5569   45.4104 C   0  0  1  0  0  0  0  0  0  0  0  0
   17.8512   -9.1058   45.3624 C   0  0  2  0  0  0  0  0  0  0  0  0
   16.4625   -9.5135   44.7804 C   0  0  1  0  0  0  0  0  0  0  0  0
   16.2906   -8.9401   43.3222 C   0  0  0  0  0  0  0  0  0  0  0  0
   16.4341   -7.3625   43.3764 C   0  0  2  0  0  0  0  0  0  0  0  0
   16.3491  -10.9978   44.7397 N   0  0  0  0  0  0  0  0  0  0  0  0
   16.2676   -6.8323   42.0045 N   0  0  0  0  0  0  0  0  0  0  0  0
   19.2947   -7.2230   45.9392 O   0  0  0  0  0  0  0  0  0  0  0  0
   17.9905   -9.5893   46.6882 O   0  0  0  0  0  0  0  0  0  0  0  0
  1  2  1  0  0  0  0
  1 12  1  6  0  0  0
  1 13  1  0  0  0  0
  2  3  1  0  0  0  0
  2 10  1  6  0  0  0
  4  3  1  6  0  0  0
  4  5  1  0  0  0  0
  4 14  1  0  0  0  0
  5  6  1  0  0  0  0
  5 13  1  6  0  0  0
  6  7  1  0  0  0  0
  6 15  1  1  0  0  0
  7  8  1  0  0  0  0
  7 11  1  1  0  0  0
  8 14  1  0  0  0  0
  8 16  1  1  0  0  0
  9 11  1  0  0  0  0
 17 16  1  1  0  0  0
 17 18  1  0  0  0  0
 17 24  1  0  0  0  0
 18 19  1  0  0  0  0
 18 25  1  6  0  0  0
 19 20  1  0  0  0  0
 19 26  1  1  0  0  0
 20 21  1  0  0  0  0
 20 23  1  1  0  0  0
 21 22  1  1  0  0  0
 21 24  1  0  0  0  0
 22 27  1  0  0  0  0
 28 12  1  1  0  0  0
 28 29  1  0  0  0  0
 28 33  1  0  0  0  0
 29 30  1  0  0  0  0
 29 36  1  6  0  0  0
 30 31  1  0  0  0  0
 30 37  1  1  0  0  0
 31 32  1  0  0  0  0
 31 34  1  6  0  0  0
 32 33  1  0  0  0  0
 33 35  1  6  0  0  0
M  END
>  <CHROM.1>
-165.81872742,64.16701107,-174.01757946,-173.00523983,59.27691978,-72.38832032
18.75782006,-3.99928080,47.55706266,2.67323970,1.17702983,2.79861026

>  <Name>
2oe8_lig

>  <RI>
0

>  <Rbt.Current_Directory>
/home/itssahil/PROJECTS/Mol_Feturizer/New_Systems/rnas/2oe8

>  <Rbt.Executable>
rbdock ($Id: //depot/dev/client3/rdock/2013.1/src/exe/rbdock.cxx#4 $)

>  <Rbt.Library>
libRbt.so (2013.1, Build901 2013/11/27)

>  <Rbt.Parameter_File>
/export/apps/rDock/src/rDock_2013.1_src/data/scripts/dock_solv.prm

>  <Rbt.Receptor>
prm/blind_docking_80.prm

>  <SCORE>
-23.5604

>  <SCORE.INTER>
-18.3432

>  <SCORE.INTER.CONST>
1

>  <SCORE.INTER.POLAR>
-1.52481

>  <SCORE.INTER.ROT>
6

>  <SCORE.INTER.SOLV>
10.9804

>  <SCORE.INTER.VDW>
-18.4062

>  <SCORE.INTER.norm>
-0.495762

>  <SCORE.INTRA>
-5.21716

>  <SCORE.INTRA.DIHEDRAL>
-14.2334

>  <SCORE.INTRA.DIHEDRAL.0>
16.4056

>  <SCORE.INTRA.POLAR>
0

>  <SCORE.INTRA.POLAR.0>
0

>  <SCORE.INTRA.REPUL>
0

>  <SCORE.INTRA.REPUL.0>
0

>  <SCORE.INTRA.SOLV>
-0.838133

>  <SCORE.INTRA.SOLV.lig_0>
-90.9627

>  <SCORE.INTRA.VDW>
2.3186

>  <SCORE.INTRA.VDW.0>
-3.28744

>  <SCORE.INTRA.norm>
-0.141004

>  <SCORE.RESTR>
0

>  <SCORE.RESTR.CAVITY>
0

>  <SCORE.RESTR.norm>
0

>  <SCORE.SYSTEM>
0

>  <SCORE.SYSTEM.CONST>
0

>  <SCORE.SYSTEM.DIHEDRAL>
0

>  <SCORE.SYSTEM.SOLV>
0

>  <SCORE.SYSTEM.norm>
0

>  <SCORE.heavy>
37

>  <SCORE.norm>
-0.636766

>  <RMSD>
10.562

$$$$
2oe8_lig
 OpenBabel11021811463D
libRbt.so/2013.1/901 2013/11/27
 37 40  0  0  0  0  0  0  0  0999 V2000
   15.6587   -5.0273   45.6201 C   0  0  1  0  0  0  0  0  0  0  0  0
   15.8168   -3.5022   45.2561 C   0  0  1  0  0  0  0  0  0  0  0  0
   17.2963   -3.0916   45.4078 C   0  0  0  0  0  0  0  0  0  0  0  0
   17.6696   -3.3608   46.8991 C   0  0  1  0  0  0  0  0  0  0  0  0
   17.4927   -4.9164   47.2926 C   0  0  1  0  0  0  0  0  0  0  0  0
   17.8448   -5.1901   48.7843 C   0  0  1  0  0  0  0  0  0  0  0  0
   19.3393   -4.7186   49.0099 C   0  0  1  0  0  0  0  0  0  0  0  0
   19.4691   -3.2184   48.5711 C   0  0  2  0  0  0  0  0  0  0  0  0
   20.0445   -6.2884   50.9936 C   0  0  0  0  0  0  0  0  0  0  0  0
   15.3655   -3.2482   43.8511 N   0  0  0  0  0  0  0  0  0  0  0  0
   19.7642   -4.9046   50.4640 N   0  0  0  0  0  0  0  0  0  0  0  0
   16.4205   -5.8635   44.7401 O   0  0  0  0  0  0  0  0  0  0  0  0
   16.1033   -5.3077   47.0170 O   0  0  0  0  0  0  0  0  0  0  0  0
   19.0549   -2.9841   47.1565 O   0  0  0  0  0  0  0  0  0  0  0  0
   16.9148   -4.4512   49.5780 O   0  0  0  0  0  0  0  0  0  0  0  0
   20.7853   -2.8234   48.7085 O   0  0  0  0  0  0  0  0  0  0  0  0
   20.9875   -1.4215   48.4621 C   0  0  2  0  0  0  0  0  0  0  0  0
   22.3942   -0.9897   48.9423 C   0  0  1  0  0  0  0  0  0  0  0  0
   22.5352   -1.0952   50.4918 C   0  0  2  0  0  0  0  0  0  0  0  0
   21.4526   -0.2040   51.1692 C   0  0  1  0  0  0  0  0  0  0  0  0
   20.0423   -0.7527   50.6968 C   0  0  1  0  0  0  0  0  0  0  0  0
   18.8887    0.0549   51.2851 C   0  0  0  0  0  0  0  0  0  0  0  0
   21.5855   -0.3029   52.6508 N   0  0  0  0  0  0  0  0  0  0  0  0
   19.9582   -0.6417   49.1975 O   0  0  0  0  0  0  0  0  0  0  0  0
   23.3524   -1.8178   48.2560 O   0  0  0  0  0  0  0  0  0  0  0  0
   23.8221   -0.6402   50.8541 O   0  0  0  0  0  0  0  0  0  0  0  0
   18.7968   -0.1969   52.6625 O   0  0  0  0  0  0  0  0  0  0  0  0
   16.2929   -7.2427   45.0180 C   0  0  1  0  0  0  0  0  0  0  0  0
   14.8643   -7.6977   44.5778 C   0  0  1  0  0  0  0  0  0  0  0  0
   14.6987   -9.2099   44.9076 C   0  0  2  0  0  0  0  0  0  0  0  0
   15.7789  -10.0598   44.1697 C   0  0  1  0  0  0  0  0  0  0  0  0
   17.2243   -9.6001   44.5992 C   0  0  0  0  0  0  0  0  0  0  0  0
   17.3909   -8.0617   44.2561 C   0  0  2  0  0  0  0  0  0  0  0  0
   15.6030  -11.5000   44.5051 N   0  0  0  0  0  0  0  0  0  0  0  0
   18.7514   -7.6395   44.6589 N   0  0  0  0  0  0  0  0  0  0  0  0
   13.8600   -6.9487   45.2872 O   0  0  0  0  0  0  0  0  0  0  0  0
   13.3993   -9.5977   44.4927 O   0  0  0  0  0  0  0  0  0  0  0  0
  1  2  1  0  0  0  0
  1 12  1  6  0  0  0
  1 13  1  0  0  0  0
  2  3  1  0  0  0  0
  2 10  1  6  0  0  0
  4  3  1  6  0  0  0
  4  5  1  0  0  0  0
  4 14  1  0  0  0  0
  5  6  1  0  0  0  0
  5 13  1  1  0  0  0
  6  7  1  0  0  0  0
  6 15  1  1  0  0  0
  7  8  1  0  0  0  0
  7 11  1  1  0  0  0
  8 14  1  0  0  0  0
  8 16  1  6  0  0  0
  9 11  1  0  0  0  0
 17 16  1  1  0  0  0
 17 18  1  0  0  0  0
 17 24  1  0  0  0  0
 18 19  1  0  0  0  0
 18 25  1  6  0  0  0
 19 20  1  0  0  0  0
 19 26  1  6  0  0  0
 20 21  1  0  0  0  0
 20 23  1  1  0  0  0
 21 22  1  1  0  0  0
 21 24  1  0  0  0  0
 22 27  1  0  0  0  0
 28 12  1  6  0  0  0
 28 29  1  0  0  0  0
 28 33  1  0  0  0  0
 29 30  1  0  0  0  0
 29 36  1  1  0  0  0
 30 31  1  0  0  0  0
 30 37  1  6  0  0  0
 31 32  1  0  0  0  0
 31 34  1  1  0  0  0
 32 33  1  0  0  0  0
 33 35  1  1  0  0  0
M  END
>  <CHROM.1>
-179.13175379,73.59433689,-173.96958099,167.07956677,-70.15701427,72.07557638
18.30022531,-4.41746015,47.61372867,2.24028429,0.55619839,-2.85376679

>  <Name>
2oe8_lig

>  <RI>
0

>  <Rbt.Current_Directory>
/home/itssahil/PROJECTS/Mol_Feturizer/New_Systems/rnas/2oe8

>  <Rbt.Executable>
rbdock ($Id: //depot/dev/client3/rdock/2013.1/src/exe/rbdock.cxx#4 $)

>  <Rbt.Library>
libRbt.so (2013.1, Build901 2013/11/27)

>  <Rbt.Parameter_File>
/export/apps/rDock/src/rDock_2013.1_src/data/scripts/dock_solv.prm

>  <Rbt.Receptor>
prm/blind_docking_80.prm

>  <SCORE>
-26.541

>  <SCORE.INTER>
-20.569

>  <SCORE.INTER.CONST>
1

>  <SCORE.INTER.POLAR>
-1.92109

>  <SCORE.INTER.ROT>
6

>  <SCORE.INTER.SOLV>
11.9033

>  <SCORE.INTER.VDW>
-18.8768

>  <SCORE.INTER.norm>
-0.555918

>  <SCORE.INTRA>
-5.97574

>  <SCORE.INTRA.DIHEDRAL>
-14.1524

>  <SCORE.INTRA.DIHEDRAL.0>
16.4056

>  <SCORE.INTRA.POLAR>
0

>  <SCORE.INTRA.POLAR.0>
0

>  <SCORE.INTRA.REPUL>
0

>  <SCORE.INTRA.REPUL.0>
0

>  <SCORE.INTRA.SOLV>
-2.01426

>  <SCORE.INTRA.SOLV.lig_0>
-90.9627

>  <SCORE.INTRA.VDW>
2.1076

>  <SCORE.INTRA.VDW.0>
-3.28744

>  <SCORE.INTRA.norm>
-0.161506

>  <SCORE.RESTR>
0.00370904

>  <SCORE.RESTR.CAVITY>
0.00370904

>  <SCORE.RESTR.norm>
0.000100244

>  <SCORE.SYSTEM>
0

>  <SCORE.SYSTEM.CONST>
0

>  <SCORE.SYSTEM.DIHEDRAL>
0

>  <SCORE.SYSTEM.SOLV>
0

>  <SCORE.SYSTEM.norm>
0

>  <SCORE.heavy>
37

>  <SCORE.norm>
-0.717324

>  <RMSD>
10.587

$$$$
2oe8_lig
 OpenBabel11021811463D
libRbt.so/2013.1/901 2013/11/27
 37 40  0  0  0  0  0  0  0  0999 V2000
   17.6944   -5.3304   45.4509 C   0  0  1  0  0  0  0  0  0  0  0  0
   16.6846   -5.5147   46.6467 C   0  0  1  0  0  0  0  0  0  0  0  0
   16.5406   -4.1781   47.4039 C   0  0  0  0  0  0  0  0  0  0  0  0
   17.9690   -3.8157   47.9180 C   0  0  1  0  0  0  0  0  0  0  0  0
   19.0199   -3.6439   46.7047 C   0  0  1  0  0  0  0  0  0  0  0  0
   20.4519   -3.3010   47.2102 C   0  0  1  0  0  0  0  0  0  0  0  0
   20.3461   -1.9671   48.0566 C   0  0  1  0  0  0  0  0  0  0  0  0
   19.2823   -2.1698   49.1911 C   0  0  2  0  0  0  0  0  0  0  0  0
   22.4365   -2.5263   49.5447 C   0  0  0  0  0  0  0  0  0  0  0  0
   15.3454   -5.9531   46.1401 N   0  0  0  0  0  0  0  0  0  0  0  0
   21.7010   -1.5721   48.6378 N   0  0  0  0  0  0  0  0  0  0  0  0
   17.2257   -4.3595   44.5067 O   0  0  0  0  0  0  0  0  0  0  0  0
   19.0386   -4.8921   45.9293 O   0  0  0  0  0  0  0  0  0  0  0  0
   17.9407   -2.5673   48.6716 O   0  0  0  0  0  0  0  0  0  0  0  0
   20.8975   -4.4093   47.9937 O   0  0  0  0  0  0  0  0  0  0  0  0
   19.1432   -0.9879   49.8916 O   0  0  0  0  0  0  0  0  0  0  0  0
   18.5365   -1.1599   51.1836 C   0  0  2  0  0  0  0  0  0  0  0  0
   18.4767    0.1931   51.9329 C   0  0  1  0  0  0  0  0  0  0  0  0
   19.9002    0.7243   52.2843 C   0  0  2  0  0  0  0  0  0  0  0  0
   20.6410   -0.3289   53.1603 C   0  0  1  0  0  0  0  0  0  0  0  0
   20.7357   -1.6581   52.3016 C   0  0  1  0  0  0  0  0  0  0  0  0
   21.4333   -2.7818   53.0630 C   0  0  0  0  0  0  0  0  0  0  0  0
   22.0023    0.1768   53.4977 N   0  0  0  0  0  0  0  0  0  0  0  0
   19.3411   -2.1245   51.9778 O   0  0  0  0  0  0  0  0  0  0  0  0
   17.7493    1.1127   51.0962 O   0  0  0  0  0  0  0  0  0  0  0  0
   19.7603    1.9305   53.0053 O   0  0  0  0  0  0  0  0  0  0  0  0
   21.6129   -3.8821   52.2109 O   0  0  0  0  0  0  0  0  0  0  0  0
   15.9823   -4.6908   43.9237 C   0  0  1  0  0  0  0  0  0  0  0  0
   15.5073   -3.4740   43.0660 C   0  0  1  0  0  0  0  0  0  0  0  0
   14.1221   -3.8135   42.4425 C   0  0  2  0  0  0  0  0  0  0  0  0
   14.2135   -5.0901   41.5506 C   0  0  1  0  0  0  0  0  0  0  0  0
   14.7029   -6.3209   42.4052 C   0  0  0  0  0  0  0  0  0  0  0  0
   16.1162   -5.9736   43.0330 C   0  0  2  0  0  0  0  0  0  0  0  0
   12.8765   -5.3968   40.9709 N   0  0  0  0  0  0  0  0  0  0  0  0
   16.5698   -7.1354   43.8303 N   0  0  0  0  0  0  0  0  0  0  0  0
   15.3774   -2.3009   43.8908 O   0  0  0  0  0  0  0  0  0  0  0  0
   13.7185   -2.6980   41.6656 O   0  0  0  0  0  0  0  0  0  0  0  0
  1  2  1  0  0  0  0
  1 12  1  6  0  0  0
  1 13  1  0  0  0  0
  2  3  1  0  0  0  0
  2 10  1  6  0  0  0
  4  3  1  6  0  0  0
  4  5  1  0  0  0  0
  4 14  1  0  0  0  0
  5  6  1  0  0  0  0
  5 13  1  1  0  0  0
  6  7  1  0  0  0  0
  6 15  1  1  0  0  0
  7  8  1  0  0  0  0
  7 11  1  1  0  0  0
  8 14  1  0  0  0  0
  8 16  1  6  0  0  0
  9 11  1  0  0  0  0
 17 16  1  6  0  0  0
 17 18  1  0  0  0  0
 17 24  1  0  0  0  0
 18 19  1  0  0  0  0
 18 25  1  6  0  0  0
 19 20  1  0  0  0  0
 19 26  1  1  0  0  0
 20 21  1  0  0  0  0
 20 23  1  6  0  0  0
 21 22  1  1  0  0  0
 21 24  1  0  0  0  0
 22 27  1  0  0  0  0
 28 12  1  6  0  0  0
 28 29  1  0  0  0  0
 28 33  1  0  0  0  0
 29 30  1  0  0  0  0
 29 36  1  1  0  0  0
 30 31  1  0  0  0  0
 30 37  1  6  0  0  0
 31 32  1  0  0  0  0
 31 34  1  1  0  0  0
 32 33  1  0  0  0  0
 33 35  1  1  0  0  0
M  END
>  <CHROM.1>
-59.94125730,-58.29546009,-161.40614901,177.29516278,-173.88815716,172.80601370
18.15973116,-2.99298952,47.66902238,-2.22287682,-0.66489736,0.70618114

>  <Name>
2oe8_lig

>  <RI>
0

>  <Rbt.Current_Directory>
/home/itssahil/PROJECTS/Mol_Feturizer/New_Systems/rnas/2oe8

>  <Rbt.Executable>
rbdock ($Id: //depot/dev/client3/rdock/2013.1/src/exe/rbdock.cxx#4 $)

>  <Rbt.Library>
libRbt.so (2013.1, Build901 2013/11/27)

>  <Rbt.Parameter_File>
/export/apps/rDock/src/rDock_2013.1_src/data/scripts/dock_solv.prm

>  <Rbt.Receptor>
prm/blind_docking_80.prm

>  <SCORE>
-23.7023

>  <SCORE.INTER>
-21.5347

>  <SCORE.INTER.CONST>
1

>  <SCORE.INTER.POLAR>
-3.04423

>  <SCORE.INTER.ROT>
6

>  <SCORE.INTER.SOLV>
9.52514

>  <SCORE.INTER.VDW>
-14.9841

>  <SCORE.INTER.norm>
-0.582018

>  <SCORE.INTRA>
-2.16763

>  <SCORE.INTRA.DIHEDRAL>
-14.3495

>  <SCORE.INTRA.DIHEDRAL.0>
16.4056

>  <SCORE.INTRA.POLAR>
0

>  <SCORE.INTRA.POLAR.0>
0

>  <SCORE.INTRA.REPUL>
0

>  <SCORE.INTRA.REPUL.0>
0

>  <SCORE.INTRA.SOLV>
3.49838

>  <SCORE.INTRA.SOLV.lig_0>
-90.9627

>  <SCORE.INTRA.VDW>
3.25793

>  <SCORE.INTRA.VDW.0>
-3.28744

>  <SCORE.INTRA.norm>
-0.0585847

>  <SCORE.RESTR>
0

>  <SCORE.RESTR.CAVITY>
0

>  <SCORE.RESTR.norm>
0

>  <SCORE.SYSTEM>
0

>  <SCORE.SYSTEM.CONST>
0

>  <SCORE.SYSTEM.DIHEDRAL>
0

>  <SCORE.SYSTEM.SOLV>
0

>  <SCORE.SYSTEM.norm>
0

>  <SCORE.heavy>
37

>  <SCORE.norm>
-0.640602

>  <RMSD>
10.611

$$$$
2oe8_lig
 OpenBabel11021811463D
libRbt.so/2013.1/901 2013/11/27
 37 40  0  0  0  0  0  0  0  0999 V2000
   15.8690   -5.2528   45.8967 C   0  0  1  0  0  0  0  0  0  0  0  0
   15.8336   -3.7252   45.5111 C   0  0  1  0  0  0  0  0  0  0  0  0
   17.2407   -3.1194   45.6948 C   0  0  0  0  0  0  0  0  0  0  0  0
   17.6038   -3.3166   47.1998 C   0  0  1  0  0  0  0  0  0  0  0  0
   17.6238   -4.8766   47.6149 C   0  0  1  0  0  0  0  0  0  0  0  0
   17.9666   -5.0811   49.1198 C   0  0  1  0  0  0  0  0  0  0  0  0
   19.3783   -4.4119   49.3768 C   0  0  1  0  0  0  0  0  0  0  0  0
   19.3204   -2.9138   48.9161 C   0  0  2  0  0  0  0  0  0  0  0  0
   21.2293   -4.3606   51.2390 C   0  0  0  0  0  0  0  0  0  0  0  0
   15.3927   -3.5523   44.0906 N   0  0  0  0  0  0  0  0  0  0  0  0
   19.7827   -4.5203   50.8445 N   0  0  0  0  0  0  0  0  0  0  0  0
   16.7597   -5.9919   45.0514 O   0  0  0  0  0  0  0  0  0  0  0  0
   16.3070   -5.4529   47.3094 O   0  0  0  0  0  0  0  0  0  0  0  0
   18.9190   -2.7556   47.4872 O   0  0  0  0  0  0  0  0  0  0  0  0
   16.9246   -4.4620   49.8760 O   0  0  0  0  0  0  0  0  0  0  0  0
   20.5680   -2.3453   49.0814 O   0  0  0  0  0  0  0  0  0  0  0  0
   20.5730   -0.9196   48.8969 C   0  0  2  0  0  0  0  0  0  0  0  0
   21.9570   -0.3350   49.2692 C   0  0  1  0  0  0  0  0  0  0  0  0
   22.2614   -0.4906   50.7907 C   0  0  2  0  0  0  0  0  0  0  0  0
   21.1502    0.2255   51.6139 C   0  0  1  0  0  0  0  0  0  0  0  0
   19.7776   -0.4757   51.2432 C   0  0  1  0  0  0  0  0  0  0  0  0
   18.5978    0.1524   51.9796 C   0  0  0  0  0  0  0  0  0  0  0  0
   21.4392    0.0784   53.0691 N   0  0  0  0  0  0  0  0  0  0  0  0
   19.5337   -0.3097   49.7666 O   0  0  0  0  0  0  0  0  0  0  0  0
   22.9367   -1.0039   48.4521 O   0  0  0  0  0  0  0  0  0  0  0  0
   23.5127    0.1070   51.0581 O   0  0  0  0  0  0  0  0  0  0  0  0
   18.5078    1.5119   51.6439 O   0  0  0  0  0  0  0  0  0  0  0  0
   16.5833   -7.3914   45.1290 C   0  0  1  0  0  0  0  0  0  0  0  0
   15.2613   -7.7575   44.3808 C   0  0  1  0  0  0  0  0  0  0  0  0
   15.0379   -9.2944   44.4856 C   0  0  2  0  0  0  0  0  0  0  0  0
   16.2366  -10.0727   43.8603 C   0  0  1  0  0  0  0  0  0  0  0  0
   17.5770   -9.7010   44.6018 C   0  0  0  0  0  0  0  0  0  0  0  0
   17.8039   -8.1365   44.4874 C   0  0  2  0  0  0  0  0  0  0  0  0
   16.0020  -11.5386   43.9776 N   0  0  0  0  0  0  0  0  0  0  0  0
   19.0658   -7.7969   45.1826 N   0  0  0  0  0  0  0  0  0  0  0  0
   14.1425   -7.0775   44.9800 O   0  0  0  0  0  0  0  0  0  0  0  0
   13.8381   -9.5998   43.7940 O   0  0  0  0  0  0  0  0  0  0  0  0
  1  2  1  0  0  0  0
  1 12  1  6  0  0  0
  1 13  1  0  0  0  0
  2  3  1  0  0  0  0
  2 10  1  6  0  0  0
  4  3  1  6  0  0  0
  4  5  1  0  0  0  0
  4 14  1  0  0  0  0
  5  6  1  0  0  0  0
  5 13  1  1  0  0  0
  6  7  1  0  0  0  0
  6 15  1  1  0  0  0
  7  8  1  0  0  0  0
  7 11  1  1  0  0  0
  8 14  1  0  0  0  0
  8 16  1  6  0  0  0
  9 11  1  0  0  0  0
 17 16  1  1  0  0  0
 17 18  1  0  0  0  0
 17 24  1  0  0  0  0
 18 19  1  0  0  0  0
 18 25  1  6  0  0  0
 19 20  1  0  0  0  0
 19 26  1  6  0  0  0
 20 21  1  0  0  0  0
 20 23  1  1  0  0  0
 21 22  1  1  0  0  0
 21 24  1  0  0  0  0
 22 27  1  0  0  0  0
 28 12  1  6  0  0  0
 28 29  1  0  0  0  0
 28 33  1  0  0  0  0
 29 30  1  0  0  0  0
 29 36  1  1  0  0  0
 30 31  1  0  0  0  0
 30 37  1  6  0  0  0
 31 32  1  0  0  0  0
 31 34  1  1  0  0  0
 32 33  1  0  0  0  0
 33 35  1  1  0  0  0
M  END
>  <CHROM.1>
-165.13200689,160.57079977,-170.37364962,172.94974703,59.65329344,73.49215445
18.34756359,-4.17653479,47.78253357,2.09544940,0.44301029,-2.70840692

>  <Name>
2oe8_lig

>  <RI>
0

>  <Rbt.Current_Directory>
/home/itssahil/PROJECTS/Mol_Feturizer/New_Systems/rnas/2oe8

>  <Rbt.Executable>
rbdock ($Id: //depot/dev/client3/rdock/2013.1/src/exe/rbdock.cxx#4 $)

>  <Rbt.Library>
libRbt.so (2013.1, Build901 2013/11/27)

>  <Rbt.Parameter_File>
/export/apps/rDock/src/rDock_2013.1_src/data/scripts/dock_solv.prm

>  <Rbt.Receptor>
prm/blind_docking_80.prm

>  <SCORE>
-24.6042

>  <SCORE.INTER>
-18.2155

>  <SCORE.INTER.CONST>
1

>  <SCORE.INTER.POLAR>
-1.71107

>  <SCORE.INTER.ROT>
6

>  <SCORE.INTER.SOLV>
12.101

>  <SCORE.INTER.VDW>
-18.0737

>  <SCORE.INTER.norm>
-0.49231

>  <SCORE.INTRA>
-6.3887

>  <SCORE.INTRA.DIHEDRAL>
-13.4729

>  <SCORE.INTRA.DIHEDRAL.0>
16.4056

>  <SCORE.INTRA.POLAR>
0

>  <SCORE.INTRA.POLAR.0>
0

>  <SCORE.INTRA.REPUL>
0

>  <SCORE.INTRA.REPUL.0>
0

>  <SCORE.INTRA.SOLV>
-1.80876

>  <SCORE.INTRA.SOLV.lig_0>
-90.9627

>  <SCORE.INTRA.VDW>
1.25212

>  <SCORE.INTRA.VDW.0>
-3.28744

>  <SCORE.INTRA.norm>
-0.172668

>  <SCORE.RESTR>
0

>  <SCORE.RESTR.CAVITY>
0

>  <SCORE.RESTR.norm>
0

>  <SCORE.SYSTEM>
0

>  <SCORE.SYSTEM.CONST>
0

>  <SCORE.SYSTEM.DIHEDRAL>
0

>  <SCORE.SYSTEM.SOLV>
0

>  <SCORE.SYSTEM.norm>
0

>  <SCORE.heavy>
37

>  <SCORE.norm>
-0.664978

>  <RMSD>
10.639

$$$$
2oe8_lig
 OpenBabel11021811463D
libRbt.so/2013.1/901 2013/11/27
 37 40  0  0  0  0  0  0  0  0999 V2000
   18.7842   -4.3277   46.2952 C   0  0  1  0  0  0  0  0  0  0  0  0
   17.5519   -3.5949   46.9494 C   0  0  1  0  0  0  0  0  0  0  0  0
   16.2892   -3.8668   46.1055 C   0  0  0  0  0  0  0  0  0  0  0  0
   16.5919   -3.3063   44.6806 C   0  0  1  0  0  0  0  0  0  0  0  0
   17.8653   -4.0335   44.0056 C   0  0  1  0  0  0  0  0  0  0  0  0
   18.1858   -3.4667   42.5914 C   0  0  1  0  0  0  0  0  0  0  0  0
   16.8903   -3.6595   41.7018 C   0  0  1  0  0  0  0  0  0  0  0  0
   15.6753   -2.9765   42.4211 C   0  0  2  0  0  0  0  0  0  0  0  0
   16.2532   -3.5959   39.1549 C   0  0  0  0  0  0  0  0  0  0  0  0
   17.3355   -4.0797   48.3496 N   0  0  0  0  0  0  0  0  0  0  0  0
   17.0915   -3.0882   40.3009 N   0  0  0  0  0  0  0  0  0  0  0  0
   18.5983   -5.7483   46.2605 O   0  0  0  0  0  0  0  0  0  0  0  0
   19.0211   -3.8626   44.8969 O   0  0  0  0  0  0  0  0  0  0  0  0
   15.4442   -3.4963   43.8010 O   0  0  0  0  0  0  0  0  0  0  0  0
   18.5318   -2.0908   42.7587 O   0  0  0  0  0  0  0  0  0  0  0  0
   14.5326   -3.1970   41.6777 O   0  0  0  0  0  0  0  0  0  0  0  0
   13.4876   -2.2463   41.9446 C   0  0  2  0  0  0  0  0  0  0  0  0
   12.2630   -2.9564   42.5704 C   0  0  1  0  0  0  0  0  0  0  0  0
   11.5895   -3.9421   41.5670 C   0  0  2  0  0  0  0  0  0  0  0  0
   11.1493   -3.1601   40.2942 C   0  0  1  0  0  0  0  0  0  0  0  0
   12.4603   -2.5293   39.6645 C   0  0  1  0  0  0  0  0  0  0  0  0
   12.1572   -1.7169   38.4086 C   0  0  0  0  0  0  0  0  0  0  0  0
   10.5049   -4.1003   39.3333 N   0  0  0  0  0  0  0  0  0  0  0  0
   13.0797   -1.5969   40.6717 O   0  0  0  0  0  0  0  0  0  0  0  0
   12.7204   -3.6272   43.7603 O   0  0  0  0  0  0  0  0  0  0  0  0
   10.4579   -4.5104   42.1923 O   0  0  0  0  0  0  0  0  0  0  0  0
   11.6075   -2.5582   37.4293 O   0  0  0  0  0  0  0  0  0  0  0  0
   19.5714   -6.4648   46.9923 C   0  0  1  0  0  0  0  0  0  0  0  0
   19.1638   -7.9733   46.9967 C   0  0  1  0  0  0  0  0  0  0  0  0
   20.2114   -8.7707   47.8271 C   0  0  2  0  0  0  0  0  0  0  0  0
   21.6397   -8.6070   47.2216 C   0  0  1  0  0  0  0  0  0  0  0  0
   22.0551   -7.0866   47.2027 C   0  0  0  0  0  0  0  0  0  0  0  0
   20.9895   -6.2793   46.3512 C   0  0  2  0  0  0  0  0  0  0  0  0
   22.6233   -9.3736   48.0356 N   0  0  0  0  0  0  0  0  0  0  0  0
   21.3891   -4.8541   46.3354 N   0  0  0  0  0  0  0  0  0  0  0  0
   17.8645   -8.1388   47.5949 O   0  0  0  0  0  0  0  0  0  0  0  0
   19.8223  -10.1343   47.8091 O   0  0  0  0  0  0  0  0  0  0  0  0
  1  2  1  0  0  0  0
  1 12  1  6  0  0  0
  1 13  1  0  0  0  0
  2  3  1  0  0  0  0
  2 10  1  1  0  0  0
  4  3  1  1  0  0  0
  4  5  1  0  0  0  0
  4 14  1  0  0  0  0
  5  6  1  0  0  0  0
  5 13  1  1  0  0  0
  6  7  1  0  0  0  0
  6 15  1  1  0  0  0
  7  8  1  0  0  0  0
  7 11  1  6  0  0  0
  8 14  1  0  0  0  0
  8 16  1  6  0  0  0
  9 11  1  0  0  0  0
 17 16  1  6  0  0  0
 17 18  1  0  0  0  0
 17 24  1  0  0  0  0
 18 19  1  0  0  0  0
 18 25  1  1  0  0  0
 19 20  1  0  0  0  0
 19 26  1  1  0  0  0
 20 21  1  0  0  0  0
 20 23  1  6  0  0  0
 21 22  1  6  0  0  0
 21 24  1  0  0  0  0
 22 27  1  0  0  0  0
 28 12  1  6  0  0  0
 28 29  1  0  0  0  0
 28 33  1  0  0  0  0
 29 30  1  0  0  0  0
 29 36  1  1  0  0  0
 30 31  1  0  0  0  0
 30 37  1  6  0  0  0
 31 32  1  0  0  0  0
 31 34  1  1  0  0  0
 32 33  1  0  0  0  0
 33 35  1  1  0  0  0
M  END
>  <CHROM.1>
-118.88417929,156.73102159,-158.40457592,-115.66502096,-62.03600087,174.03180670
16.48087201,-4.56000610,43.81088765,-0.80181067,-0.13475449,-0.88034144

>  <Name>
2oe8_lig

>  <RI>
0

>  <Rbt.Current_Directory>
/home/itssahil/PROJECTS/Mol_Feturizer/New_Systems/rnas/2oe8

>  <Rbt.Executable>
rbdock ($Id: //depot/dev/client3/rdock/2013.1/src/exe/rbdock.cxx#4 $)

>  <Rbt.Library>
libRbt.so (2013.1, Build901 2013/11/27)

>  <Rbt.Parameter_File>
/export/apps/rDock/src/rDock_2013.1_src/data/scripts/dock_solv.prm

>  <Rbt.Receptor>
prm/blind_docking_80.prm

>  <SCORE>
-22.4978

>  <SCORE.INTER>
-23.9812

>  <SCORE.INTER.CONST>
1

>  <SCORE.INTER.POLAR>
-2.75427

>  <SCORE.INTER.ROT>
6

>  <SCORE.INTER.SOLV>
14.9535

>  <SCORE.INTER.VDW>
-19.3911

>  <SCORE.INTER.norm>
-0.648141

>  <SCORE.INTRA>
1.47003

>  <SCORE.INTRA.DIHEDRAL>
0.537426

>  <SCORE.INTRA.DIHEDRAL.0>
16.4056

>  <SCORE.INTRA.POLAR>
0

>  <SCORE.INTRA.POLAR.0>
0

>  <SCORE.INTRA.REPUL>
0

>  <SCORE.INTRA.REPUL.0>
0

>  <SCORE.INTRA.SOLV>
0.253286

>  <SCORE.INTRA.SOLV.lig_0>
-90.9627

>  <SCORE.INTRA.VDW>
1.07468

>  <SCORE.INTRA.VDW.0>
-3.28744

>  <SCORE.INTRA.norm>
0.0397306

>  <SCORE.RESTR>
0.0133802

>  <SCORE.RESTR.CAVITY>
0.0133802

>  <SCORE.RESTR.norm>
0.000361628

>  <SCORE.SYSTEM>
0

>  <SCORE.SYSTEM.CONST>
0

>  <SCORE.SYSTEM.DIHEDRAL>
0

>  <SCORE.SYSTEM.SOLV>
0

>  <SCORE.SYSTEM.norm>
0

>  <SCORE.heavy>
37

>  <SCORE.norm>
-0.608048

>  <RMSD>
10.642

$$$$
2oe8_lig
 OpenBabel11021811463D
libRbt.so/2013.1/901 2013/11/27
 37 40  0  0  0  0  0  0  0  0999 V2000
   15.4625   -4.9855   45.1685 C   0  0  1  0  0  0  0  0  0  0  0  0
   15.6741   -3.4713   44.7867 C   0  0  1  0  0  0  0  0  0  0  0  0
   17.1784   -3.1340   44.8507 C   0  0  0  0  0  0  0  0  0  0  0  0
   17.6233   -3.4165   46.3197 C   0  0  1  0  0  0  0  0  0  0  0  0
   17.3931   -4.9601   46.7322 C   0  0  1  0  0  0  0  0  0  0  0  0
   17.8167   -5.2461   48.2028 C   0  0  1  0  0  0  0  0  0  0  0  0
   19.3432   -4.8484   48.3393 C   0  0  1  0  0  0  0  0  0  0  0  0
   19.5211   -3.3579   47.8847 C   0  0  2  0  0  0  0  0  0  0  0  0
   20.3761   -6.3947   50.1937 C   0  0  0  0  0  0  0  0  0  0  0  0
   15.1556   -3.1998   43.4084 N   0  0  0  0  0  0  0  0  0  0  0  0
   19.8416   -5.0506   49.7677 N   0  0  0  0  0  0  0  0  0  0  0  0
   16.1302   -5.8612   44.2512 O   0  0  0  0  0  0  0  0  0  0  0  0
   15.9726   -5.2831   46.5392 O   0  0  0  0  0  0  0  0  0  0  0  0
   19.0380   -3.1080   46.4948 O   0  0  0  0  0  0  0  0  0  0  0  0
   16.9716   -4.4596   49.0441 O   0  0  0  0  0  0  0  0  0  0  0  0
   20.8608   -3.0281   47.9438 O   0  0  0  0  0  0  0  0  0  0  0  0
   21.0977   -1.6919   48.4187 C   0  0  2  0  0  0  0  0  0  0  0  0
   22.6180   -1.4236   48.5305 C   0  0  1  0  0  0  0  0  0  0  0  0
   23.2830   -2.3074   49.6300 C   0  0  2  0  0  0  0  0  0  0  0  0
   22.5981   -2.0266   51.0001 C   0  0  1  0  0  0  0  0  0  0  0  0
   21.0660   -2.3982   50.8343 C   0  0  1  0  0  0  0  0  0  0  0  0
   20.2757   -2.1494   52.1158 C   0  0  0  0  0  0  0  0  0  0  0  0
   23.2324   -2.8702   52.0530 N   0  0  0  0  0  0  0  0  0  0  0  0
   20.4721   -1.5298   49.7569 O   0  0  0  0  0  0  0  0  0  0  0  0
   23.1899   -1.6600   47.2297 O   0  0  0  0  0  0  0  0  0  0  0  0
   24.6526   -1.9710   49.7038 O   0  0  0  0  0  0  0  0  0  0  0  0
   18.9423   -2.5437   51.9265 O   0  0  0  0  0  0  0  0  0  0  0  0
   16.0991   -7.2190   44.6400 C   0  0  1  0  0  0  0  0  0  0  0  0
   14.6570   -7.7648   44.3871 C   0  0  1  0  0  0  0  0  0  0  0  0
   14.5999   -9.2527   44.8410 C   0  0  2  0  0  0  0  0  0  0  0  0
   15.6394  -10.1118   44.0567 C   0  0  1  0  0  0  0  0  0  0  0  0
   17.0968   -9.5614   44.2971 C   0  0  0  0  0  0  0  0  0  0  0  0
   17.1523   -8.0485   43.8279 C   0  0  2  0  0  0  0  0  0  0  0  0
   15.5691  -11.5278   44.5122 N   0  0  0  0  0  0  0  0  0  0  0  0
   18.5245   -7.5410   44.0534 N   0  0  0  0  0  0  0  0  0  0  0  0
   13.6949   -7.0052   45.1424 O   0  0  0  0  0  0  0  0  0  0  0  0
   13.2854   -9.7242   44.5945 O   0  0  0  0  0  0  0  0  0  0  0  0
  1  2  1  0  0  0  0
  1 12  1  6  0  0  0
  1 13  1  0  0  0  0
  2  3  1  0  0  0  0
  2 10  1  6  0  0  0
  4  3  1  6  0  0  0
  4  5  1  0  0  0  0
  4 14  1  0  0  0  0
  5  6  1  0  0  0  0
  5 13  1  1  0  0  0
  6  7  1  0  0  0  0
  6 15  1  1  0  0  0
  7  8  1  0  0  0  0
  7 11  1  1  0  0  0
  8 14  1  0  0  0  0
  8 16  1  6  0  0  0
  9 11  1  0  0  0  0
 17 16  1  1  0  0  0
 17 18  1  0  0  0  0
 17 24  1  0  0  0  0
 18 19  1  0  0  0  0
 18 25  1  6  0  0  0
 19 20  1  0  0  0  0
 19 26  1  1  0  0  0
 20 21  1  0  0  0  0
 20 23  1  1  0  0  0
 21 22  1  1  0  0  0
 21 24  1  0  0  0  0
 22 27  1  0  0  0  0
 28 12  1  6  0  0  0
 28 29  1  0  0  0  0
 28 33  1  0  0  0  0
 29 30  1  0  0  0  0
 29 36  1  1  0  0  0
 30 31  1  0  0  0  0
 30 37  1  6  0  0  0
 31 32  1  0  0  0  0
 31 34  1  1  0  0  0
 32 33  1  0  0  0  0
 33 35  1  1  0  0  0
M  END
>  <CHROM.1>
173.03964212,87.28088304,-141.27689060,176.91650672,-177.71986055,74.15004030
18.44395964,-4.84386404,47.20332549,2.74649461,0.80697455,2.86306046

>  <Name>
2oe8_lig

>  <RI>
0

>  <Rbt.Current_Directory>
/home/itssahil/PROJECTS/Mol_Feturizer/New_Systems/rnas/2oe8

>  <Rbt.Executable>
rbdock ($Id: //depot/dev/client3/rdock/2013.1/src/exe/rbdock.cxx#4 $)

>  <Rbt.Library>
libRbt.so (2013.1, Build901 2013/11/27)

>  <Rbt.Parameter_File>
/export/apps/rDock/src/rDock_2013.1_src/data/scripts/dock_solv.prm

>  <Rbt.Receptor>
prm/blind_docking_80.prm

>  <SCORE>
-23.3303

>  <SCORE.INTER>
-18.4234

>  <SCORE.INTER.CONST>
1

>  <SCORE.INTER.POLAR>
-2.01903

>  <SCORE.INTER.ROT>
6

>  <SCORE.INTER.SOLV>
11.9148

>  <SCORE.INTER.VDW>
-17.1238

>  <SCORE.INTER.norm>
-0.497929

>  <SCORE.INTRA>
-5.02148

>  <SCORE.INTRA.DIHEDRAL>
-9.44255

>  <SCORE.INTRA.DIHEDRAL.0>
16.4056

>  <SCORE.INTRA.POLAR>
0

>  <SCORE.INTRA.POLAR.0>
0

>  <SCORE.INTRA.REPUL>
0

>  <SCORE.INTRA.REPUL.0>
0

>  <SCORE.INTRA.SOLV>
-1.48262

>  <SCORE.INTRA.SOLV.lig_0>
-90.9627

>  <SCORE.INTRA.VDW>
0.441105

>  <SCORE.INTRA.VDW.0>
-3.28744

>  <SCORE.INTRA.norm>
-0.135716

>  <SCORE.RESTR>
0.114575

>  <SCORE.RESTR.CAVITY>
0.114575

>  <SCORE.RESTR.norm>
0.00309662

>  <SCORE.SYSTEM>
0

>  <SCORE.SYSTEM.CONST>
0

>  <SCORE.SYSTEM.DIHEDRAL>
0

>  <SCORE.SYSTEM.SOLV>
0

>  <SCORE.SYSTEM.norm>
0

>  <SCORE.heavy>
37

>  <SCORE.norm>
-0.630548

>  <RMSD>
10.645

$$$$
2oe8_lig
 OpenBabel11021811463D
libRbt.so/2013.1/901 2013/11/27
 37 40  0  0  0  0  0  0  0  0999 V2000
   15.3014   -5.1083   45.5362 C   0  0  1  0  0  0  0  0  0  0  0  0
   15.5866   -3.6030   45.1668 C   0  0  1  0  0  0  0  0  0  0  0  0
   17.1078   -3.3477   45.2032 C   0  0  0  0  0  0  0  0  0  0  0  0
   17.5664   -3.6714   46.6594 C   0  0  1  0  0  0  0  0  0  0  0  0
   17.2618   -5.2053   47.0596 C   0  0  1  0  0  0  0  0  0  0  0  0
   17.6990   -5.5314   48.5179 C   0  0  1  0  0  0  0  0  0  0  0  0
   19.2471   -5.2178   48.6270 C   0  0  1  0  0  0  0  0  0  0  0  0
   19.4959   -3.7336   48.1851 C   0  0  2  0  0  0  0  0  0  0  0  0
   19.1478   -4.7256   51.2046 C   0  0  0  0  0  0  0  0  0  0  0  0
   15.0556   -3.2875   43.8027 N   0  0  0  0  0  0  0  0  0  0  0  0
   19.7627   -5.4636   50.0423 N   0  0  0  0  0  0  0  0  0  0  0  0
   15.9023   -6.0074   44.5957 O   0  0  0  0  0  0  0  0  0  0  0  0
   15.8223   -5.4493   46.8927 O   0  0  0  0  0  0  0  0  0  0  0  0
   18.9989   -3.4413   46.8084 O   0  0  0  0  0  0  0  0  0  0  0  0
   16.9146   -4.7109   49.3851 O   0  0  0  0  0  0  0  0  0  0  0  0
   20.8523   -3.4768   48.2200 O   0  0  0  0  0  0  0  0  0  0  0  0
   21.1705   -2.1622   48.7073 C   0  0  2  0  0  0  0  0  0  0  0  0
   22.6156   -1.7772   48.3086 C   0  0  1  0  0  0  0  0  0  0  0  0
   23.6722   -2.6775   49.0194 C   0  0  2  0  0  0  0  0  0  0  0  0
   23.5018   -2.5513   50.5621 C   0  0  1  0  0  0  0  0  0  0  0  0
   22.0318   -3.0362   50.9047 C   0  0  1  0  0  0  0  0  0  0  0  0
   21.7333   -2.9442   52.3985 C   0  0  0  0  0  0  0  0  0  0  0  0
   24.5110   -3.4110   51.2440 N   0  0  0  0  0  0  0  0  0  0  0  0
   21.0504   -2.1467   50.1884 O   0  0  0  0  0  0  0  0  0  0  0  0
   22.7028   -1.8736   46.8740 O   0  0  0  0  0  0  0  0  0  0  0  0
   24.9596   -2.2347   48.6441 O   0  0  0  0  0  0  0  0  0  0  0  0
   22.5580   -3.8402   53.0958 O   0  0  0  0  0  0  0  0  0  0  0  0
   15.6718   -7.3701   44.8882 C   0  0  1  0  0  0  0  0  0  0  0  0
   14.1761   -7.6902   44.5684 C   0  0  1  0  0  0  0  0  0  0  0  0
   13.8998   -9.1820   44.9162 C   0  0  2  0  0  0  0  0  0  0  0  0
   14.8331  -10.1247   44.0953 C   0  0  1  0  0  0  0  0  0  0  0  0
   16.3449   -9.8014   44.4031 C   0  0  0  0  0  0  0  0  0  0  0  0
   16.6236   -8.2835   44.0418 C   0  0  2  0  0  0  0  0  0  0  0  0
   14.5537  -11.5439   44.4493 N   0  0  0  0  0  0  0  0  0  0  0  0
   18.0455   -7.9897   44.3301 N   0  0  0  0  0  0  0  0  0  0  0  0
   13.3064   -6.8547   45.3551 O   0  0  0  0  0  0  0  0  0  0  0  0
   12.5406   -9.4471   44.6107 O   0  0  0  0  0  0  0  0  0  0  0  0
  1  2  1  0  0  0  0
  1 12  1  6  0  0  0
  1 13  1  0  0  0  0
  2  3  1  0  0  0  0
  2 10  1  6  0  0  0
  4  3  1  6  0  0  0
  4  5  1  0  0  0  0
  4 14  1  0  0  0  0
  5  6  1  0  0  0  0
  5 13  1  1  0  0  0
  6  7  1  0  0  0  0
  6 15  1  1  0  0  0
  7  8  1  0  0  0  0
  7 11  1  1  0  0  0
  8 14  1  0  0  0  0
  8 16  1  6  0  0  0
  9 11  1  0  0  0  0
 17 16  1  1  0  0  0
 17 18  1  0  0  0  0
 17 24  1  0  0  0  0
 18 19  1  0  0  0  0
 18 25  1  6  0  0  0
 19 20  1  0  0  0  0
 19 26  1  1  0  0  0
 20 21  1  0  0  0  0
 20 23  1  1  0  0  0
 21 22  1  1  0  0  0
 21 24  1  0  0  0  0
 22 27  1  0  0  0  0
 28 12  1  6  0  0  0
 28 29  1  0  0  0  0
 28 33  1  0  0  0  0
 29 30  1  0  0  0  0
 29 36  1  1  0  0  0
 30 31  1  0  0  0  0
 30 37  1  6  0  0  0
 31 32  1  0  0  0  0
 31 34  1  1  0  0  0
 32 33  1  0  0  0  0
 33 35  1  1  0  0  0
M  END
>  <CHROM.1>
-179.98858720,-57.93012377,-141.14741809,-162.08908419,-65.19017570,72.39227984
18.45632772,-5.07967888,47.37014600,3.06936770,0.76683547,2.48068343

>  <Name>
2oe8_lig

>  <RI>
0

>  <Rbt.Current_Directory>
/home/itssahil/PROJECTS/Mol_Feturizer/New_Systems/rnas/2oe8

>  <Rbt.Executable>
rbdock ($Id: //depot/dev/client3/rdock/2013.1/src/exe/rbdock.cxx#4 $)

>  <Rbt.Library>
libRbt.so (2013.1, Build901 2013/11/27)

>  <Rbt.Parameter_File>
/export/apps/rDock/src/rDock_2013.1_src/data/scripts/dock_solv.prm

>  <Rbt.Receptor>
prm/pocket_docking_8.prm

>  <SCORE>
-18.9225

>  <SCORE.INTER>
-16.1681

>  <SCORE.INTER.CONST>
1

>  <SCORE.INTER.POLAR>
-0.953431

>  <SCORE.INTER.ROT>
6

>  <SCORE.INTER.SOLV>
12.6003

>  <SCORE.INTER.VDW>
-19.4008

>  <SCORE.INTER.norm>
-0.436976

>  <SCORE.INTRA>
-2.75441

>  <SCORE.INTRA.DIHEDRAL>
-8.87453

>  <SCORE.INTRA.DIHEDRAL.0>
16.4056

>  <SCORE.INTRA.POLAR>
0

>  <SCORE.INTRA.POLAR.0>
0

>  <SCORE.INTRA.REPUL>
0

>  <SCORE.INTRA.REPUL.0>
0

>  <SCORE.INTRA.SOLV>
-0.874081

>  <SCORE.INTRA.SOLV.lig_0>
-90.9627

>  <SCORE.INTRA.VDW>
2.11989

>  <SCORE.INTRA.VDW.0>
-3.28744

>  <SCORE.INTRA.norm>
-0.0744436

>  <SCORE.RESTR>
0

>  <SCORE.RESTR.CAVITY>
0

>  <SCORE.RESTR.norm>
0

>  <SCORE.SYSTEM>
0

>  <SCORE.SYSTEM.CONST>
0

>  <SCORE.SYSTEM.DIHEDRAL>
0

>  <SCORE.SYSTEM.SOLV>
0

>  <SCORE.SYSTEM.norm>
0

>  <SCORE.heavy>
37

>  <SCORE.norm>
-0.51142

>  <RMSD>
10.687

$$$$
2oe8_lig
 OpenBabel11021811463D
libRbt.so/2013.1/901 2013/11/27
 37 40  0  0  0  0  0  0  0  0999 V2000
   17.1340   -4.8694   44.9430 C   0  0  1  0  0  0  0  0  0  0  0  0
   16.2515   -5.2231   46.1998 C   0  0  1  0  0  0  0  0  0  0  0  0
   16.2295   -4.0184   47.1636 C   0  0  0  0  0  0  0  0  0  0  0  0
   17.7147   -3.7600   47.5676 C   0  0  1  0  0  0  0  0  0  0  0  0
   18.6359   -3.4165   46.2871 C   0  0  1  0  0  0  0  0  0  0  0  0
   20.1233   -3.1761   46.6792 C   0  0  1  0  0  0  0  0  0  0  0  0
   20.1486   -1.9884   47.7260 C   0  0  1  0  0  0  0  0  0  0  0  0
   19.2054   -2.3500   48.9257 C   0  0  2  0  0  0  0  0  0  0  0  0
   22.6796   -1.5183   47.2067 C   0  0  0  0  0  0  0  0  0  0  0  0
   14.8534   -5.5589   45.7819 N   0  0  0  0  0  0  0  0  0  0  0  0
   21.5689   -1.7073   48.2089 N   0  0  0  0  0  0  0  0  0  0  0  0
   16.5978   -3.7573   44.2153 O   0  0  0  0  0  0  0  0  0  0  0  0
   18.5341   -4.5294   45.3328 O   0  0  0  0  0  0  0  0  0  0  0  0
   17.8047   -2.6434   48.5016 O   0  0  0  0  0  0  0  0  0  0  0  0
   20.6153   -4.3987   47.2307 O   0  0  0  0  0  0  0  0  0  0  0  0
   19.1775   -1.2894   49.8096 O   0  0  0  0  0  0  0  0  0  0  0  0
   18.7706   -1.6646   51.1364 C   0  0  2  0  0  0  0  0  0  0  0  0
   19.8020   -1.1635   52.1760 C   0  0  1  0  0  0  0  0  0  0  0  0
   21.1785   -1.8794   52.0181 C   0  0  2  0  0  0  0  0  0  0  0  0
   20.9803   -3.4162   52.1735 C   0  0  1  0  0  0  0  0  0  0  0  0
   19.9792   -3.8698   51.0311 C   0  0  1  0  0  0  0  0  0  0  0  0
   19.6890   -5.3670   51.0869 C   0  0  0  0  0  0  0  0  0  0  0  0
   22.2950   -4.1029   52.0232 N   0  0  0  0  0  0  0  0  0  0  0  0
   18.6725   -3.1452   51.2181 O   0  0  0  0  0  0  0  0  0  0  0  0
   19.9144    0.2632   52.0125 O   0  0  0  0  0  0  0  0  0  0  0  0
   22.0453   -1.4060   53.0275 O   0  0  0  0  0  0  0  0  0  0  0  0
   20.8256   -6.0788   50.6741 O   0  0  0  0  0  0  0  0  0  0  0  0
   16.2721   -4.0617   42.8748 C   0  0  1  0  0  0  0  0  0  0  0  0
   15.3007   -2.9573   42.3472 C   0  0  1  0  0  0  0  0  0  0  0  0
   14.9083   -3.2976   40.8798 C   0  0  2  0  0  0  0  0  0  0  0  0
   16.1738   -3.3719   39.9706 C   0  0  1  0  0  0  0  0  0  0  0  0
   17.1652   -4.4762   40.5019 C   0  0  0  0  0  0  0  0  0  0  0  0
   17.5671   -4.1227   41.9938 C   0  0  2  0  0  0  0  0  0  0  0  0
   15.7732   -3.7037   38.5752 N   0  0  0  0  0  0  0  0  0  0  0  0
   18.5006   -5.1620   42.4834 N   0  0  0  0  0  0  0  0  0  0  0  0
   14.1092   -2.9119   43.1544 O   0  0  0  0  0  0  0  0  0  0  0  0
   14.0340   -2.2783   40.4242 O   0  0  0  0  0  0  0  0  0  0  0  0
  1  2  1  0  0  0  0
  1 12  1  1  0  0  0
  1 13  1  0  0  0  0
  2  3  1  0  0  0  0
  2 10  1  6  0  0  0
  4  3  1  6  0  0  0
  4  5  1  0  0  0  0
  4 14  1  0  0  0  0
  5  6  1  0  0  0  0
  5 13  1  6  0  0  0
  6  7  1  0  0  0  0
  6 15  1  1  0  0  0
  7  8  1  0  0  0  0
  7 11  1  1  0  0  0
  8 14  1  0  0  0  0
  8 16  1  1  0  0  0
  9 11  1  0  0  0  0
 17 16  1  6  0  0  0
 17 18  1  0  0  0  0
 17 24  1  0  0  0  0
 18 19  1  0  0  0  0
 18 25  1  6  0  0  0
 19 20  1  0  0  0  0
 19 26  1  1  0  0  0
 20 21  1  0  0  0  0
 20 23  1  6  0  0  0
 21 22  1  1  0  0  0
 21 24  1  0  0  0  0
 22 27  1  0  0  0  0
 28 12  1  1  0  0  0
 28 29  1  0  0  0  0
 28 33  1  0  0  0  0
 29 30  1  0  0  0  0
 29 36  1  1  0  0  0
 30 31  1  0  0  0  0
 30 37  1  6  0  0  0
 31 32  1  0  0  0  0
 31 34  1  6  0  0  0
 32 33  1  0  0  0  0
 33 35  1  1  0  0  0
M  END
>  <CHROM.1>
-120.43142861,50.49596249,-158.45357023,127.79147307,-71.38725627,161.93285200
18.42454548,-3.29125546,46.89543751,2.02717005,-0.05576196,-1.66700006

>  <Name>
2oe8_lig

>  <RI>
0

>  <Rbt.Current_Directory>
/home/itssahil/PROJECTS/Mol_Feturizer/New_Systems/rnas/2oe8

>  <Rbt.Executable>
rbdock ($Id: //depot/dev/client3/rdock/2013.1/src/exe/rbdock.cxx#4 $)

>  <Rbt.Library>
libRbt.so (2013.1, Build901 2013/11/27)

>  <Rbt.Parameter_File>
/export/apps/rDock/src/rDock_2013.1_src/data/scripts/dock_solv.prm

>  <Rbt.Receptor>
prm/blind_docking_100.prm

>  <SCORE>
-17.0978

>  <SCORE.INTER>
-22.5208

>  <SCORE.INTER.CONST>
1

>  <SCORE.INTER.POLAR>
-2.55842

>  <SCORE.INTER.ROT>
6

>  <SCORE.INTER.SOLV>
14.0495

>  <SCORE.INTER.VDW>
-18.769

>  <SCORE.INTER.norm>
-0.60867

>  <SCORE.INTRA>
5.42298

>  <SCORE.INTRA.DIHEDRAL>
1.77194

>  <SCORE.INTRA.DIHEDRAL.0>
16.4056

>  <SCORE.INTRA.POLAR>
0

>  <SCORE.INTRA.POLAR.0>
0

>  <SCORE.INTRA.REPUL>
0

>  <SCORE.INTRA.REPUL.0>
0

>  <SCORE.INTRA.SOLV>
1.26354

>  <SCORE.INTRA.SOLV.lig_0>
-90.9627

>  <SCORE.INTRA.VDW>
3.90524

>  <SCORE.INTRA.VDW.0>
-3.28744

>  <SCORE.INTRA.norm>
0.146567

>  <SCORE.RESTR>
0

>  <SCORE.RESTR.CAVITY>
0

>  <SCORE.RESTR.norm>
0

>  <SCORE.SYSTEM>
0

>  <SCORE.SYSTEM.CONST>
0

>  <SCORE.SYSTEM.DIHEDRAL>
0

>  <SCORE.SYSTEM.SOLV>
0

>  <SCORE.SYSTEM.norm>
0

>  <SCORE.heavy>
37

>  <SCORE.norm>
-0.462103

>  <RMSD>
10.698

$$$$
2oe8_lig
 OpenBabel11021811463D
libRbt.so/2013.1/901 2013/11/27
 37 40  0  0  0  0  0  0  0  0999 V2000
   16.4852   -4.2282   44.8177 C   0  0  1  0  0  0  0  0  0  0  0  0
   15.8556   -4.8889   46.1025 C   0  0  1  0  0  0  0  0  0  0  0  0
   16.0981   -3.9717   47.3193 C   0  0  0  0  0  0  0  0  0  0  0  0
   17.6467   -3.8316   47.4539 C   0  0  1  0  0  0  0  0  0  0  0  0
   18.3086   -3.1748   46.1362 C   0  0  1  0  0  0  0  0  0  0  0  0
   19.8559   -3.0491   46.2547 C   0  0  1  0  0  0  0  0  0  0  0  0
   20.1605   -2.1698   47.5358 C   0  0  1  0  0  0  0  0  0  0  0  0
   19.4596   -2.8233   48.7773 C   0  0  2  0  0  0  0  0  0  0  0  0
   22.1787   -1.0276   48.7681 C   0  0  0  0  0  0  0  0  0  0  0  0
   14.3849   -5.1006   45.9169 N   0  0  0  0  0  0  0  0  0  0  0  0
   21.6628   -2.0277   47.7644 N   0  0  0  0  0  0  0  0  0  0  0  0
   15.8781   -2.9644   44.5205 O   0  0  0  0  0  0  0  0  0  0  0  0
   17.9523   -4.0051   44.9772 O   0  0  0  0  0  0  0  0  0  0  0  0
   17.9876   -2.9924   48.5971 O   0  0  0  0  0  0  0  0  0  0  0  0
   20.3778   -4.3741   46.3670 O   0  0  0  0  0  0  0  0  0  0  0  0
   19.6720   -2.0248   49.8838 O   0  0  0  0  0  0  0  0  0  0  0  0
   19.5601   -2.7355   51.1286 C   0  0  2  0  0  0  0  0  0  0  0  0
   19.5567   -1.7419   52.3154 C   0  0  1  0  0  0  0  0  0  0  0  0
   20.9231   -1.0037   52.4570 C   0  0  2  0  0  0  0  0  0  0  0  0
   22.0571   -2.0528   52.6537 C   0  0  1  0  0  0  0  0  0  0  0  0
   22.0533   -2.9820   51.3692 C   0  0  1  0  0  0  0  0  0  0  0  0
   23.1192   -4.0712   51.4488 C   0  0  0  0  0  0  0  0  0  0  0  0
   23.3645   -1.3495   52.7897 N   0  0  0  0  0  0  0  0  0  0  0  0
   20.7135   -3.6620   51.2688 O   0  0  0  0  0  0  0  0  0  0  0  0
   18.4676   -0.8239   52.1005 O   0  0  0  0  0  0  0  0  0  0  0  0
   20.8569   -0.1563   53.5848 O   0  0  0  0  0  0  0  0  0  0  0  0
   23.1321   -4.8006   50.2501 O   0  0  0  0  0  0  0  0  0  0  0  0
   15.7157   -2.7253   43.1376 C   0  0  1  0  0  0  0  0  0  0  0  0
   17.0761   -3.0238   42.4292 C   0  0  1  0  0  0  0  0  0  0  0  0
   16.9204   -2.7340   40.9077 C   0  0  2  0  0  0  0  0  0  0  0  0
   15.7927   -3.6160   40.2880 C   0  0  1  0  0  0  0  0  0  0  0  0
   14.4181   -3.3297   41.0044 C   0  0  0  0  0  0  0  0  0  0  0  0
   14.5791   -3.6319   42.5520 C   0  0  2  0  0  0  0  0  0  0  0  0
   15.6597   -3.3167   38.8353 N   0  0  0  0  0  0  0  0  0  0  0  0
   13.2835   -3.3643   43.2160 N   0  0  0  0  0  0  0  0  0  0  0  0
   18.1144   -2.1821   42.9647 O   0  0  0  0  0  0  0  0  0  0  0  0
   18.1642   -3.0190   40.2892 O   0  0  0  0  0  0  0  0  0  0  0  0
  1  2  1  0  0  0  0
  1 12  1  1  0  0  0
  1 13  1  0  0  0  0
  2  3  1  0  0  0  0
  2 10  1  6  0  0  0
  4  3  1  6  0  0  0
  4  5  1  0  0  0  0
  4 14  1  0  0  0  0
  5  6  1  0  0  0  0
  5 13  1  6  0  0  0
  6  7  1  0  0  0  0
  6 15  1  1  0  0  0
  7  8  1  0  0  0  0
  7 11  1  1  0  0  0
  8 14  1  0  0  0  0
  8 16  1  1  0  0  0
  9 11  1  0  0  0  0
 17 16  1  6  0  0  0
 17 18  1  0  0  0  0
 17 24  1  0  0  0  0
 18 19  1  0  0  0  0
 18 25  1  6  0  0  0
 19 20  1  0  0  0  0
 19 26  1  1  0  0  0
 20 21  1  0  0  0  0
 20 23  1  6  0  0  0
 21 22  1  1  0  0  0
 21 24  1  0  0  0  0
 22 27  1  0  0  0  0
 28 12  1  1  0  0  0
 28 29  1  0  0  0  0
 28 33  1  0  0  0  0
 29 30  1  0  0  0  0
 29 36  1  1  0  0  0
 30 31  1  0  0  0  0
 30 37  1  6  0  0  0
 31 32  1  0  0  0  0
 31 34  1  6  0  0  0
 32 33  1  0  0  0  0
 33 35  1  1  0  0  0
M  END
>  <CHROM.1>
-142.44922204,168.59657507,-156.67938902,-169.88597740,-175.89132034,-49.27140394
18.62145855,-2.93571143,47.01630826,2.08934097,-0.07731988,-1.65636422

>  <Name>
2oe8_lig

>  <RI>
0

>  <Rbt.Current_Directory>
/home/itssahil/PROJECTS/Mol_Feturizer/New_Systems/rnas/2oe8

>  <Rbt.Executable>
rbdock ($Id: //depot/dev/client3/rdock/2013.1/src/exe/rbdock.cxx#4 $)

>  <Rbt.Library>
libRbt.so (2013.1, Build901 2013/11/27)

>  <Rbt.Parameter_File>
/export/apps/rDock/src/rDock_2013.1_src/data/scripts/dock_solv.prm

>  <Rbt.Receptor>
prm/blind_docking_80.prm

>  <SCORE>
-21.9696

>  <SCORE.INTER>
-19.8239

>  <SCORE.INTER.CONST>
1

>  <SCORE.INTER.POLAR>
-2.62364

>  <SCORE.INTER.ROT>
6

>  <SCORE.INTER.SOLV>
15.1705

>  <SCORE.INTER.VDW>
-17.1273

>  <SCORE.INTER.norm>
-0.53578

>  <SCORE.INTRA>
-2.14578

>  <SCORE.INTRA.DIHEDRAL>
-7.83502

>  <SCORE.INTRA.DIHEDRAL.0>
16.4056

>  <SCORE.INTRA.POLAR>
0

>  <SCORE.INTRA.POLAR.0>
0

>  <SCORE.INTRA.REPUL>
0

>  <SCORE.INTRA.REPUL.0>
0

>  <SCORE.INTRA.SOLV>
0.392998

>  <SCORE.INTRA.SOLV.lig_0>
-90.9627

>  <SCORE.INTRA.VDW>
1.57523

>  <SCORE.INTRA.VDW.0>
-3.28744

>  <SCORE.INTRA.norm>
-0.0579941

>  <SCORE.RESTR>
0

>  <SCORE.RESTR.CAVITY>
0

>  <SCORE.RESTR.norm>
0

>  <SCORE.SYSTEM>
0

>  <SCORE.SYSTEM.CONST>
0

>  <SCORE.SYSTEM.DIHEDRAL>
0

>  <SCORE.SYSTEM.SOLV>
0

>  <SCORE.SYSTEM.norm>
0

>  <SCORE.heavy>
37

>  <SCORE.norm>
-0.593774

>  <RMSD>
10.701

$$$$
2oe8_lig
 OpenBabel11021811463D
libRbt.so/2013.1/901 2013/11/27
 37 40  0  0  0  0  0  0  0  0999 V2000
   21.9559   -0.4046   54.4329 C   0  0  1  0  0  0  0  0  0  0  0  0
   20.5355   -0.8744   53.9376 C   0  0  1  0  0  0  0  0  0  0  0  0
   19.4555    0.0558   54.5283 C   0  0  0  0  0  0  0  0  0  0  0  0
   19.5835   -0.0623   56.0793 C   0  0  1  0  0  0  0  0  0  0  0  0
   21.0412    0.3962   56.5997 C   0  0  1  0  0  0  0  0  0  0  0  0
   21.1837    0.2633   58.1443 C   0  0  1  0  0  0  0  0  0  0  0  0
   20.0472    1.1492   58.8004 C   0  0  1  0  0  0  0  0  0  0  0  0
   18.6584    0.6962   58.2295 C   0  0  2  0  0  0  0  0  0  0  0  0
   19.4517    2.1335   61.1612 C   0  0  0  0  0  0  0  0  0  0  0  0
   20.4639   -0.8429   52.4423 N   0  0  0  0  0  0  0  0  0  0  0  0
   20.0756    1.0463   60.3229 N   0  0  0  0  0  0  0  0  0  0  0  0
   22.2577    0.9251   53.9914 O   0  0  0  0  0  0  0  0  0  0  0  0
   22.0534   -0.4258   55.9220 O   0  0  0  0  0  0  0  0  0  0  0  0
   18.5850    0.7702   56.7405 O   0  0  0  0  0  0  0  0  0  0  0  0
   21.0450   -1.1227   58.4613 O   0  0  0  0  0  0  0  0  0  0  0  0
   17.6719    1.5085   58.7530 O   0  0  0  0  0  0  0  0  0  0  0  0
   16.3446    0.9937   58.5523 C   0  0  2  0  0  0  0  0  0  0  0  0
   15.3367    2.1570   58.3897 C   0  0  1  0  0  0  0  0  0  0  0  0
   15.1937    2.9875   59.7020 C   0  0  2  0  0  0  0  0  0  0  0  0
   14.7320    2.0502   60.8567 C   0  0  1  0  0  0  0  0  0  0  0  0
   15.8470    0.9349   61.0188 C   0  0  1  0  0  0  0  0  0  0  0  0
   15.5001   -0.0642   62.1189 C   0  0  0  0  0  0  0  0  0  0  0  0
   14.5944    2.8419   62.1124 N   0  0  0  0  0  0  0  0  0  0  0  0
   15.9564    0.1697   59.7265 O   0  0  0  0  0  0  0  0  0  0  0  0
   15.7913    2.9649   57.2872 O   0  0  0  0  0  0  0  0  0  0  0  0
   14.2261    3.9939   59.4891 O   0  0  0  0  0  0  0  0  0  0  0  0
   16.5390   -0.9990   62.2457 O   0  0  0  0  0  0  0  0  0  0  0  0
   23.6346    1.2379   54.0362 C   0  0  1  0  0  0  0  0  0  0  0  0
   24.3492    0.4541   52.8887 C   0  0  1  0  0  0  0  0  0  0  0  0
   25.8733    0.7651   52.9460 C   0  0  2  0  0  0  0  0  0  0  0  0
   26.1331    2.2952   52.7876 C   0  0  1  0  0  0  0  0  0  0  0  0
   25.4064    3.0953   53.9349 C   0  0  0  0  0  0  0  0  0  0  0  0
   23.8544    2.7808   53.8692 C   0  0  2  0  0  0  0  0  0  0  0  0
   27.5959    2.5673   52.8512 N   0  0  0  0  0  0  0  0  0  0  0  0
   23.1795    3.5387   54.9468 N   0  0  0  0  0  0  0  0  0  0  0  0
   24.1517   -0.9628   53.0522 O   0  0  0  0  0  0  0  0  0  0  0  0
   26.4954    0.0484   51.8923 O   0  0  0  0  0  0  0  0  0  0  0  0
  1  2  1  0  0  0  0
  1 12  1  1  0  0  0
  1 13  1  0  0  0  0
  2  3  1  0  0  0  0
  2 10  1  6  0  0  0
  4  3  1  6  0  0  0
  4  5  1  0  0  0  0
  4 14  1  0  0  0  0
  5  6  1  0  0  0  0
  5 13  1  6  0  0  0
  6  7  1  0  0  0  0
  6 15  1  6  0  0  0
  7  8  1  0  0  0  0
  7 11  1  1  0  0  0
  8 14  1  0  0  0  0
  8 16  1  1  0  0  0
  9 11  1  0  0  0  0
 17 16  1  1  0  0  0
 17 18  1  0  0  0  0
 17 24  1  0  0  0  0
 18 19  1  0  0  0  0
 18 25  1  6  0  0  0
 19 20  1  0  0  0  0
 19 26  1  6  0  0  0
 20 21  1  0  0  0  0
 20 23  1  1  0  0  0
 21 22  1  1  0  0  0
 21 24  1  0  0  0  0
 22 27  1  0  0  0  0
 28 12  1  6  0  0  0
 28 29  1  0  0  0  0
 28 33  1  0  0  0  0
 29 30  1  0  0  0  0
 29 36  1  1  0  0  0
 30 31  1  0  0  0  0
 30 37  1  6  0  0  0
 31 32  1  0  0  0  0
 31 34  1  1  0  0  0
 32 33  1  0  0  0  0
 33 35  1  1  0  0  0
M  END
>  <CHROM.1>
-161.29133644,158.17707562,-166.11904704,-147.96774041,-178.11534653,72.08410340
20.09915842,1.04006176,56.87129289,-0.58743122,-0.36468155,1.99033714

>  <Name>
2oe8_lig

>  <RI>
0

>  <Rbt.Current_Directory>
/home/itssahil/PROJECTS/Mol_Feturizer/New_Systems/rnas/2oe8

>  <Rbt.Executable>
rbdock ($Id: //depot/dev/client3/rdock/2013.1/src/exe/rbdock.cxx#4 $)

>  <Rbt.Library>
libRbt.so (2013.1, Build901 2013/11/27)

>  <Rbt.Parameter_File>
/export/apps/rDock/src/rDock_2013.1_src/data/scripts/dock_solv.prm

>  <Rbt.Receptor>
prm/pocket_docking_8.prm

>  <SCORE>
-26.5406

>  <SCORE.INTER>
-21.8343

>  <SCORE.INTER.CONST>
1

>  <SCORE.INTER.POLAR>
-1.93775

>  <SCORE.INTER.ROT>
6

>  <SCORE.INTER.SOLV>
12.2129

>  <SCORE.INTER.VDW>
-19.768

>  <SCORE.INTER.norm>
-0.590115

>  <SCORE.INTRA>
-4.70636

>  <SCORE.INTRA.DIHEDRAL>
-8.81018

>  <SCORE.INTRA.DIHEDRAL.0>
16.4056

>  <SCORE.INTRA.POLAR>
0

>  <SCORE.INTRA.POLAR.0>
0

>  <SCORE.INTRA.REPUL>
0

>  <SCORE.INTRA.REPUL.0>
0

>  <SCORE.INTRA.SOLV>
-2.43235

>  <SCORE.INTRA.SOLV.lig_0>
-90.9627

>  <SCORE.INTRA.VDW>
0.914903

>  <SCORE.INTRA.VDW.0>
-3.28744

>  <SCORE.INTRA.norm>
-0.127199

>  <SCORE.RESTR>
0

>  <SCORE.RESTR.CAVITY>
0

>  <SCORE.RESTR.norm>
0

>  <SCORE.SYSTEM>
0

>  <SCORE.SYSTEM.CONST>
0

>  <SCORE.SYSTEM.DIHEDRAL>
0

>  <SCORE.SYSTEM.SOLV>
0

>  <SCORE.SYSTEM.norm>
0

>  <SCORE.heavy>
37

>  <SCORE.norm>
-0.717314

>  <RMSD>
10.701

$$$$
2oe8_lig
 OpenBabel11021811463D
libRbt.so/2013.1/901 2013/11/27
 37 40  0  0  0  0  0  0  0  0999 V2000
   17.6354   -4.7334   44.2370 C   0  0  1  0  0  0  0  0  0  0  0  0
   18.4838   -3.4943   43.7592 C   0  0  1  0  0  0  0  0  0  0  0  0
   19.8473   -3.5001   44.4813 C   0  0  0  0  0  0  0  0  0  0  0  0
   19.5296   -3.4160   46.0070 C   0  0  1  0  0  0  0  0  0  0  0  0
   18.6429   -4.6689   46.5072 C   0  0  1  0  0  0  0  0  0  0  0  0
   18.3052   -4.5828   48.0246 C   0  0  1  0  0  0  0  0  0  0  0  0
   19.6784   -4.5156   48.8099 C   0  0  1  0  0  0  0  0  0  0  0  0
   20.5200   -3.3131   48.2571 C   0  0  2  0  0  0  0  0  0  0  0  0
   19.0706   -5.5933   51.1263 C   0  0  0  0  0  0  0  0  0  0  0  0
   18.6984   -3.5446   42.2781 N   0  0  0  0  0  0  0  0  0  0  0  0
   19.4498   -4.3815   50.3129 N   0  0  0  0  0  0  0  0  0  0  0  0
   18.2787   -5.9724   43.9129 O   0  0  0  0  0  0  0  0  0  0  0  0
   17.4078   -4.7078   45.7118 O   0  0  0  0  0  0  0  0  0  0  0  0
   20.7620   -3.3947   46.7865 O   0  0  0  0  0  0  0  0  0  0  0  0
   17.5122   -3.4095   48.2127 O   0  0  0  0  0  0  0  0  0  0  0  0
   21.7435   -3.2903   48.8972 O   0  0  0  0  0  0  0  0  0  0  0  0
   22.5929   -2.2145   48.4634 C   0  0  2  0  0  0  0  0  0  0  0  0
   23.9307   -2.2399   49.2415 C   0  0  1  0  0  0  0  0  0  0  0  0
   23.7256   -1.9329   50.7567 C   0  0  2  0  0  0  0  0  0  0  0  0
   23.0537   -0.5367   50.9128 C   0  0  1  0  0  0  0  0  0  0  0  0
   21.6590   -0.6099   50.1627 C   0  0  1  0  0  0  0  0  0  0  0  0
   20.9037    0.7144   50.2302 C   0  0  0  0  0  0  0  0  0  0  0  0
   22.8568   -0.2408   52.3606 N   0  0  0  0  0  0  0  0  0  0  0  0
   21.9073   -0.9194   48.7101 O   0  0  0  0  0  0  0  0  0  0  0  0
   24.5235   -3.5354   49.0293 O   0  0  0  0  0  0  0  0  0  0  0  0
   24.9903   -1.9262   51.3851 O   0  0  0  0  0  0  0  0  0  0  0  0
   21.6559    1.7142   49.5947 O   0  0  0  0  0  0  0  0  0  0  0  0
   17.5739   -7.1111   44.3629 C   0  0  1  0  0  0  0  0  0  0  0  0
   16.4172   -7.3984   43.3523 C   0  0  1  0  0  0  0  0  0  0  0  0
   15.6122   -8.6329   43.8532 C   0  0  2  0  0  0  0  0  0  0  0  0
   16.5355   -9.8844   43.9753 C   0  0  1  0  0  0  0  0  0  0  0  0
   17.7123   -9.5999   44.9847 C   0  0  0  0  0  0  0  0  0  0  0  0
   18.5330   -8.3463   44.4679 C   0  0  2  0  0  0  0  0  0  0  0  0
   15.7445  -11.0490   44.4606 N   0  0  0  0  0  0  0  0  0  0  0  0
   19.6377   -8.0887   45.4189 N   0  0  0  0  0  0  0  0  0  0  0  0
   15.5344   -6.2641   43.2667 O   0  0  0  0  0  0  0  0  0  0  0  0
   14.5755   -8.8754   42.9165 O   0  0  0  0  0  0  0  0  0  0  0  0
  1  2  1  0  0  0  0
  1 12  1  1  0  0  0
  1 13  1  0  0  0  0
  2  3  1  0  0  0  0
  2 10  1  6  0  0  0
  4  3  1  6  0  0  0
  4  5  1  0  0  0  0
  4 14  1  0  0  0  0
  5  6  1  0  0  0  0
  5 13  1  6  0  0  0
  6  7  1  0  0  0  0
  6 15  1  6  0  0  0
  7  8  1  0  0  0  0
  7 11  1  1  0  0  0
  8 14  1  0  0  0  0
  8 16  1  1  0  0  0
  9 11  1  0  0  0  0
 17 16  1  1  0  0  0
 17 18  1  0  0  0  0
 17 24  1  0  0  0  0
 18 19  1  0  0  0  0
 18 25  1  1  0  0  0
 19 20  1  0  0  0  0
 19 26  1  1  0  0  0
 20 21  1  0  0  0  0
 20 23  1  1  0  0  0
 21 22  1  6  0  0  0
 21 24  1  0  0  0  0
 22 27  1  0  0  0  0
 28 12  1  6  0  0  0
 28 29  1  0  0  0  0
 28 33  1  0  0  0  0
 29 30  1  0  0  0  0
 29 36  1  1  0  0  0
 30 31  1  0  0  0  0
 30 37  1  6  0  0  0
 31 32  1  0  0  0  0
 31 34  1  1  0  0  0
 32 33  1  0  0  0  0
 33 35  1  1  0  0  0
M  END
>  <CHROM.1>
178.00371829,78.20416736,-179.73001496,178.97412031,61.67004220,79.94962104
19.61400973,-4.38584275,47.02678203,2.81767614,0.95763503,2.71535636

>  <Name>
2oe8_lig

>  <RI>
0

>  <Rbt.Current_Directory>
/home/itssahil/PROJECTS/Mol_Feturizer/New_Systems/rnas/2oe8

>  <Rbt.Executable>
rbdock ($Id: //depot/dev/client3/rdock/2013.1/src/exe/rbdock.cxx#4 $)

>  <Rbt.Library>
libRbt.so (2013.1, Build901 2013/11/27)

>  <Rbt.Parameter_File>
/export/apps/rDock/src/rDock_2013.1_src/data/scripts/dock_solv.prm

>  <Rbt.Receptor>
prm/pocket_docking_6.prm

>  <SCORE>
-20.688

>  <SCORE.INTER>
-13.7271

>  <SCORE.INTER.CONST>
1

>  <SCORE.INTER.POLAR>
-0.842842

>  <SCORE.INTER.ROT>
6

>  <SCORE.INTER.SOLV>
10.4964

>  <SCORE.INTER.VDW>
-17.4407

>  <SCORE.INTER.norm>
-0.371003

>  <SCORE.INTRA>
-6.96086

>  <SCORE.INTRA.DIHEDRAL>
-14.2555

>  <SCORE.INTRA.DIHEDRAL.0>
16.4056

>  <SCORE.INTRA.POLAR>
0

>  <SCORE.INTRA.POLAR.0>
0

>  <SCORE.INTRA.REPUL>
0

>  <SCORE.INTRA.REPUL.0>
0

>  <SCORE.INTRA.SOLV>
-2.26098

>  <SCORE.INTRA.SOLV.lig_0>
-90.9627

>  <SCORE.INTRA.VDW>
1.29741

>  <SCORE.INTRA.VDW.0>
-3.28744

>  <SCORE.INTRA.norm>
-0.188131

>  <SCORE.RESTR>
0

>  <SCORE.RESTR.CAVITY>
0

>  <SCORE.RESTR.norm>
0

>  <SCORE.SYSTEM>
0

>  <SCORE.SYSTEM.CONST>
0

>  <SCORE.SYSTEM.DIHEDRAL>
0

>  <SCORE.SYSTEM.SOLV>
0

>  <SCORE.SYSTEM.norm>
0

>  <SCORE.heavy>
37

>  <SCORE.norm>
-0.559134

>  <RMSD>
10.703

$$$$
2oe8_lig
 OpenBabel11021811463D
libRbt.so/2013.1/901 2013/11/27
 37 40  0  0  0  0  0  0  0  0999 V2000
   16.8189   -6.2250   45.6864 C   0  0  1  0  0  0  0  0  0  0  0  0
   15.8939   -5.6405   46.8204 C   0  0  1  0  0  0  0  0  0  0  0  0
   16.5795   -4.4134   47.4567 C   0  0  0  0  0  0  0  0  0  0  0  0
   17.9340   -4.9270   48.0376 C   0  0  1  0  0  0  0  0  0  0  0  0
   18.8844   -5.5479   46.8899 C   0  0  1  0  0  0  0  0  0  0  0  0
   20.2302   -6.0801   47.4640 C   0  0  1  0  0  0  0  0  0  0  0  0
   20.9440   -4.8686   48.1918 C   0  0  1  0  0  0  0  0  0  0  0  0
   19.9651   -4.2728   49.2627 C   0  0  2  0  0  0  0  0  0  0  0  0
   23.2691   -6.0774   48.0210 C   0  0  0  0  0  0  0  0  0  0  0  0
   14.5647   -5.2399   46.2593 N   0  0  0  0  0  0  0  0  0  0  0  0
   22.2590   -5.3052   48.8317 N   0  0  0  0  0  0  0  0  0  0  0  0
   17.0369   -5.2730   44.6375 O   0  0  0  0  0  0  0  0  0  0  0  0
   18.1522   -6.6316   46.2199 O   0  0  0  0  0  0  0  0  0  0  0  0
   18.6588   -3.8396   48.6852 O   0  0  0  0  0  0  0  0  0  0  0  0
   19.9121   -7.1442   48.3625 O   0  0  0  0  0  0  0  0  0  0  0  0
   20.5618   -3.1774   49.8552 O   0  0  0  0  0  0  0  0  0  0  0  0
   19.8405   -2.6845   50.9970 C   0  0  2  0  0  0  0  0  0  0  0  0
   19.7455   -1.1405   50.9462 C   0  0  1  0  0  0  0  0  0  0  0  0
   21.1443   -0.4685   51.1010 C   0  0  2  0  0  0  0  0  0  0  0  0
   21.7817   -0.9113   52.4511 C   0  0  1  0  0  0  0  0  0  0  0  0
   21.9215   -2.4896   52.3991 C   0  0  1  0  0  0  0  0  0  0  0  0
   22.5243   -3.0525   53.6832 C   0  0  0  0  0  0  0  0  0  0  0  0
   23.1191   -0.2700   52.6015 N   0  0  0  0  0  0  0  0  0  0  0  0
   20.5505   -3.0910   52.2375 O   0  0  0  0  0  0  0  0  0  0  0  0
   19.1151   -0.7923   49.6987 O   0  0  0  0  0  0  0  0  0  0  0  0
   20.9687    0.9328   51.0936 O   0  0  0  0  0  0  0  0  0  0  0  0
   22.8121   -4.4144   53.5063 O   0  0  0  0  0  0  0  0  0  0  0  0
   15.9256   -5.1104   43.7804 C   0  0  1  0  0  0  0  0  0  0  0  0
   15.8891   -3.6213   43.3082 C   0  0  1  0  0  0  0  0  0  0  0  0
   14.6503   -3.4202   42.3874 C   0  0  2  0  0  0  0  0  0  0  0  0
   14.7187   -4.3691   41.1511 C   0  0  1  0  0  0  0  0  0  0  0  0
   14.7672   -5.8738   41.6183 C   0  0  0  0  0  0  0  0  0  0  0  0
   16.0332   -6.0758   42.5503 C   0  0  2  0  0  0  0  0  0  0  0  0
   13.5216   -4.1619   40.2898 N   0  0  0  0  0  0  0  0  0  0  0  0
   16.0732   -7.4914   42.9811 N   0  0  0  0  0  0  0  0  0  0  0  0
   15.7812   -2.7396   44.4414 O   0  0  0  0  0  0  0  0  0  0  0  0
   14.6451   -2.0654   41.9684 O   0  0  0  0  0  0  0  0  0  0  0  0
  1  2  1  0  0  0  0
  1 12  1  6  0  0  0
  1 13  1  0  0  0  0
  2  3  1  0  0  0  0
  2 10  1  6  0  0  0
  4  3  1  6  0  0  0
  4  5  1  0  0  0  0
  4 14  1  0  0  0  0
  5  6  1  0  0  0  0
  5 13  1  1  0  0  0
  6  7  1  0  0  0  0
  6 15  1  1  0  0  0
  7  8  1  0  0  0  0
  7 11  1  1  0  0  0
  8 14  1  0  0  0  0
  8 16  1  6  0  0  0
  9 11  1  0  0  0  0
 17 16  1  6  0  0  0
 17 18  1  0  0  0  0
 17 24  1  0  0  0  0
 18 19  1  0  0  0  0
 18 25  1  6  0  0  0
 19 20  1  0  0  0  0
 19 26  1  1  0  0  0
 20 21  1  0  0  0  0
 20 23  1  6  0  0  0
 21 22  1  1  0  0  0
 21 24  1  0  0  0  0
 22 27  1  0  0  0  0
 28 12  1  1  0  0  0
 28 29  1  0  0  0  0
 28 33  1  0  0  0  0
 29 30  1  0  0  0  0
 29 36  1  1  0  0  0
 30 31  1  0  0  0  0
 30 37  1  6  0  0  0
 31 32  1  0  0  0  0
 31 34  1  6  0  0  0
 32 33  1  0  0  0  0
 33 35  1  1  0  0  0
M  END
>  <CHROM.1>
-75.30418750,50.18598134,-170.68630261,-135.41598066,-171.10757295,146.48017449
18.60314883,-3.98180955,47.49644470,-2.60197211,-0.84283341,0.40711079

>  <Name>
2oe8_lig

>  <RI>
0

>  <Rbt.Current_Directory>
/home/itssahil/PROJECTS/Mol_Feturizer/New_Systems/rnas/2oe8

>  <Rbt.Executable>
rbdock ($Id: //depot/dev/client3/rdock/2013.1/src/exe/rbdock.cxx#4 $)

>  <Rbt.Library>
libRbt.so (2013.1, Build901 2013/11/27)

>  <Rbt.Parameter_File>
/export/apps/rDock/src/rDock_2013.1_src/data/scripts/dock_solv.prm

>  <Rbt.Receptor>
prm/blind_docking_80.prm

>  <SCORE>
-17.1275

>  <SCORE.INTER>
-15.7609

>  <SCORE.INTER.CONST>
1

>  <SCORE.INTER.POLAR>
-2.0781

>  <SCORE.INTER.ROT>
6

>  <SCORE.INTER.SOLV>
10.0984

>  <SCORE.INTER.VDW>
-14.5464

>  <SCORE.INTER.norm>
-0.425971

>  <SCORE.INTRA>
-1.36654

>  <SCORE.INTRA.DIHEDRAL>
-4.1299

>  <SCORE.INTRA.DIHEDRAL.0>
16.4056

>  <SCORE.INTRA.POLAR>
0

>  <SCORE.INTRA.POLAR.0>
0

>  <SCORE.INTRA.REPUL>
0

>  <SCORE.INTRA.REPUL.0>
0

>  <SCORE.INTRA.SOLV>
0.233499

>  <SCORE.INTRA.SOLV.lig_0>
-90.9627

>  <SCORE.INTRA.VDW>
0.581667

>  <SCORE.INTRA.VDW.0>
-3.28744

>  <SCORE.INTRA.norm>
-0.0369334

>  <SCORE.RESTR>
0

>  <SCORE.RESTR.CAVITY>
0

>  <SCORE.RESTR.norm>
0

>  <SCORE.SYSTEM>
0

>  <SCORE.SYSTEM.CONST>
0

>  <SCORE.SYSTEM.DIHEDRAL>
0

>  <SCORE.SYSTEM.SOLV>
0

>  <SCORE.SYSTEM.norm>
0

>  <SCORE.heavy>
37

>  <SCORE.norm>
-0.462904

>  <RMSD>
10.706

$$$$
2oe8_lig
 OpenBabel11021811463D
libRbt.so/2013.1/901 2013/11/27
 37 40  0  0  0  0  0  0  0  0999 V2000
   17.9313   -5.4478   45.5923 C   0  0  1  0  0  0  0  0  0  0  0  0
   16.7599   -5.5146   46.6444 C   0  0  1  0  0  0  0  0  0  0  0  0
   16.6059   -4.1385   47.3250 C   0  0  0  0  0  0  0  0  0  0  0  0
   17.9735   -3.8419   48.0162 C   0  0  1  0  0  0  0  0  0  0  0  0
   19.1870   -3.7910   46.9528 C   0  0  1  0  0  0  0  0  0  0  0  0
   20.5580   -3.5145   47.6368 C   0  0  1  0  0  0  0  0  0  0  0  0
   20.4296   -2.1394   48.4110 C   0  0  1  0  0  0  0  0  0  0  0  0
   19.2119   -2.2240   49.3958 C   0  0  2  0  0  0  0  0  0  0  0  0
   22.0163   -0.3734   49.5338 C   0  0  0  0  0  0  0  0  0  0  0  0
   15.4744   -5.8921   45.9757 N   0  0  0  0  0  0  0  0  0  0  0  0
   21.7177   -1.8028   49.1574 N   0  0  0  0  0  0  0  0  0  0  0  0
   17.6602   -4.4939   44.5576 O   0  0  0  0  0  0  0  0  0  0  0  0
   19.2254   -5.0720   46.2338 O   0  0  0  0  0  0  0  0  0  0  0  0
   17.9285   -2.5611   48.7124 O   0  0  0  0  0  0  0  0  0  0  0  0
   20.8186   -4.6113   48.5142 O   0  0  0  0  0  0  0  0  0  0  0  0
   19.0599   -1.0050   50.0267 O   0  0  0  0  0  0  0  0  0  0  0  0
   18.4946   -1.1124   51.3441 C   0  0  2  0  0  0  0  0  0  0  0  0
   18.4804    0.2718   52.0366 C   0  0  1  0  0  0  0  0  0  0  0  0
   19.9228    0.7938   52.3177 C   0  0  2  0  0  0  0  0  0  0  0  0
   20.6767   -0.2335   53.2129 C   0  0  1  0  0  0  0  0  0  0  0  0
   20.7225   -1.5992   52.4091 C   0  0  1  0  0  0  0  0  0  0  0  0
   21.4282   -2.7011   53.1943 C   0  0  0  0  0  0  0  0  0  0  0  0
   22.0561    0.2634   53.4834 N   0  0  0  0  0  0  0  0  0  0  0  0
   19.3108   -2.0558   52.1517 O   0  0  0  0  0  0  0  0  0  0  0  0
   17.7392    1.1672   51.1858 O   0  0  0  0  0  0  0  0  0  0  0  0
   19.8254    2.0314   52.9909 O   0  0  0  0  0  0  0  0  0  0  0  0
   22.7840   -2.3722   53.3453 O   0  0  0  0  0  0  0  0  0  0  0  0
   16.5671   -4.8461   43.7349 C   0  0  1  0  0  0  0  0  0  0  0  0
   16.1702   -3.5928   42.8901 C   0  0  1  0  0  0  0  0  0  0  0  0
   14.9457   -3.9578   42.0011 C   0  0  2  0  0  0  0  0  0  0  0  0
   15.2834   -5.1519   41.0557 C   0  0  1  0  0  0  0  0  0  0  0  0
   15.6959   -6.4180   41.8992 C   0  0  0  0  0  0  0  0  0  0  0  0
   16.9466   -6.0440   42.7981 C   0  0  2  0  0  0  0  0  0  0  0  0
   14.0962   -5.4851   40.2207 N   0  0  0  0  0  0  0  0  0  0  0  0
   17.3296   -7.2389   43.5835 N   0  0  0  0  0  0  0  0  0  0  0  0
   15.8139   -2.4986   43.7555 O   0  0  0  0  0  0  0  0  0  0  0  0
   14.6114   -2.8079   41.2417 O   0  0  0  0  0  0  0  0  0  0  0  0
  1  2  1  0  0  0  0
  1 12  1  6  0  0  0
  1 13  1  0  0  0  0
  2  3  1  0  0  0  0
  2 10  1  6  0  0  0
  4  3  1  6  0  0  0
  4  5  1  0  0  0  0
  4 14  1  0  0  0  0
  5  6  1  0  0  0  0
  5 13  1  1  0  0  0
  6  7  1  0  0  0  0
  6 15  1  1  0  0  0
  7  8  1  0  0  0  0
  7 11  1  1  0  0  0
  8 14  1  0  0  0  0
  8 16  1  6  0  0  0
  9 11  1  0  0  0  0
 17 16  1  6  0  0  0
 17 18  1  0  0  0  0
 17 24  1  0  0  0  0
 18 19  1  0  0  0  0
 18 25  1  6  0  0  0
 19 20  1  0  0  0  0
 19 26  1  1  0  0  0
 20 21  1  0  0  0  0
 20 23  1  6  0  0  0
 21 22  1  1  0  0  0
 21 24  1  0  0  0  0
 22 27  1  0  0  0  0
 28 12  1  1  0  0  0
 28 29  1  0  0  0  0
 28 33  1  0  0  0  0
 29 30  1  0  0  0  0
 29 36  1  1  0  0  0
 30 31  1  0  0  0  0
 30 37  1  6  0  0  0
 31 32  1  0  0  0  0
 31 34  1  1  0  0  0
 32 33  1  0  0  0  0
 33 35  1  1  0  0  0
M  END
>  <CHROM.1>
-66.09258821,157.89750207,-150.53535219,174.61746988,-66.16743163,166.72729607
18.43844370,-2.93367822,47.70603975,-2.17014013,-0.75688980,0.69772037

>  <Name>
2oe8_lig

>  <RI>
0

>  <Rbt.Current_Directory>
/home/itssahil/PROJECTS/Mol_Feturizer/New_Systems/rnas/2oe8

>  <Rbt.Executable>
rbdock ($Id: //depot/dev/client3/rdock/2013.1/src/exe/rbdock.cxx#4 $)

>  <Rbt.Library>
libRbt.so (2013.1, Build901 2013/11/27)

>  <Rbt.Parameter_File>
/export/apps/rDock/src/rDock_2013.1_src/data/scripts/dock_solv.prm

>  <Rbt.Receptor>
prm/blind_docking_80.prm

>  <SCORE>
-25.3702

>  <SCORE.INTER>
-22.7162

>  <SCORE.INTER.CONST>
1

>  <SCORE.INTER.POLAR>
-3.31146

>  <SCORE.INTER.ROT>
6

>  <SCORE.INTER.SOLV>
9.54162

>  <SCORE.INTER.VDW>
-14.8865

>  <SCORE.INTER.norm>
-0.613952

>  <SCORE.INTRA>
-2.654

>  <SCORE.INTRA.DIHEDRAL>
-11.2177

>  <SCORE.INTRA.DIHEDRAL.0>
16.4056

>  <SCORE.INTRA.POLAR>
0

>  <SCORE.INTRA.POLAR.0>
0

>  <SCORE.INTRA.REPUL>
0

>  <SCORE.INTRA.REPUL.0>
0

>  <SCORE.INTRA.SOLV>
4.1573

>  <SCORE.INTRA.SOLV.lig_0>
-90.9627

>  <SCORE.INTRA.VDW>
0.87618

>  <SCORE.INTRA.VDW.0>
-3.28744

>  <SCORE.INTRA.norm>
-0.0717298

>  <SCORE.RESTR>
0

>  <SCORE.RESTR.CAVITY>
0

>  <SCORE.RESTR.norm>
0

>  <SCORE.SYSTEM>
0

>  <SCORE.SYSTEM.CONST>
0

>  <SCORE.SYSTEM.DIHEDRAL>
0

>  <SCORE.SYSTEM.SOLV>
0

>  <SCORE.SYSTEM.norm>
0

>  <SCORE.heavy>
37

>  <SCORE.norm>
-0.685682

>  <RMSD>
10.708

$$$$
2oe8_lig
 OpenBabel11021811463D
libRbt.so/2013.1/901 2013/11/27
 37 40  0  0  0  0  0  0  0  0999 V2000
   15.9186   -4.9080   44.8710 C   0  0  1  0  0  0  0  0  0  0  0  0
   16.9199   -3.8121   44.3420 C   0  0  1  0  0  0  0  0  0  0  0  0
   18.3587   -4.1989   44.7429 C   0  0  0  0  0  0  0  0  0  0  0  0
   18.3690   -4.2718   46.3019 C   0  0  1  0  0  0  0  0  0  0  0  0
   17.3324   -5.3765   46.8597 C   0  0  1  0  0  0  0  0  0  0  0  0
   17.3225   -5.4422   48.4152 C   0  0  1  0  0  0  0  0  0  0  0  0
   18.7995   -5.7694   48.8824 C   0  0  1  0  0  0  0  0  0  0  0  0
   19.7714   -4.6967   48.2785 C   0  0  2  0  0  0  0  0  0  0  0  0
   20.0412   -6.5459   51.0623 C   0  0  0  0  0  0  0  0  0  0  0  0
   16.8276   -3.6918   42.8523 N   0  0  0  0  0  0  0  0  0  0  0  0
   18.9019   -5.8087   50.4047 N   0  0  0  0  0  0  0  0  0  0  0  0
   16.1861   -6.1924   44.2940 O   0  0  0  0  0  0  0  0  0  0  0  0
   15.9917   -5.0486   46.3551 O   0  0  0  0  0  0  0  0  0  0  0  0
   19.7001   -4.6139   46.7900 O   0  0  0  0  0  0  0  0  0  0  0  0
   16.8709   -4.1716   48.8866 O   0  0  0  0  0  0  0  0  0  0  0  0
   21.0673   -5.0155   48.6334 O   0  0  0  0  0  0  0  0  0  0  0  0
   22.0221   -4.0037   48.2709 C   0  0  2  0  0  0  0  0  0  0  0  0
   23.3696   -4.2551   48.9898 C   0  0  1  0  0  0  0  0  0  0  0  0
   23.2441   -4.0786   50.5342 C   0  0  2  0  0  0  0  0  0  0  0  0
   22.7419   -2.6384   50.8486 C   0  0  1  0  0  0  0  0  0  0  0  0
   21.3273   -2.4809   50.1505 C   0  0  1  0  0  0  0  0  0  0  0  0
   20.7314   -1.0937   50.3732 C   0  0  0  0  0  0  0  0  0  0  0  0
   22.6213   -2.4671   52.3247 N   0  0  0  0  0  0  0  0  0  0  0  0
   21.4972   -2.6709   48.6664 O   0  0  0  0  0  0  0  0  0  0  0  0
   23.8034   -5.5813   48.6321 O   0  0  0  0  0  0  0  0  0  0  0  0
   24.5185   -4.2753   51.1101 O   0  0  0  0  0  0  0  0  0  0  0  0
   19.5014   -1.0007   49.7043 O   0  0  0  0  0  0  0  0  0  0  0  0
   15.3428   -7.2173   44.7780 C   0  0  1  0  0  0  0  0  0  0  0  0
   13.9509   -7.0710   44.0830 C   0  0  1  0  0  0  0  0  0  0  0  0
   13.0011   -8.1758   44.6309 C   0  0  2  0  0  0  0  0  0  0  0  0
   13.5862   -9.5957   44.3569 C   0  0  1  0  0  0  0  0  0  0  0  0
   14.9961   -9.7488   45.0451 C   0  0  0  0  0  0  0  0  0  0  0  0
   15.9618   -8.6261   44.4800 C   0  0  2  0  0  0  0  0  0  0  0  0
   12.6634  -10.6335   44.8945 N   0  0  0  0  0  0  0  0  0  0  0  0
   17.2837   -8.7795   45.1283 N   0  0  0  0  0  0  0  0  0  0  0  0
   13.3831   -5.7788   44.3675 O   0  0  0  0  0  0  0  0  0  0  0  0
   11.7502   -8.0248   43.9802 O   0  0  0  0  0  0  0  0  0  0  0  0
  1  2  1  0  0  0  0
  1 12  1  6  0  0  0
  1 13  1  0  0  0  0
  2  3  1  0  0  0  0
  2 10  1  6  0  0  0
  4  3  1  6  0  0  0
  4  5  1  0  0  0  0
  4 14  1  0  0  0  0
  5  6  1  0  0  0  0
  5 13  1  1  0  0  0
  6  7  1  0  0  0  0
  6 15  1  1  0  0  0
  7  8  1  0  0  0  0
  7 11  1  1  0  0  0
  8 14  1  0  0  0  0
  8 16  1  6  0  0  0
  9 11  1  0  0  0  0
 17 16  1  1  0  0  0
 17 18  1  0  0  0  0
 17 24  1  0  0  0  0
 18 19  1  0  0  0  0
 18 25  1  1  0  0  0
 19 20  1  0  0  0  0
 19 26  1  1  0  0  0
 20 21  1  0  0  0  0
 20 23  1  1  0  0  0
 21 22  1  6  0  0  0
 21 24  1  0  0  0  0
 22 27  1  0  0  0  0
 28 12  1  6  0  0  0
 28 29  1  0  0  0  0
 28 33  1  0  0  0  0
 29 30  1  0  0  0  0
 29 36  1  1  0  0  0
 30 31  1  0  0  0  0
 30 37  1  6  0  0  0
 31 32  1  0  0  0  0
 31 34  1  1  0  0  0
 32 33  1  0  0  0  0
 33 35  1  1  0  0  0
M  END
>  <CHROM.1>
177.78474302,158.90986421,-172.67505808,166.22667430,178.39144991,76.99102939
18.28063810,-5.31987749,47.24681997,2.86817599,0.68146063,2.91801017

>  <Name>
2oe8_lig

>  <RI>
0

>  <Rbt.Current_Directory>
/home/itssahil/PROJECTS/Mol_Feturizer/New_Systems/rnas/2oe8

>  <Rbt.Executable>
rbdock ($Id: //depot/dev/client3/rdock/2013.1/src/exe/rbdock.cxx#4 $)

>  <Rbt.Library>
libRbt.so (2013.1, Build901 2013/11/27)

>  <Rbt.Parameter_File>
/export/apps/rDock/src/rDock_2013.1_src/data/scripts/dock_solv.prm

>  <Rbt.Receptor>
prm/pocket_docking_8.prm

>  <SCORE>
-23.1592

>  <SCORE.INTER>
-16.2121

>  <SCORE.INTER.CONST>
1

>  <SCORE.INTER.POLAR>
-1.9996

>  <SCORE.INTER.ROT>
6

>  <SCORE.INTER.SOLV>
9.10855

>  <SCORE.INTER.VDW>
-14.7789

>  <SCORE.INTER.norm>
-0.438164

>  <SCORE.INTRA>
-6.94713

>  <SCORE.INTRA.DIHEDRAL>
-13.4822

>  <SCORE.INTRA.DIHEDRAL.0>
16.4056

>  <SCORE.INTRA.POLAR>
0

>  <SCORE.INTRA.POLAR.0>
0

>  <SCORE.INTRA.REPUL>
0.00415191

>  <SCORE.INTRA.REPUL.0>
0

>  <SCORE.INTRA.SOLV>
-2.80153

>  <SCORE.INTRA.SOLV.lig_0>
-90.9627

>  <SCORE.INTRA.VDW>
1.17399

>  <SCORE.INTRA.VDW.0>
-3.28744

>  <SCORE.INTRA.norm>
-0.18776

>  <SCORE.RESTR>
0

>  <SCORE.RESTR.CAVITY>
0

>  <SCORE.RESTR.norm>
0

>  <SCORE.SYSTEM>
0

>  <SCORE.SYSTEM.CONST>
0

>  <SCORE.SYSTEM.DIHEDRAL>
0

>  <SCORE.SYSTEM.SOLV>
0

>  <SCORE.SYSTEM.norm>
0

>  <SCORE.heavy>
37

>  <SCORE.norm>
-0.625924

>  <RMSD>
10.708

$$$$
2oe8_lig
 OpenBabel11021811463D
libRbt.so/2013.1/901 2013/11/27
 37 40  0  0  0  0  0  0  0  0999 V2000
   17.8240   -5.0517   44.9500 C   0  0  1  0  0  0  0  0  0  0  0  0
   18.9675   -4.2637   44.2049 C   0  0  1  0  0  0  0  0  0  0  0  0
   20.2503   -4.2941   45.0616 C   0  0  0  0  0  0  0  0  0  0  0  0
   19.8821   -3.6133   46.4169 C   0  0  1  0  0  0  0  0  0  0  0  0
   18.6971   -4.3981   47.1824 C   0  0  1  0  0  0  0  0  0  0  0  0
   18.3105   -3.7143   48.5266 C   0  0  1  0  0  0  0  0  0  0  0  0
   19.6169   -3.6577   49.4194 C   0  0  1  0  0  0  0  0  0  0  0  0
   20.7489   -2.9282   48.6155 C   0  0  2  0  0  0  0  0  0  0  0  0
   18.9556   -1.5017   50.7652 C   0  0  0  0  0  0  0  0  0  0  0  0
   19.2414   -4.8767   42.8664 N   0  0  0  0  0  0  0  0  0  0  0  0
   19.3482   -2.9576   50.7487 N   0  0  0  0  0  0  0  0  0  0  0  0
   18.1693   -6.4292   45.1432 O   0  0  0  0  0  0  0  0  0  0  0  0
   17.5320   -4.4607   46.2890 O   0  0  0  0  0  0  0  0  0  0  0  0
   21.0414   -3.5717   47.3009 O   0  0  0  0  0  0  0  0  0  0  0  0
   17.8115   -2.4141   48.2084 O   0  0  0  0  0  0  0  0  0  0  0  0
   21.9070   -2.9327   49.3676 O   0  0  0  0  0  0  0  0  0  0  0  0
   22.9283   -2.0660   48.8453 C   0  0  2  0  0  0  0  0  0  0  0  0
   24.3124   -2.4656   49.4114 C   0  0  1  0  0  0  0  0  0  0  0  0
   24.4016   -2.2222   50.9492 C   0  0  2  0  0  0  0  0  0  0  0  0
   24.1254   -0.7193   51.2495 C   0  0  1  0  0  0  0  0  0  0  0  0
   22.6662   -0.4034   50.7165 C   0  0  1  0  0  0  0  0  0  0  0  0
   22.2799    1.0561   50.9395 C   0  0  0  0  0  0  0  0  0  0  0  0
   24.2104   -0.4840   52.7191 N   0  0  0  0  0  0  0  0  0  0  0  0
   22.6264   -0.6638   49.2339 O   0  0  0  0  0  0  0  0  0  0  0  0
   24.5300   -3.8481   49.0707 O   0  0  0  0  0  0  0  0  0  0  0  0
   25.7029   -2.5629   51.3794 O   0  0  0  0  0  0  0  0  0  0  0  0
   23.0379    1.8752   50.0888 O   0  0  0  0  0  0  0  0  0  0  0  0
   17.0748   -7.3119   45.0063 C   0  0  1  0  0  0  0  0  0  0  0  0
   16.9735   -7.7323   43.5048 C   0  0  1  0  0  0  0  0  0  0  0  0
   15.7515   -8.6811   43.3337 C   0  0  2  0  0  0  0  0  0  0  0  0
   15.9028   -9.9475   44.2319 C   0  0  1  0  0  0  0  0  0  0  0  0
   16.0171   -9.5324   45.7483 C   0  0  0  0  0  0  0  0  0  0  0  0
   17.2660   -8.5716   45.9192 C   0  0  2  0  0  0  0  0  0  0  0  0
   14.7205  -10.8354   44.0548 N   0  0  0  0  0  0  0  0  0  0  0  0
   17.3681   -8.1899   47.3458 N   0  0  0  0  0  0  0  0  0  0  0  0
   16.7890   -6.5724   42.6718 O   0  0  0  0  0  0  0  0  0  0  0  0
   15.6869   -9.0521   41.9665 O   0  0  0  0  0  0  0  0  0  0  0  0
  1  2  1  0  0  0  0
  1 12  1  1  0  0  0
  1 13  1  0  0  0  0
  2  3  1  0  0  0  0
  2 10  1  6  0  0  0
  4  3  1  6  0  0  0
  4  5  1  0  0  0  0
  4 14  1  0  0  0  0
  5  6  1  0  0  0  0
  5 13  1  6  0  0  0
  6  7  1  0  0  0  0
  6 15  1  6  0  0  0
  7  8  1  0  0  0  0
  7 11  1  1  0  0  0
  8 14  1  0  0  0  0
  8 16  1  1  0  0  0
  9 11  1  0  0  0  0
 17 16  1  1  0  0  0
 17 18  1  0  0  0  0
 17 24  1  0  0  0  0
 18 19  1  0  0  0  0
 18 25  1  1  0  0  0
 19 20  1  0  0  0  0
 19 26  1  6  0  0  0
 20 21  1  0  0  0  0
 20 23  1  1  0  0  0
 21 22  1  6  0  0  0
 21 24  1  0  0  0  0
 22 27  1  0  0  0  0
 28 12  1  6  0  0  0
 28 29  1  0  0  0  0
 28 33  1  0  0  0  0
 29 30  1  0  0  0  0
 29 36  1  6  0  0  0
 30 31  1  0  0  0  0
 30 37  1  6  0  0  0
 31 32  1  0  0  0  0
 31 34  1  1  0  0  0
 32 33  1  0  0  0  0
 33 35  1  1  0  0  0
M  END
>  <CHROM.1>
-143.08221921,-63.97310992,-168.39343141,-160.65624818,69.80869729,89.24608400
19.82921604,-4.28435691,47.40097226,2.18900803,-0.13854591,-2.30460994

>  <Name>
2oe8_lig

>  <RI>
0

>  <Rbt.Current_Directory>
/home/itssahil/PROJECTS/Mol_Feturizer/New_Systems/rnas/2oe8

>  <Rbt.Executable>
rbdock ($Id: //depot/dev/client3/rdock/2013.1/src/exe/rbdock.cxx#4 $)

>  <Rbt.Library>
libRbt.so (2013.1, Build901 2013/11/27)

>  <Rbt.Parameter_File>
/export/apps/rDock/src/rDock_2013.1_src/data/scripts/dock_solv.prm

>  <Rbt.Receptor>
prm/blind_docking_80.prm

>  <SCORE>
-10.7332

>  <SCORE.INTER>
-8.55901

>  <SCORE.INTER.CONST>
1

>  <SCORE.INTER.POLAR>
-0.0414033

>  <SCORE.INTER.ROT>
6

>  <SCORE.INTER.SOLV>
12.9834

>  <SCORE.INTER.VDW>
-17.4958

>  <SCORE.INTER.norm>
-0.231325

>  <SCORE.INTRA>
-2.1742

>  <SCORE.INTRA.DIHEDRAL>
-5.35912

>  <SCORE.INTRA.DIHEDRAL.0>
16.4056

>  <SCORE.INTRA.POLAR>
0

>  <SCORE.INTRA.POLAR.0>
0

>  <SCORE.INTRA.REPUL>
0

>  <SCORE.INTRA.REPUL.0>
0

>  <SCORE.INTRA.SOLV>
-0.486227

>  <SCORE.INTRA.SOLV.lig_0>
-90.9627

>  <SCORE.INTRA.VDW>
0.748474

>  <SCORE.INTRA.VDW.0>
-3.28744

>  <SCORE.INTRA.norm>
-0.0587621

>  <SCORE.RESTR>
0

>  <SCORE.RESTR.CAVITY>
0

>  <SCORE.RESTR.norm>
0

>  <SCORE.SYSTEM>
0

>  <SCORE.SYSTEM.CONST>
0

>  <SCORE.SYSTEM.DIHEDRAL>
0

>  <SCORE.SYSTEM.SOLV>
0

>  <SCORE.SYSTEM.norm>
0

>  <SCORE.heavy>
37

>  <SCORE.norm>
-0.290087

>  <RMSD>
10.749

$$$$
2oe8_lig
 OpenBabel11021811463D
libRbt.so/2013.1/901 2013/11/27
 37 40  0  0  0  0  0  0  0  0999 V2000
   17.6227   -5.4396   45.4227 C   0  0  1  0  0  0  0  0  0  0  0  0
   16.5202   -5.5169   46.5460 C   0  0  1  0  0  0  0  0  0  0  0  0
   16.4181   -4.1510   47.2563 C   0  0  0  0  0  0  0  0  0  0  0  0
   17.8286   -3.8724   47.8636 C   0  0  1  0  0  0  0  0  0  0  0  0
   18.9724   -3.8109   46.7260 C   0  0  1  0  0  0  0  0  0  0  0  0
   20.3858   -3.5523   47.3256 C   0  0  1  0  0  0  0  0  0  0  0  0
   20.3153   -2.1889   48.1275 C   0  0  1  0  0  0  0  0  0  0  0  0
   19.1621   -2.2828   49.1863 C   0  0  2  0  0  0  0  0  0  0  0  0
   22.8562   -1.5498   47.9492 C   0  0  0  0  0  0  0  0  0  0  0  0
   15.1925   -5.8772   45.9547 N   0  0  0  0  0  0  0  0  0  0  0  0
   21.6502   -1.8708   48.7956 N   0  0  0  0  0  0  0  0  0  0  0  0
   17.2922   -4.4681   44.4223 O   0  0  0  0  0  0  0  0  0  0  0  0
   18.9573   -5.0806   45.9864 O   0  0  0  0  0  0  0  0  0  0  0  0
   17.8358   -2.6025   48.5808 O   0  0  0  0  0  0  0  0  0  0  0  0
   20.6949   -4.6642   48.1676 O   0  0  0  0  0  0  0  0  0  0  0  0
   19.0580   -1.0732   49.8443 O   0  0  0  0  0  0  0  0  0  0  0  0
   18.5003   -1.1893   51.1643 C   0  0  2  0  0  0  0  0  0  0  0  0
   18.5237    0.1832   51.8795 C   0  0  1  0  0  0  0  0  0  0  0  0
   19.9800    0.6668   52.1577 C   0  0  2  0  0  0  0  0  0  0  0  0
   20.7165   -0.3924   53.0298 C   0  0  1  0  0  0  0  0  0  0  0  0
   20.7243   -1.7452   52.2034 C   0  0  1  0  0  0  0  0  0  0  0  0
   21.4101   -2.8761   52.9647 C   0  0  0  0  0  0  0  0  0  0  0  0
   22.1091    0.0678   53.2974 N   0  0  0  0  0  0  0  0  0  0  0  0
   19.3004   -2.1646   51.9498 O   0  0  0  0  0  0  0  0  0  0  0  0
   17.7972    1.1095   51.0495 O   0  0  0  0  0  0  0  0  0  0  0  0
   19.9166    1.8951   52.8518 O   0  0  0  0  0  0  0  0  0  0  0  0
   22.7764   -2.5866   53.1005 O   0  0  0  0  0  0  0  0  0  0  0  0
   16.1356   -4.7919   43.6786 C   0  0  1  0  0  0  0  0  0  0  0  0
   15.7937   -3.5772   42.7569 C   0  0  1  0  0  0  0  0  0  0  0  0
   14.5019   -3.9082   41.9540 C   0  0  2  0  0  0  0  0  0  0  0  0
   14.6996   -5.1924   41.0907 C   0  0  1  0  0  0  0  0  0  0  0  0
   15.0560   -6.4212   42.0114 C   0  0  0  0  0  0  0  0  0  0  0  0
   16.3751   -6.0827   42.8224 C   0  0  2  0  0  0  0  0  0  0  0  0
   13.4500   -5.4907   40.3375 N   0  0  0  0  0  0  0  0  0  0  0  0
   16.7045   -7.2427   43.6809 N   0  0  0  0  0  0  0  0  0  0  0  0
   15.5659   -2.3966   43.5491 O   0  0  0  0  0  0  0  0  0  0  0  0
   14.2188   -2.7948   41.1226 O   0  0  0  0  0  0  0  0  0  0  0  0
  1  2  1  0  0  0  0
  1 12  1  6  0  0  0
  1 13  1  0  0  0  0
  2  3  1  0  0  0  0
  2 10  1  6  0  0  0
  4  3  1  6  0  0  0
  4  5  1  0  0  0  0
  4 14  1  0  0  0  0
  5  6  1  0  0  0  0
  5 13  1  1  0  0  0
  6  7  1  0  0  0  0
  6 15  1  1  0  0  0
  7  8  1  0  0  0  0
  7 11  1  1  0  0  0
  8 14  1  0  0  0  0
  8 16  1  6  0  0  0
  9 11  1  0  0  0  0
 17 16  1  6  0  0  0
 17 18  1  0  0  0  0
 17 24  1  0  0  0  0
 18 19  1  0  0  0  0
 18 25  1  6  0  0  0
 19 20  1  0  0  0  0
 19 26  1  1  0  0  0
 20 21  1  0  0  0  0
 20 23  1  6  0  0  0
 21 22  1  1  0  0  0
 21 24  1  0  0  0  0
 22 27  1  0  0  0  0
 28 12  1  6  0  0  0
 28 29  1  0  0  0  0
 28 33  1  0  0  0  0
 29 30  1  0  0  0  0
 29 36  1  1  0  0  0
 30 31  1  0  0  0  0
 30 37  1  6  0  0  0
 31 32  1  0  0  0  0
 31 34  1  1  0  0  0
 32 33  1  0  0  0  0
 33 35  1  1  0  0  0
M  END
>  <CHROM.1>
-65.20939783,66.90112323,-154.10845655,175.33504564,-66.65780428,173.10862902
18.26946175,-3.01465543,47.51996452,-2.19495107,-0.67515924,0.72475866

>  <Name>
2oe8_lig

>  <RI>
0

>  <Rbt.Current_Directory>
/home/itssahil/PROJECTS/Mol_Feturizer/New_Systems/rnas/2oe8

>  <Rbt.Executable>
rbdock ($Id: //depot/dev/client3/rdock/2013.1/src/exe/rbdock.cxx#4 $)

>  <Rbt.Library>
libRbt.so (2013.1, Build901 2013/11/27)

>  <Rbt.Parameter_File>
/export/apps/rDock/src/rDock_2013.1_src/data/scripts/dock_solv.prm

>  <Rbt.Receptor>
prm/blind_docking_80.prm

>  <SCORE>
-26.0442

>  <SCORE.INTER>
-23.5793

>  <SCORE.INTER.CONST>
1

>  <SCORE.INTER.POLAR>
-3.28521

>  <SCORE.INTER.ROT>
6

>  <SCORE.INTER.SOLV>
9.87622

>  <SCORE.INTER.VDW>
-15.6609

>  <SCORE.INTER.norm>
-0.637277

>  <SCORE.INTRA>
-2.46498

>  <SCORE.INTRA.DIHEDRAL>
-12.861

>  <SCORE.INTRA.DIHEDRAL.0>
16.4056

>  <SCORE.INTRA.POLAR>
0

>  <SCORE.INTRA.POLAR.0>
0

>  <SCORE.INTRA.REPUL>
0

>  <SCORE.INTRA.REPUL.0>
0

>  <SCORE.INTRA.SOLV>
3.77128

>  <SCORE.INTRA.SOLV.lig_0>
-90.9627

>  <SCORE.INTRA.VDW>
2.07987

>  <SCORE.INTRA.VDW.0>
-3.28744

>  <SCORE.INTRA.norm>
-0.0666212

>  <SCORE.RESTR>
0

>  <SCORE.RESTR.CAVITY>
0

>  <SCORE.RESTR.norm>
0

>  <SCORE.SYSTEM>
0

>  <SCORE.SYSTEM.CONST>
0

>  <SCORE.SYSTEM.DIHEDRAL>
0

>  <SCORE.SYSTEM.SOLV>
0

>  <SCORE.SYSTEM.norm>
0

>  <SCORE.heavy>
37

>  <SCORE.norm>
-0.703898

>  <RMSD>
10.764

$$$$
2oe8_lig
 OpenBabel11021811463D
libRbt.so/2013.1/901 2013/11/27
 37 40  0  0  0  0  0  0  0  0999 V2000
   18.6449   -4.7299   44.6534 C   0  0  1  0  0  0  0  0  0  0  0  0
   17.6065   -4.6186   45.8335 C   0  0  1  0  0  0  0  0  0  0  0  0
   17.7625   -3.2473   46.5233 C   0  0  0  0  0  0  0  0  0  0  0  0
   19.2301   -3.1930   47.0517 C   0  0  1  0  0  0  0  0  0  0  0  0
   20.3059   -3.3267   45.8555 C   0  0  1  0  0  0  0  0  0  0  0  0
   21.7727   -3.2927   46.3763 C   0  0  1  0  0  0  0  0  0  0  0  0
   21.9644   -1.9281   47.1561 C   0  0  1  0  0  0  0  0  0  0  0  0
   20.8699   -1.8256   48.2747 C   0  0  2  0  0  0  0  0  0  0  0  0
   23.7060   -2.5662   49.0153 C   0  0  0  0  0  0  0  0  0  0  0  0
   16.2083   -4.7666   45.3183 N   0  0  0  0  0  0  0  0  0  0  0  0
   23.3671   -1.8220   47.7483 N   0  0  0  0  0  0  0  0  0  0  0  0
   18.4204   -3.7275   43.6541 O   0  0  0  0  0  0  0  0  0  0  0  0
   20.0482   -4.5845   45.1407 O   0  0  0  0  0  0  0  0  0  0  0  0
   19.4788   -1.9339   47.7446 O   0  0  0  0  0  0  0  0  0  0  0  0
   21.9452   -4.4317   47.2212 O   0  0  0  0  0  0  0  0  0  0  0  0
   20.9961   -0.6087   48.9153 O   0  0  0  0  0  0  0  0  0  0  0  0
   20.0192   -0.4063   49.9505 C   0  0  2  0  0  0  0  0  0  0  0  0
   20.6602    0.3174   51.1592 C   0  0  1  0  0  0  0  0  0  0  0  0
   21.7342   -0.5684   51.8620 C   0  0  2  0  0  0  0  0  0  0  0  0
   21.0757   -1.8981   52.3348 C   0  0  1  0  0  0  0  0  0  0  0  0
   20.5144   -2.6204   51.0400 C   0  0  1  0  0  0  0  0  0  0  0  0
   19.8247   -3.9397   51.3754 C   0  0  0  0  0  0  0  0  0  0  0  0
   22.1006   -2.7467   53.0073 N   0  0  0  0  0  0  0  0  0  0  0  0
   19.4928   -1.7242   50.3914 O   0  0  0  0  0  0  0  0  0  0  0  0
   21.2160    1.5534   50.6712 O   0  0  0  0  0  0  0  0  0  0  0  0
   22.2346    0.1387   52.9773 O   0  0  0  0  0  0  0  0  0  0  0  0
   18.5872   -3.6787   51.9832 O   0  0  0  0  0  0  0  0  0  0  0  0
   17.5342   -4.1350   42.6322 C   0  0  1  0  0  0  0  0  0  0  0  0
   16.8928   -2.8554   42.0053 C   0  0  1  0  0  0  0  0  0  0  0  0
   15.8894   -3.2915   40.8981 C   0  0  2  0  0  0  0  0  0  0  0  0
   16.6110   -4.1218   39.7919 C   0  0  1  0  0  0  0  0  0  0  0  0
   17.2709   -5.4095   40.4172 C   0  0  0  0  0  0  0  0  0  0  0  0
   18.2962   -4.9609   41.5395 C   0  0  2  0  0  0  0  0  0  0  0  0
   15.6303   -4.5312   38.7487 N   0  0  0  0  0  0  0  0  0  0  0  0
   18.9138   -6.1753   42.1184 N   0  0  0  0  0  0  0  0  0  0  0  0
   16.1867   -2.1055   43.0114 O   0  0  0  0  0  0  0  0  0  0  0  0
   15.3283   -2.1137   40.3423 O   0  0  0  0  0  0  0  0  0  0  0  0
  1  2  1  0  0  0  0
  1 12  1  6  0  0  0
  1 13  1  0  0  0  0
  2  3  1  0  0  0  0
  2 10  1  6  0  0  0
  4  3  1  6  0  0  0
  4  5  1  0  0  0  0
  4 14  1  0  0  0  0
  5  6  1  0  0  0  0
  5 13  1  1  0  0  0
  6  7  1  0  0  0  0
  6 15  1  1  0  0  0
  7  8  1  0  0  0  0
  7 11  1  1  0  0  0
  8 14  1  0  0  0  0
  8 16  1  6  0  0  0
  9 11  1  0  0  0  0
 17 16  1  6  0  0  0
 17 18  1  0  0  0  0
 17 24  1  0  0  0  0
 18 19  1  0  0  0  0
 18 25  1  6  0  0  0
 19 20  1  0  0  0  0
 19 26  1  1  0  0  0
 20 21  1  0  0  0  0
 20 23  1  6  0  0  0
 21 22  1  1  0  0  0
 21 24  1  0  0  0  0
 22 27  1  0  0  0  0
 28 12  1  1  0  0  0
 28 29  1  0  0  0  0
 28 33  1  0  0  0  0
 29 30  1  0  0  0  0
 29 36  1  1  0  0  0
 30 31  1  0  0  0  0
 30 37  1  6  0  0  0
 31 32  1  0  0  0  0
 31 34  1  6  0  0  0
 32 33  1  0  0  0  0
 33 35  1  1  0  0  0
M  END
>  <CHROM.1>
-90.03647216,-78.23295347,179.06878171,141.57965654,73.32212127,155.46397062
19.42511124,-2.83193621,46.66214726,-2.04900866,-0.51410585,1.04915710

>  <Name>
2oe8_lig

>  <RI>
0

>  <Rbt.Current_Directory>
/home/itssahil/PROJECTS/Mol_Feturizer/New_Systems/rnas/2oe8

>  <Rbt.Executable>
rbdock ($Id: //depot/dev/client3/rdock/2013.1/src/exe/rbdock.cxx#4 $)

>  <Rbt.Library>
libRbt.so (2013.1, Build901 2013/11/27)

>  <Rbt.Parameter_File>
/export/apps/rDock/src/rDock_2013.1_src/data/scripts/dock_solv.prm

>  <Rbt.Receptor>
prm/blind_docking_100.prm

>  <SCORE>
-16.4866

>  <SCORE.INTER>
-17.6378

>  <SCORE.INTER.CONST>
1

>  <SCORE.INTER.POLAR>
-1.64713

>  <SCORE.INTER.ROT>
6

>  <SCORE.INTER.SOLV>
17.6336

>  <SCORE.INTER.VDW>
-19.7459

>  <SCORE.INTER.norm>
-0.476697

>  <SCORE.INTRA>
1.15117

>  <SCORE.INTRA.DIHEDRAL>
-4.16626

>  <SCORE.INTRA.DIHEDRAL.0>
16.4056

>  <SCORE.INTRA.POLAR>
0

>  <SCORE.INTRA.POLAR.0>
0

>  <SCORE.INTRA.REPUL>
0

>  <SCORE.INTRA.REPUL.0>
0

>  <SCORE.INTRA.SOLV>
0.847305

>  <SCORE.INTRA.SOLV.lig_0>
-90.9627

>  <SCORE.INTRA.VDW>
2.81065

>  <SCORE.INTRA.VDW.0>
-3.28744

>  <SCORE.INTRA.norm>
0.0311128

>  <SCORE.RESTR>
0

>  <SCORE.RESTR.CAVITY>
0

>  <SCORE.RESTR.norm>
0

>  <SCORE.SYSTEM>
0

>  <SCORE.SYSTEM.CONST>
0

>  <SCORE.SYSTEM.DIHEDRAL>
0

>  <SCORE.SYSTEM.SOLV>
0

>  <SCORE.SYSTEM.norm>
0

>  <SCORE.heavy>
37

>  <SCORE.norm>
-0.445584

>  <RMSD>
10.767

$$$$
2oe8_lig
 OpenBabel11021811463D
libRbt.so/2013.1/901 2013/11/27
 37 40  0  0  0  0  0  0  0  0999 V2000
   16.8761   -4.1066   44.5228 C   0  0  1  0  0  0  0  0  0  0  0  0
   17.7221   -2.7773   44.5028 C   0  0  1  0  0  0  0  0  0  0  0  0
   19.1074   -3.0443   45.1276 C   0  0  0  0  0  0  0  0  0  0  0  0
   18.8384   -3.5239   46.5882 C   0  0  1  0  0  0  0  0  0  0  0  0
   17.9546   -4.8743   46.6253 C   0  0  1  0  0  0  0  0  0  0  0  0
   17.6654   -5.3490   48.0796 C   0  0  1  0  0  0  0  0  0  0  0  0
   19.0631   -5.5711   48.7895 C   0  0  1  0  0  0  0  0  0  0  0  0
   19.8996   -4.2484   48.6866 C   0  0  2  0  0  0  0  0  0  0  0  0
   20.0323   -6.6240   50.9915 C   0  0  0  0  0  0  0  0  0  0  0  0
   17.8898   -2.2827   43.0994 N   0  0  0  0  0  0  0  0  0  0  0  0
   18.8830   -5.9957   50.2444 N   0  0  0  0  0  0  0  0  0  0  0  0
   17.4958   -5.1406   43.7477 O   0  0  0  0  0  0  0  0  0  0  0  0
   16.6949   -4.6219   45.9118 O   0  0  0  0  0  0  0  0  0  0  0  0
   20.0948   -3.7868   47.2807 O   0  0  0  0  0  0  0  0  0  0  0  0
   16.8911   -4.3268   48.7091 O   0  0  0  0  0  0  0  0  0  0  0  0
   21.1427   -4.4590   49.2502 O   0  0  0  0  0  0  0  0  0  0  0  0
   21.9414   -3.2662   49.3293 C   0  0  2  0  0  0  0  0  0  0  0  0
   23.3647   -3.6059   49.8335 C   0  0  1  0  0  0  0  0  0  0  0  0
   23.3512   -4.1148   51.3076 C   0  0  2  0  0  0  0  0  0  0  0  0
   22.7160   -3.0262   52.2223 C   0  0  1  0  0  0  0  0  0  0  0  0
   21.2387   -2.7888   51.6985 C   0  0  1  0  0  0  0  0  0  0  0  0
   20.5091   -1.7221   52.5102 C   0  0  0  0  0  0  0  0  0  0  0  0
   22.7021   -3.5103   53.6323 N   0  0  0  0  0  0  0  0  0  0  0  0
   21.3028   -2.3111   50.2719 O   0  0  0  0  0  0  0  0  0  0  0  0
   23.9155   -4.5838   48.9306 O   0  0  0  0  0  0  0  0  0  0  0  0
   24.6839   -4.3556   51.7081 O   0  0  0  0  0  0  0  0  0  0  0  0
   21.1671   -0.4915   52.3628 O   0  0  0  0  0  0  0  0  0  0  0  0
   16.5931   -6.1302   43.2987 C   0  0  1  0  0  0  0  0  0  0  0  0
   15.9590   -6.8151   44.5519 C   0  0  1  0  0  0  0  0  0  0  0  0
   14.9848   -7.9301   44.0717 C   0  0  2  0  0  0  0  0  0  0  0  0
   13.8631   -7.3339   43.1662 C   0  0  1  0  0  0  0  0  0  0  0  0
   14.4942   -6.6308   41.9045 C   0  0  0  0  0  0  0  0  0  0  0  0
   15.4804   -5.4922   42.3976 C   0  0  2  0  0  0  0  0  0  0  0  0
   12.9486   -8.4195   42.7159 N   0  0  0  0  0  0  0  0  0  0  0  0
   16.0654   -4.8350   41.2072 N   0  0  0  0  0  0  0  0  0  0  0  0
   16.9845   -7.4070   45.3711 O   0  0  0  0  0  0  0  0  0  0  0  0
   14.4193   -8.5293   45.2258 O   0  0  0  0  0  0  0  0  0  0  0  0
  1  2  1  0  0  0  0
  1 12  1  6  0  0  0
  1 13  1  0  0  0  0
  2  3  1  0  0  0  0
  2 10  1  6  0  0  0
  4  3  1  6  0  0  0
  4  5  1  0  0  0  0
  4 14  1  0  0  0  0
  5  6  1  0  0  0  0
  5 13  1  1  0  0  0
  6  7  1  0  0  0  0
  6 15  1  1  0  0  0
  7  8  1  0  0  0  0
  7 11  1  1  0  0  0
  8 14  1  0  0  0  0
  8 16  1  6  0  0  0
  9 11  1  0  0  0  0
 17 16  1  1  0  0  0
 17 18  1  0  0  0  0
 17 24  1  0  0  0  0
 18 19  1  0  0  0  0
 18 25  1  6  0  0  0
 19 20  1  0  0  0  0
 19 26  1  1  0  0  0
 20 21  1  0  0  0  0
 20 23  1  1  0  0  0
 21 22  1  1  0  0  0
 21 24  1  0  0  0  0
 22 27  1  0  0  0  0
 28 12  1  1  0  0  0
 28 29  1  0  0  0  0
 28 33  1  0  0  0  0
 29 30  1  0  0  0  0
 29 36  1  1  0  0  0
 30 31  1  0  0  0  0
 30 37  1  1  0  0  0
 31 32  1  0  0  0  0
 31 34  1  6  0  0  0
 32 33  1  0  0  0  0
 33 35  1  6  0  0  0
M  END
>  <CHROM.1>
-156.68779398,163.02287203,-174.03719843,-174.19604821,63.10257707,-61.31629815
18.81890176,-4.69879267,47.34165415,-2.69818228,0.80243725,2.19499375

>  <Name>
2oe8_lig

>  <RI>
0

>  <Rbt.Current_Directory>
/home/itssahil/PROJECTS/Mol_Feturizer/New_Systems/rnas/2oe8

>  <Rbt.Executable>
rbdock ($Id: //depot/dev/client3/rdock/2013.1/src/exe/rbdock.cxx#4 $)

>  <Rbt.Library>
libRbt.so (2013.1, Build901 2013/11/27)

>  <Rbt.Parameter_File>
/export/apps/rDock/src/rDock_2013.1_src/data/scripts/dock_solv.prm

>  <Rbt.Receptor>
prm/blind_docking_100.prm

>  <SCORE>
-16.0877

>  <SCORE.INTER>
-10.971

>  <SCORE.INTER.CONST>
1

>  <SCORE.INTER.POLAR>
-1.48051

>  <SCORE.INTER.ROT>
6

>  <SCORE.INTER.SOLV>
15.5834

>  <SCORE.INTER.VDW>
-15.1735

>  <SCORE.INTER.norm>
-0.296515

>  <SCORE.INTRA>
-5.12386

>  <SCORE.INTRA.DIHEDRAL>
-13.3848

>  <SCORE.INTRA.DIHEDRAL.0>
16.4056

>  <SCORE.INTRA.POLAR>
0

>  <SCORE.INTRA.POLAR.0>
0

>  <SCORE.INTRA.REPUL>
0

>  <SCORE.INTRA.REPUL.0>
0

>  <SCORE.INTRA.SOLV>
-0.478301

>  <SCORE.INTRA.SOLV.lig_0>
-90.9627

>  <SCORE.INTRA.VDW>
1.80772

>  <SCORE.INTRA.VDW.0>
-3.28744

>  <SCORE.INTRA.norm>
-0.138483

>  <SCORE.RESTR>
0.00721707

>  <SCORE.RESTR.CAVITY>
0.00721707

>  <SCORE.RESTR.norm>
0.000195056

>  <SCORE.SYSTEM>
0

>  <SCORE.SYSTEM.CONST>
0

>  <SCORE.SYSTEM.DIHEDRAL>
0

>  <SCORE.SYSTEM.SOLV>
0

>  <SCORE.SYSTEM.norm>
0

>  <SCORE.heavy>
37

>  <SCORE.norm>
-0.434802

>  <RMSD>
10.787

$$$$
2oe8_lig
 OpenBabel11021811463D
libRbt.so/2013.1/901 2013/11/27
 37 40  0  0  0  0  0  0  0  0999 V2000
   17.1404   -5.1861   45.2891 C   0  0  1  0  0  0  0  0  0  0  0  0
   16.2758   -5.4100   46.5874 C   0  0  1  0  0  0  0  0  0  0  0  0
   16.2878   -4.1223   47.4372 C   0  0  0  0  0  0  0  0  0  0  0  0
   17.7835   -3.8512   47.7912 C   0  0  1  0  0  0  0  0  0  0  0  0
   18.6862   -3.6402   46.4697 C   0  0  1  0  0  0  0  0  0  0  0  0
   20.1836   -3.3881   46.8135 C   0  0  1  0  0  0  0  0  0  0  0  0
   20.2443   -2.1105   47.7467 C   0  0  1  0  0  0  0  0  0  0  0  0
   19.3177   -2.3466   48.9900 C   0  0  2  0  0  0  0  0  0  0  0  0
   22.7346   -1.5418   47.1374 C   0  0  0  0  0  0  0  0  0  0  0  0
   14.8658   -5.7608   46.2251 N   0  0  0  0  0  0  0  0  0  0  0  0
   21.6767   -1.8085   48.1783 N   0  0  0  0  0  0  0  0  0  0  0  0
   16.6068   -4.1367   44.4718 O   0  0  0  0  0  0  0  0  0  0  0  0
   18.5518   -4.8336   45.6228 O   0  0  0  0  0  0  0  0  0  0  0  0
   17.9057   -2.6557   48.6177 O   0  0  0  0  0  0  0  0  0  0  0  0
   20.6684   -4.5628   47.4661 O   0  0  0  0  0  0  0  0  0  0  0  0
   19.3204   -1.2095   49.7735 O   0  0  0  0  0  0  0  0  0  0  0  0
   18.8035   -1.4289   51.0970 C   0  0  2  0  0  0  0  0  0  0  0  0
   18.6859   -0.0856   51.8568 C   0  0  1  0  0  0  0  0  0  0  0  0
   20.0836    0.5502   52.1295 C   0  0  2  0  0  0  0  0  0  0  0  0
   20.9501   -0.4460   52.9552 C   0  0  1  0  0  0  0  0  0  0  0  0
   21.0944   -1.7629   52.0844 C   0  0  1  0  0  0  0  0  0  0  0  0
   21.9166   -2.8325   52.7978 C   0  0  0  0  0  0  0  0  0  0  0  0
   22.2869    0.1596   53.2174 N   0  0  0  0  0  0  0  0  0  0  0  0
   19.7222   -2.3319   51.8380 O   0  0  0  0  0  0  0  0  0  0  0  0
   17.8450    0.7785   51.0686 O   0  0  0  0  0  0  0  0  0  0  0  0
   19.8956    1.7412   52.8647 O   0  0  0  0  0  0  0  0  0  0  0  0
   22.1009   -3.9286   51.9413 O   0  0  0  0  0  0  0  0  0  0  0  0
   16.7545   -4.3675   43.0859 C   0  0  1  0  0  0  0  0  0  0  0  0
   15.5629   -3.6769   42.3477 C   0  0  1  0  0  0  0  0  0  0  0  0
   15.6960   -3.9501   40.8211 C   0  0  2  0  0  0  0  0  0  0  0  0
   17.0503   -3.4007   40.2756 C   0  0  1  0  0  0  0  0  0  0  0  0
   18.2587   -4.0838   41.0226 C   0  0  0  0  0  0  0  0  0  0  0  0
   18.1228   -3.7980   42.5757 C   0  0  2  0  0  0  0  0  0  0  0  0
   17.1561   -3.6788   38.8165 N   0  0  0  0  0  0  0  0  0  0  0  0
   19.2628   -4.4394   43.2687 N   0  0  0  0  0  0  0  0  0  0  0  0
   14.3092   -4.2102   42.8137 O   0  0  0  0  0  0  0  0  0  0  0  0
   14.6086   -3.3081   40.1759 O   0  0  0  0  0  0  0  0  0  0  0  0
  1  2  1  0  0  0  0
  1 12  1  1  0  0  0
  1 13  1  0  0  0  0
  2  3  1  0  0  0  0
  2 10  1  6  0  0  0
  4  3  1  6  0  0  0
  4  5  1  0  0  0  0
  4 14  1  0  0  0  0
  5  6  1  0  0  0  0
  5 13  1  6  0  0  0
  6  7  1  0  0  0  0
  6 15  1  1  0  0  0
  7  8  1  0  0  0  0
  7 11  1  1  0  0  0
  8 14  1  0  0  0  0
  8 16  1  1  0  0  0
  9 11  1  0  0  0  0
 17 16  1  6  0  0  0
 17 18  1  0  0  0  0
 17 24  1  0  0  0  0
 18 19  1  0  0  0  0
 18 25  1  6  0  0  0
 19 20  1  0  0  0  0
 19 26  1  1  0  0  0
 20 21  1  0  0  0  0
 20 23  1  6  0  0  0
 21 22  1  1  0  0  0
 21 24  1  0  0  0  0
 22 27  1  0  0  0  0
 28 12  1  1  0  0  0
 28 29  1  0  0  0  0
 28 33  1  0  0  0  0
 29 30  1  0  0  0  0
 29 36  1  1  0  0  0
 30 31  1  0  0  0  0
 30 37  1  6  0  0  0
 31 32  1  0  0  0  0
 31 34  1  6  0  0  0
 32 33  1  0  0  0  0
 33 35  1  1  0  0  0
M  END
>  <CHROM.1>
-144.64025878,58.87258501,-164.40179945,-173.49018025,-175.31919596,149.75828953
18.60935413,-2.82728942,47.16188528,1.94924887,0.01158399,-1.88634783

>  <Name>
2oe8_lig

>  <RI>
0

>  <Rbt.Current_Directory>
/home/itssahil/PROJECTS/Mol_Feturizer/New_Systems/rnas/2oe8

>  <Rbt.Executable>
rbdock ($Id: //depot/dev/client3/rdock/2013.1/src/exe/rbdock.cxx#4 $)

>  <Rbt.Library>
libRbt.so (2013.1, Build901 2013/11/27)

>  <Rbt.Parameter_File>
/export/apps/rDock/src/rDock_2013.1_src/data/scripts/dock_solv.prm

>  <Rbt.Receptor>
prm/blind_docking_100.prm

>  <SCORE>
-24.1112

>  <SCORE.INTER>
-21.3899

>  <SCORE.INTER.CONST>
1

>  <SCORE.INTER.POLAR>
-2.45605

>  <SCORE.INTER.ROT>
6

>  <SCORE.INTER.SOLV>
15.5064

>  <SCORE.INTER.VDW>
-18.8419

>  <SCORE.INTER.norm>
-0.578106

>  <SCORE.INTRA>
-2.8101

>  <SCORE.INTRA.DIHEDRAL>
-6.72178

>  <SCORE.INTRA.DIHEDRAL.0>
16.4056

>  <SCORE.INTRA.POLAR>
0

>  <SCORE.INTRA.POLAR.0>
0

>  <SCORE.INTRA.REPUL>
0

>  <SCORE.INTRA.REPUL.0>
0

>  <SCORE.INTRA.SOLV>
-0.118811

>  <SCORE.INTRA.SOLV.lig_0>
-90.9627

>  <SCORE.INTRA.VDW>
0.610195

>  <SCORE.INTRA.VDW.0>
-3.28744

>  <SCORE.INTRA.norm>
-0.0759486

>  <SCORE.RESTR>
0.0887688

>  <SCORE.RESTR.CAVITY>
0.0887688

>  <SCORE.RESTR.norm>
0.00239916

>  <SCORE.SYSTEM>
0

>  <SCORE.SYSTEM.CONST>
0

>  <SCORE.SYSTEM.DIHEDRAL>
0

>  <SCORE.SYSTEM.SOLV>
0

>  <SCORE.SYSTEM.norm>
0

>  <SCORE.heavy>
37

>  <SCORE.norm>
-0.651655

>  <RMSD>
10.804

$$$$
2oe8_lig
 OpenBabel11021811463D
libRbt.so/2013.1/901 2013/11/27
 37 40  0  0  0  0  0  0  0  0999 V2000
   18.0226   -5.1980   45.7762 C   0  0  1  0  0  0  0  0  0  0  0  0
   16.9681   -5.3551   46.9367 C   0  0  1  0  0  0  0  0  0  0  0  0
   16.8009   -4.0031   47.6611 C   0  0  0  0  0  0  0  0  0  0  0  0
   18.2104   -3.6346   48.2210 C   0  0  1  0  0  0  0  0  0  0  0  0
   19.3066   -3.4906   47.0448 C   0  0  1  0  0  0  0  0  0  0  0  0
   20.7200   -3.1419   47.5966 C   0  0  1  0  0  0  0  0  0  0  0  0
   20.5876   -1.7908   48.4116 C   0  0  1  0  0  0  0  0  0  0  0  0
   19.4814   -1.9674   49.5092 C   0  0  2  0  0  0  0  0  0  0  0  0
   22.0372   -0.0853   49.7851 C   0  0  0  0  0  0  0  0  0  0  0  0
   15.6472   -5.7995   46.3893 N   0  0  0  0  0  0  0  0  0  0  0  0
   21.9213   -1.3883   49.0351 N   0  0  0  0  0  0  0  0  0  0  0  0
   17.5932   -4.2449   44.7959 O   0  0  0  0  0  0  0  0  0  0  0  0
   19.3496   -4.7542   46.2958 O   0  0  0  0  0  0  0  0  0  0  0  0
   18.1586   -2.3713   48.9479 O   0  0  0  0  0  0  0  0  0  0  0  0
   21.1318   -4.2355   48.4183 O   0  0  0  0  0  0  0  0  0  0  0  0
   19.3206   -0.7712   50.1802 O   0  0  0  0  0  0  0  0  0  0  0  0
   18.7485   -0.9257   51.4901 C   0  0  2  0  0  0  0  0  0  0  0  0
   18.5276    0.4588   52.1460 C   0  0  1  0  0  0  0  0  0  0  0  0
   19.8772    1.1834   52.4383 C   0  0  2  0  0  0  0  0  0  0  0  0
   20.7480    0.2926   53.3728 C   0  0  1  0  0  0  0  0  0  0  0  0
   20.9999   -1.0717   52.6057 C   0  0  1  0  0  0  0  0  0  0  0  0
   21.8357   -2.0457   53.4314 C   0  0  0  0  0  0  0  0  0  0  0  0
   22.0389    0.9834   53.6540 N   0  0  0  0  0  0  0  0  0  0  0  0
   19.6711   -1.7267   52.3360 O   0  0  0  0  0  0  0  0  0  0  0  0
   17.6868    1.2218   51.2595 O   0  0  0  0  0  0  0  0  0  0  0  0
   19.5946    2.4108   53.0772 O   0  0  0  0  0  0  0  0  0  0  0  0
   22.4556   -2.9702   52.5769 O   0  0  0  0  0  0  0  0  0  0  0  0
   17.7054   -4.7100   43.4666 C   0  0  1  0  0  0  0  0  0  0  0  0
   16.4728   -5.6216   43.1643 C   0  0  1  0  0  0  0  0  0  0  0  0
   16.5999   -6.1669   41.7120 C   0  0  2  0  0  0  0  0  0  0  0  0
   16.6607   -4.9956   40.6834 C   0  0  1  0  0  0  0  0  0  0  0  0
   17.8952   -4.0639   40.9874 C   0  0  0  0  0  0  0  0  0  0  0  0
   17.7588   -3.5058   42.4647 C   0  0  2  0  0  0  0  0  0  0  0  0
   16.7875   -5.5422   39.3039 N   0  0  0  0  0  0  0  0  0  0  0  0
   18.9195   -2.6294   42.7404 N   0  0  0  0  0  0  0  0  0  0  0  0
   16.4339   -6.7307   44.0817 O   0  0  0  0  0  0  0  0  0  0  0  0
   15.4678   -6.9835   41.4618 O   0  0  0  0  0  0  0  0  0  0  0  0
  1  2  1  0  0  0  0
  1 12  1  6  0  0  0
  1 13  1  0  0  0  0
  2  3  1  0  0  0  0
  2 10  1  6  0  0  0
  4  3  1  6  0  0  0
  4  5  1  0  0  0  0
  4 14  1  0  0  0  0
  5  6  1  0  0  0  0
  5 13  1  1  0  0  0
  6  7  1  0  0  0  0
  6 15  1  1  0  0  0
  7  8  1  0  0  0  0
  7 11  1  1  0  0  0
  8 14  1  0  0  0  0
  8 16  1  6  0  0  0
  9 11  1  0  0  0  0
 17 16  1  6  0  0  0
 17 18  1  0  0  0  0
 17 24  1  0  0  0  0
 18 19  1  0  0  0  0
 18 25  1  6  0  0  0
 19 20  1  0  0  0  0
 19 26  1  1  0  0  0
 20 21  1  0  0  0  0
 20 23  1  6  0  0  0
 21 22  1  1  0  0  0
 21 24  1  0  0  0  0
 22 27  1  0  0  0  0
 28 12  1  1  0  0  0
 28 29  1  0  0  0  0
 28 33  1  0  0  0  0
 29 30  1  0  0  0  0
 29 36  1  1  0  0  0
 30 31  1  0  0  0  0
 30 37  1  6  0  0  0
 31 32  1  0  0  0  0
 31 34  1  6  0  0  0
 32 33  1  0  0  0  0
 33 35  1  1  0  0  0
M  END
>  <CHROM.1>
-131.59078187,176.26143852,-157.40654664,-176.88500684,-157.39312793,80.46858019
18.87864595,-2.83953025,47.70601740,-2.11258418,-0.93601742,0.63547261

>  <Name>
2oe8_lig

>  <RI>
0

>  <Rbt.Current_Directory>
/home/itssahil/PROJECTS/Mol_Feturizer/New_Systems/rnas/2oe8

>  <Rbt.Executable>
rbdock ($Id: //depot/dev/client3/rdock/2013.1/src/exe/rbdock.cxx#4 $)

>  <Rbt.Library>
libRbt.so (2013.1, Build901 2013/11/27)

>  <Rbt.Parameter_File>
/export/apps/rDock/src/rDock_2013.1_src/data/scripts/dock_solv.prm

>  <Rbt.Receptor>
prm/pocket_docking_7.prm

>  <SCORE>
-20.1482

>  <SCORE.INTER>
-19.387

>  <SCORE.INTER.CONST>
1

>  <SCORE.INTER.POLAR>
-2.26903

>  <SCORE.INTER.ROT>
6

>  <SCORE.INTER.SOLV>
16.5914

>  <SCORE.INTER.VDW>
-18.4917

>  <SCORE.INTER.norm>
-0.523973

>  <SCORE.INTRA>
-0.871095

>  <SCORE.INTRA.DIHEDRAL>
-4.03967

>  <SCORE.INTRA.DIHEDRAL.0>
16.4056

>  <SCORE.INTRA.POLAR>
0

>  <SCORE.INTRA.POLAR.0>
0

>  <SCORE.INTRA.REPUL>
0

>  <SCORE.INTRA.REPUL.0>
0

>  <SCORE.INTRA.SOLV>
0.186076

>  <SCORE.INTRA.SOLV.lig_0>
-90.9627

>  <SCORE.INTRA.VDW>
1.0557

>  <SCORE.INTRA.VDW.0>
-3.28744

>  <SCORE.INTRA.norm>
-0.0235431

>  <SCORE.RESTR>
0.109885

>  <SCORE.RESTR.CAVITY>
0.109885

>  <SCORE.RESTR.norm>
0.00296988

>  <SCORE.SYSTEM>
0

>  <SCORE.SYSTEM.CONST>
0

>  <SCORE.SYSTEM.DIHEDRAL>
0

>  <SCORE.SYSTEM.SOLV>
0

>  <SCORE.SYSTEM.norm>
0

>  <SCORE.heavy>
37

>  <SCORE.norm>
-0.544547

>  <RMSD>
10.804

$$$$
2oe8_lig
 OpenBabel11021811463D
libRbt.so/2013.1/901 2013/11/27
 37 40  0  0  0  0  0  0  0  0999 V2000
   18.6869   -6.5786   44.8989 C   0  0  1  0  0  0  0  0  0  0  0  0
   17.4603   -6.1712   45.8006 C   0  0  1  0  0  0  0  0  0  0  0  0
   17.8599   -4.9827   46.6996 C   0  0  0  0  0  0  0  0  0  0  0  0
   19.0604   -5.4788   47.5649 C   0  0  1  0  0  0  0  0  0  0  0  0
   20.3178   -5.9194   46.6535 C   0  0  1  0  0  0  0  0  0  0  0  0
   21.5131   -6.4338   47.5083 C   0  0  1  0  0  0  0  0  0  0  0  0
   21.9180   -5.2689   48.5013 C   0  0  1  0  0  0  0  0  0  0  0  0
   20.6547   -4.8466   49.3292 C   0  0  2  0  0  0  0  0  0  0  0  0
   24.4716   -5.7402   48.8935 C   0  0  0  0  0  0  0  0  0  0  0  0
   16.2884   -5.7879   44.9509 N   0  0  0  0  0  0  0  0  0  0  0  0
   23.0592   -5.6971   49.4199 N   0  0  0  0  0  0  0  0  0  0  0  0
   19.0849   -5.5093   44.0317 O   0  0  0  0  0  0  0  0  0  0  0  0
   19.8701   -6.9647   45.7226 O   0  0  0  0  0  0  0  0  0  0  0  0
   19.5063   -4.4280   48.4727 O   0  0  0  0  0  0  0  0  0  0  0  0
   21.0658   -7.6039   48.1950 O   0  0  0  0  0  0  0  0  0  0  0  0
   20.9904   -3.7891   50.1514 O   0  0  0  0  0  0  0  0  0  0  0  0
   19.9108   -3.3625   50.9996 C   0  0  2  0  0  0  0  0  0  0  0  0
   19.2913   -2.0504   50.4609 C   0  0  1  0  0  0  0  0  0  0  0  0
   20.2935   -0.8586   50.5462 C   0  0  2  0  0  0  0  0  0  0  0  0
   20.7346   -0.6619   52.0267 C   0  0  1  0  0  0  0  0  0  0  0  0
   21.4295   -2.0114   52.4839 C   0  0  1  0  0  0  0  0  0  0  0  0
   21.8958   -1.9508   53.9357 C   0  0  0  0  0  0  0  0  0  0  0  0
   21.6926    0.4773   52.1110 N   0  0  0  0  0  0  0  0  0  0  0  0
   20.4292   -3.1315   52.3731 O   0  0  0  0  0  0  0  0  0  0  0  0
   18.8674   -2.3026   49.1075 O   0  0  0  0  0  0  0  0  0  0  0  0
   19.6414    0.3058   50.0844 O   0  0  0  0  0  0  0  0  0  0  0  0
   22.4506   -3.1871   54.3003 O   0  0  0  0  0  0  0  0  0  0  0  0
   18.0886   -5.1318   43.1039 C   0  0  1  0  0  0  0  0  0  0  0  0
   18.4988   -3.7588   42.4810 C   0  0  1  0  0  0  0  0  0  0  0  0
   17.3932   -3.3152   41.4792 C   0  0  2  0  0  0  0  0  0  0  0  0
   17.2084   -4.3772   40.3516 C   0  0  1  0  0  0  0  0  0  0  0  0
   16.8052   -5.7692   40.9717 C   0  0  0  0  0  0  0  0  0  0  0  0
   17.9363   -6.2202   41.9863 C   0  0  2  0  0  0  0  0  0  0  0  0
   16.1431   -3.9332   39.4105 N   0  0  0  0  0  0  0  0  0  0  0  0
   17.5518   -7.5291   42.5607 N   0  0  0  0  0  0  0  0  0  0  0  0
   18.6284   -2.7609   43.5109 O   0  0  0  0  0  0  0  0  0  0  0  0
   17.7929   -2.0728   40.9245 O   0  0  0  0  0  0  0  0  0  0  0  0
  1  2  1  0  0  0  0
  1 12  1  6  0  0  0
  1 13  1  0  0  0  0
  2  3  1  0  0  0  0
  2 10  1  6  0  0  0
  4  3  1  6  0  0  0
  4  5  1  0  0  0  0
  4 14  1  0  0  0  0
  5  6  1  0  0  0  0
  5 13  1  6  0  0  0
  6  7  1  0  0  0  0
  6 15  1  1  0  0  0
  7  8  1  0  0  0  0
  7 11  1  1  0  0  0
  8 14  1  0  0  0  0
  8 16  1  1  0  0  0
  9 11  1  0  0  0  0
 17 16  1  6  0  0  0
 17 18  1  0  0  0  0
 17 24  1  0  0  0  0
 18 19  1  0  0  0  0
 18 25  1  6  0  0  0
 19 20  1  0  0  0  0
 19 26  1  1  0  0  0
 20 21  1  0  0  0  0
 20 23  1  6  0  0  0
 21 22  1  1  0  0  0
 21 24  1  0  0  0  0
 22 27  1  0  0  0  0
 28 12  1  1  0  0  0
 28 29  1  0  0  0  0
 28 33  1  0  0  0  0
 29 30  1  0  0  0  0
 29 36  1  1  0  0  0
 30 31  1  0  0  0  0
 30 37  1  6  0  0  0
 31 32  1  0  0  0  0
 31 34  1  6  0  0  0
 32 33  1  0  0  0  0
 33 35  1  1  0  0  0
M  END
>  <CHROM.1>
-62.70290382,77.06915532,-177.42751912,-103.92849507,177.56302529,166.05635015
19.60618122,-4.16700955,47.12679897,-2.32912697,-1.03661632,0.64096687

>  <Name>
2oe8_lig

>  <RI>
0

>  <Rbt.Current_Directory>
/home/itssahil/PROJECTS/Mol_Feturizer/New_Systems/rnas/2oe8

>  <Rbt.Executable>
rbdock ($Id: //depot/dev/client3/rdock/2013.1/src/exe/rbdock.cxx#4 $)

>  <Rbt.Library>
libRbt.so (2013.1, Build901 2013/11/27)

>  <Rbt.Parameter_File>
/export/apps/rDock/src/rDock_2013.1_src/data/scripts/dock_solv.prm

>  <Rbt.Receptor>
prm/blind_docking_60.prm

>  <SCORE>
-17.3767

>  <SCORE.INTER>
-17.7526

>  <SCORE.INTER.CONST>
1

>  <SCORE.INTER.POLAR>
-1.98973

>  <SCORE.INTER.ROT>
6

>  <SCORE.INTER.SOLV>
12.4494

>  <SCORE.INTER.VDW>
-16.9524

>  <SCORE.INTER.norm>
-0.479799

>  <SCORE.INTRA>
0.375887

>  <SCORE.INTRA.DIHEDRAL>
-9.10311

>  <SCORE.INTRA.DIHEDRAL.0>
16.4056

>  <SCORE.INTRA.POLAR>
0

>  <SCORE.INTRA.POLAR.0>
0

>  <SCORE.INTRA.REPUL>
0

>  <SCORE.INTRA.REPUL.0>
0

>  <SCORE.INTRA.SOLV>
2.4864

>  <SCORE.INTRA.SOLV.lig_0>
-90.9627

>  <SCORE.INTRA.VDW>
3.68424

>  <SCORE.INTRA.VDW.0>
-3.28744

>  <SCORE.INTRA.norm>
0.0101591

>  <SCORE.RESTR>
0

>  <SCORE.RESTR.CAVITY>
0

>  <SCORE.RESTR.norm>
0

>  <SCORE.SYSTEM>
0

>  <SCORE.SYSTEM.CONST>
0

>  <SCORE.SYSTEM.DIHEDRAL>
0

>  <SCORE.SYSTEM.SOLV>
0

>  <SCORE.SYSTEM.norm>
0

>  <SCORE.heavy>
37

>  <SCORE.norm>
-0.46964

>  <RMSD>
10.817

$$$$
2oe8_lig
 OpenBabel11021811463D
libRbt.so/2013.1/901 2013/11/27
 37 40  0  0  0  0  0  0  0  0999 V2000
   16.9772   -5.4543   45.0766 C   0  0  1  0  0  0  0  0  0  0  0  0
   16.1610   -5.7145   46.3993 C   0  0  1  0  0  0  0  0  0  0  0  0
   16.1360   -4.4249   47.2460 C   0  0  0  0  0  0  0  0  0  0  0  0
   17.6266   -4.0822   47.5570 C   0  0  1  0  0  0  0  0  0  0  0  0
   18.4807   -3.8332   46.2100 C   0  0  1  0  0  0  0  0  0  0  0  0
   19.9736   -3.5095   46.5108 C   0  0  1  0  0  0  0  0  0  0  0  0
   20.0000   -2.2274   47.4394 C   0  0  1  0  0  0  0  0  0  0  0  0
   19.1210   -2.5029   48.7089 C   0  0  2  0  0  0  0  0  0  0  0  0
   22.2376   -2.7909   48.6933 C   0  0  0  0  0  0  0  0  0  0  0  0
   14.7596   -6.1328   46.0778 N   0  0  0  0  0  0  0  0  0  0  0  0
   21.4281   -1.8566   47.8297 N   0  0  0  0  0  0  0  0  0  0  0  0
   16.3716   -4.4340   44.2727 O   0  0  0  0  0  0  0  0  0  0  0  0
   18.3792   -5.0344   45.3696 O   0  0  0  0  0  0  0  0  0  0  0  0
   17.7154   -2.8796   48.3773 O   0  0  0  0  0  0  0  0  0  0  0  0
   20.5316   -4.6578   47.1517 O   0  0  0  0  0  0  0  0  0  0  0  0
   19.0920   -1.3644   49.4899 O   0  0  0  0  0  0  0  0  0  0  0  0
   18.5947   -1.5979   50.8184 C   0  0  2  0  0  0  0  0  0  0  0  0
   19.5348   -0.9519   51.8646 C   0  0  1  0  0  0  0  0  0  0  0  0
   20.9338   -1.6406   51.8901 C   0  0  2  0  0  0  0  0  0  0  0  0
   20.7565   -3.1549   52.2075 C   0  0  1  0  0  0  0  0  0  0  0  0
   19.8533   -3.7645   51.0561 C   0  0  1  0  0  0  0  0  0  0  0  0
   19.5908   -5.2535   51.2636 C   0  0  0  0  0  0  0  0  0  0  0  0
   22.0927   -3.8155   52.2326 N   0  0  0  0  0  0  0  0  0  0  0  0
   18.5215   -3.0618   51.0635 O   0  0  0  0  0  0  0  0  0  0  0  0
   19.6295    0.4496   51.5458 O   0  0  0  0  0  0  0  0  0  0  0  0
   21.7126   -1.0303   52.8977 O   0  0  0  0  0  0  0  0  0  0  0  0
   18.8258   -5.7463   50.1954 O   0  0  0  0  0  0  0  0  0  0  0  0
   16.8621   -4.3907   42.9486 C   0  0  1  0  0  0  0  0  0  0  0  0
   15.9278   -5.2681   42.0546 C   0  0  1  0  0  0  0  0  0  0  0  0
   16.4752   -5.2549   40.5975 C   0  0  2  0  0  0  0  0  0  0  0  0
   16.5319   -3.7990   40.0399 C   0  0  1  0  0  0  0  0  0  0  0  0
   17.4637   -2.9033   40.9422 C   0  0  0  0  0  0  0  0  0  0  0  0
   16.8995   -2.9144   42.4233 C   0  0  2  0  0  0  0  0  0  0  0  0
   17.0632   -3.8125   38.6487 N   0  0  0  0  0  0  0  0  0  0  0  0
   17.7776   -2.0683   43.2625 N   0  0  0  0  0  0  0  0  0  0  0  0
   15.9044   -6.6248   42.5362 O   0  0  0  0  0  0  0  0  0  0  0  0
   15.6070   -6.0510   39.8080 O   0  0  0  0  0  0  0  0  0  0  0  0
  1  2  1  0  0  0  0
  1 12  1  1  0  0  0
  1 13  1  0  0  0  0
  2  3  1  0  0  0  0
  2 10  1  6  0  0  0
  4  3  1  6  0  0  0
  4  5  1  0  0  0  0
  4 14  1  0  0  0  0
  5  6  1  0  0  0  0
  5 13  1  6  0  0  0
  6  7  1  0  0  0  0
  6 15  1  1  0  0  0
  7  8  1  0  0  0  0
  7 11  1  1  0  0  0
  8 14  1  0  0  0  0
  8 16  1  1  0  0  0
  9 11  1  0  0  0  0
 17 16  1  6  0  0  0
 17 18  1  0  0  0  0
 17 24  1  0  0  0  0
 18 19  1  0  0  0  0
 18 25  1  6  0  0  0
 19 20  1  0  0  0  0
 19 26  1  1  0  0  0
 20 21  1  0  0  0  0
 20 23  1  6  0  0  0
 21 22  1  1  0  0  0
 21 24  1  0  0  0  0
 22 27  1  0  0  0  0
 28 12  1  1  0  0  0
 28 29  1  0  0  0  0
 28 33  1  0  0  0  0
 29 30  1  0  0  0  0
 29 36  1  1  0  0  0
 30 31  1  0  0  0  0
 30 37  1  6  0  0  0
 31 32  1  0  0  0  0
 31 34  1  6  0  0  0
 32 33  1  0  0  0  0
 33 35  1  1  0  0  0
M  END
>  <CHROM.1>
-165.30485579,-65.32666020,-165.74382224,132.00034935,-178.10026091,93.22338835
18.43099046,-3.61326167,46.86667029,2.20477069,-0.91282497,-1.28621212

>  <Name>
2oe8_lig

>  <RI>
0

>  <Rbt.Current_Directory>
/home/itssahil/PROJECTS/Mol_Feturizer/New_Systems/rnas/2oe8

>  <Rbt.Executable>
rbdock ($Id: //depot/dev/client3/rdock/2013.1/src/exe/rbdock.cxx#4 $)

>  <Rbt.Library>
libRbt.so (2013.1, Build901 2013/11/27)

>  <Rbt.Parameter_File>
/export/apps/rDock/src/rDock_2013.1_src/data/scripts/dock_solv.prm

>  <Rbt.Receptor>
prm/blind_docking_60.prm

>  <SCORE>
-28.7788

>  <SCORE.INTER>
-29.7427

>  <SCORE.INTER.CONST>
1

>  <SCORE.INTER.POLAR>
-4.3022

>  <SCORE.INTER.ROT>
6

>  <SCORE.INTER.SOLV>
20.2309

>  <SCORE.INTER.VDW>
-19.8315

>  <SCORE.INTER.norm>
-0.803858

>  <SCORE.INTRA>
0.963942

>  <SCORE.INTRA.DIHEDRAL>
-3.63136

>  <SCORE.INTRA.DIHEDRAL.0>
16.4056

>  <SCORE.INTRA.POLAR>
0

>  <SCORE.INTRA.POLAR.0>
0

>  <SCORE.INTRA.REPUL>
0

>  <SCORE.INTRA.REPUL.0>
0

>  <SCORE.INTRA.SOLV>
0.694529

>  <SCORE.INTRA.SOLV.lig_0>
-90.9627

>  <SCORE.INTRA.VDW>
2.43236

>  <SCORE.INTRA.VDW.0>
-3.28744

>  <SCORE.INTRA.norm>
0.0260525

>  <SCORE.RESTR>
0

>  <SCORE.RESTR.CAVITY>
0

>  <SCORE.RESTR.norm>
0

>  <SCORE.SYSTEM>
0

>  <SCORE.SYSTEM.CONST>
0

>  <SCORE.SYSTEM.DIHEDRAL>
0

>  <SCORE.SYSTEM.SOLV>
0

>  <SCORE.SYSTEM.norm>
0

>  <SCORE.heavy>
37

>  <SCORE.norm>
-0.777806

>  <RMSD>
10.828

$$$$
2oe8_lig
 OpenBabel11021811463D
libRbt.so/2013.1/901 2013/11/27
 37 40  0  0  0  0  0  0  0  0999 V2000
   16.5550   -4.1652   44.2597 C   0  0  1  0  0  0  0  0  0  0  0  0
   16.1056   -4.8704   45.5955 C   0  0  1  0  0  0  0  0  0  0  0  0
   16.5878   -4.0362   46.8005 C   0  0  0  0  0  0  0  0  0  0  0  0
   18.1432   -3.9720   46.6880 C   0  0  1  0  0  0  0  0  0  0  0  0
   18.6189   -3.2702   45.3143 C   0  0  1  0  0  0  0  0  0  0  0  0
   20.1696   -3.2194   45.1854 C   0  0  1  0  0  0  0  0  0  0  0  0
   20.7213   -2.4293   46.4418 C   0  0  1  0  0  0  0  0  0  0  0  0
   20.1951   -3.1218   47.7469 C   0  0  2  0  0  0  0  0  0  0  0  0
   22.9663   -1.4124   47.3487 C   0  0  0  0  0  0  0  0  0  0  0  0
   14.6151   -5.0066   45.6417 N   0  0  0  0  0  0  0  0  0  0  0  0
   22.2462   -2.3665   46.4295 N   0  0  0  0  0  0  0  0  0  0  0  0
   15.9753   -2.8611   44.1285 O   0  0  0  0  0  0  0  0  0  0  0  0
   18.0383   -4.0161   44.1891 O   0  0  0  0  0  0  0  0  0  0  0  0
   18.7064   -3.2157   47.8006 O   0  0  0  0  0  0  0  0  0  0  0  0
   20.6325   -4.5703   45.1453 O   0  0  0  0  0  0  0  0  0  0  0  0
   20.6236   -2.3983   48.8423 O   0  0  0  0  0  0  0  0  0  0  0  0
   20.5946   -3.1497   50.0677 C   0  0  2  0  0  0  0  0  0  0  0  0
   21.2738   -2.3487   51.2047 C   0  0  1  0  0  0  0  0  0  0  0  0
   22.8003   -2.1591   50.9481 C   0  0  2  0  0  0  0  0  0  0  0  0
   23.4769   -3.5552   50.8127 C   0  0  1  0  0  0  0  0  0  0  0  0
   22.7890   -4.2836   49.5841 C   0  0  1  0  0  0  0  0  0  0  0  0
   23.3589   -5.6807   49.3560 C   0  0  0  0  0  0  0  0  0  0  0  0
   24.9366   -3.3766   50.5676 N   0  0  0  0  0  0  0  0  0  0  0  0
   21.3186   -4.4327   49.8724 O   0  0  0  0  0  0  0  0  0  0  0  0
   20.5841   -1.0885   51.3099 O   0  0  0  0  0  0  0  0  0  0  0  0
   23.3540   -1.4656   52.0467 O   0  0  0  0  0  0  0  0  0  0  0  0
   24.6961   -5.5782   48.9431 O   0  0  0  0  0  0  0  0  0  0  0  0
   15.6418   -2.5208   42.7985 C   0  0  1  0  0  0  0  0  0  0  0  0
   16.8734   -2.8397   41.8912 C   0  0  1  0  0  0  0  0  0  0  0  0
   16.5308   -2.4398   40.4264 C   0  0  2  0  0  0  0  0  0  0  0  0
   15.2787   -3.2189   39.9175 C   0  0  1  0  0  0  0  0  0  0  0  0
   14.0334   -2.9120   40.8339 C   0  0  0  0  0  0  0  0  0  0  0  0
   14.3841   -3.3263   42.3230 C   0  0  2  0  0  0  0  0  0  0  0  0
   14.9684   -2.8154   38.5180 N   0  0  0  0  0  0  0  0  0  0  0  0
   13.2087   -3.0385   43.1755 N   0  0  0  0  0  0  0  0  0  0  0  0
   18.0232   -2.0905   42.3268 O   0  0  0  0  0  0  0  0  0  0  0  0
   17.6601   -2.7454   39.6250 O   0  0  0  0  0  0  0  0  0  0  0  0
  1  2  1  0  0  0  0
  1 12  1  1  0  0  0
  1 13  1  0  0  0  0
  2  3  1  0  0  0  0
  2 10  1  6  0  0  0
  4  3  1  1  0  0  0
  4  5  1  0  0  0  0
  4 14  1  0  0  0  0
  5  6  1  0  0  0  0
  5 13  1  6  0  0  0
  6  7  1  0  0  0  0
  6 15  1  1  0  0  0
  7  8  1  0  0  0  0
  7 11  1  1  0  0  0
  8 14  1  0  0  0  0
  8 16  1  1  0  0  0
  9 11  1  0  0  0  0
 17 16  1  6  0  0  0
 17 18  1  0  0  0  0
 17 24  1  0  0  0  0
 18 19  1  0  0  0  0
 18 25  1  6  0  0  0
 19 20  1  0  0  0  0
 19 26  1  1  0  0  0
 20 21  1  0  0  0  0
 20 23  1  6  0  0  0
 21 22  1  1  0  0  0
 21 24  1  0  0  0  0
 22 27  1  0  0  0  0
 28 12  1  1  0  0  0
 28 29  1  0  0  0  0
 28 33  1  0  0  0  0
 29 30  1  0  0  0  0
 29 36  1  1  0  0  0
 30 31  1  0  0  0  0
 30 37  1  6  0  0  0
 31 32  1  0  0  0  0
 31 34  1  6  0  0  0
 32 33  1  0  0  0  0
 33 35  1  1  0  0  0
M  END
>  <CHROM.1>
-144.18208963,166.35079584,-160.40534422,171.90440693,-66.85351867,-48.56388594
19.15178733,-3.23554569,46.09162692,2.27243532,-0.03248751,-1.53898391

>  <Name>
2oe8_lig

>  <RI>
0

>  <Rbt.Current_Directory>
/home/itssahil/PROJECTS/Mol_Feturizer/New_Systems/rnas/2oe8

>  <Rbt.Executable>
rbdock ($Id: //depot/dev/client3/rdock/2013.1/src/exe/rbdock.cxx#4 $)

>  <Rbt.Library>
libRbt.so (2013.1, Build901 2013/11/27)

>  <Rbt.Parameter_File>
/export/apps/rDock/src/rDock_2013.1_src/data/scripts/dock_solv.prm

>  <Rbt.Receptor>
prm/blind_docking_80.prm

>  <SCORE>
-22.7812

>  <SCORE.INTER>
-20.8479

>  <SCORE.INTER.CONST>
1

>  <SCORE.INTER.POLAR>
-2.21775

>  <SCORE.INTER.ROT>
6

>  <SCORE.INTER.SOLV>
14.7427

>  <SCORE.INTER.VDW>
-19.0204

>  <SCORE.INTER.norm>
-0.563457

>  <SCORE.INTRA>
-1.93327

>  <SCORE.INTRA.DIHEDRAL>
-8.71409

>  <SCORE.INTRA.DIHEDRAL.0>
16.4056

>  <SCORE.INTRA.POLAR>
0

>  <SCORE.INTRA.POLAR.0>
0

>  <SCORE.INTRA.REPUL>
0

>  <SCORE.INTRA.REPUL.0>
0

>  <SCORE.INTRA.SOLV>
1.01682

>  <SCORE.INTRA.SOLV.lig_0>
-90.9627

>  <SCORE.INTRA.VDW>
1.91536

>  <SCORE.INTRA.VDW.0>
-3.28744

>  <SCORE.INTRA.norm>
-0.0522506

>  <SCORE.RESTR>
0

>  <SCORE.RESTR.CAVITY>
0

>  <SCORE.RESTR.norm>
0

>  <SCORE.SYSTEM>
0

>  <SCORE.SYSTEM.CONST>
0

>  <SCORE.SYSTEM.DIHEDRAL>
0

>  <SCORE.SYSTEM.SOLV>
0

>  <SCORE.SYSTEM.norm>
0

>  <SCORE.heavy>
37

>  <SCORE.norm>
-0.615708

>  <RMSD>
10.831

$$$$
2oe8_lig
 OpenBabel11021811463D
libRbt.so/2013.1/901 2013/11/27
 37 40  0  0  0  0  0  0  0  0999 V2000
   17.3850   -5.2888   45.3636 C   0  0  1  0  0  0  0  0  0  0  0  0
   16.5609   -5.5933   46.6719 C   0  0  1  0  0  0  0  0  0  0  0  0
   16.4449   -4.3054   47.5136 C   0  0  0  0  0  0  0  0  0  0  0  0
   17.9068   -3.8756   47.8509 C   0  0  1  0  0  0  0  0  0  0  0  0
   18.7699   -3.5800   46.5191 C   0  0  1  0  0  0  0  0  0  0  0  0
   20.2355   -3.1690   46.8464 C   0  0  1  0  0  0  0  0  0  0  0  0
   20.1696   -1.8854   47.7711 C   0  0  1  0  0  0  0  0  0  0  0  0
   19.2847   -2.2090   49.0249 C   0  0  2  0  0  0  0  0  0  0  0  0
   22.4194   -2.3222   49.0533 C   0  0  0  0  0  0  0  0  0  0  0  0
   15.1926   -6.0935   46.3260 N   0  0  0  0  0  0  0  0  0  0  0  0
   21.5662   -1.4309   48.1864 N   0  0  0  0  0  0  0  0  0  0  0  0
   16.7360   -4.3075   44.5452 O   0  0  0  0  0  0  0  0  0  0  0  0
   18.7544   -4.7871   45.6811 O   0  0  0  0  0  0  0  0  0  0  0  0
   17.9099   -2.6679   48.6687 O   0  0  0  0  0  0  0  0  0  0  0  0
   20.8476   -4.2812   47.5013 O   0  0  0  0  0  0  0  0  0  0  0  0
   19.1748   -1.0723   49.8014 O   0  0  0  0  0  0  0  0  0  0  0  0
   18.5861   -1.3178   51.0899 C   0  0  2  0  0  0  0  0  0  0  0  0
   18.5391   -0.0101   51.9165 C   0  0  1  0  0  0  0  0  0  0  0  0
   19.9683    0.4989   52.2775 C   0  0  2  0  0  0  0  0  0  0  0  0
   20.7197   -0.6035   53.0809 C   0  0  1  0  0  0  0  0  0  0  0  0
   20.8001   -1.8812   52.1460 C   0  0  1  0  0  0  0  0  0  0  0  0
   21.5064   -3.0474   52.8316 C   0  0  0  0  0  0  0  0  0  0  0  0
   22.0864   -0.1192   53.4275 N   0  0  0  0  0  0  0  0  0  0  0  0
   19.4002   -2.3271   51.8158 O   0  0  0  0  0  0  0  0  0  0  0  0
   17.8015    0.9567   51.1443 O   0  0  0  0  0  0  0  0  0  0  0  0
   19.8406    1.6618   53.0686 O   0  0  0  0  0  0  0  0  0  0  0  0
   21.6694   -4.0983   51.9161 O   0  0  0  0  0  0  0  0  0  0  0  0
   17.1886   -4.2971   43.2070 C   0  0  1  0  0  0  0  0  0  0  0  0
   16.2218   -5.1850   42.3594 C   0  0  1  0  0  0  0  0  0  0  0  0
   16.7272   -5.2081   40.8873 C   0  0  2  0  0  0  0  0  0  0  0  0
   16.7801   -3.7652   40.2968 C   0  0  1  0  0  0  0  0  0  0  0  0
   17.7449   -2.8587   41.1525 C   0  0  0  0  0  0  0  0  0  0  0  0
   17.2234   -2.8329   42.6489 C   0  0  2  0  0  0  0  0  0  0  0  0
   17.2711   -3.8133   38.8917 N   0  0  0  0  0  0  0  0  0  0  0  0
   18.1323   -1.9769   43.4442 N   0  0  0  0  0  0  0  0  0  0  0  0
   16.2007   -6.5308   42.8708 O   0  0  0  0  0  0  0  0  0  0  0  0
   15.8301   -6.0131   40.1403 O   0  0  0  0  0  0  0  0  0  0  0  0
  1  2  1  0  0  0  0
  1 12  1  1  0  0  0
  1 13  1  0  0  0  0
  2  3  1  0  0  0  0
  2 10  1  6  0  0  0
  4  3  1  6  0  0  0
  4  5  1  0  0  0  0
  4 14  1  0  0  0  0
  5  6  1  0  0  0  0
  5 13  1  6  0  0  0
  6  7  1  0  0  0  0
  6 15  1  1  0  0  0
  7  8  1  0  0  0  0
  7 11  1  1  0  0  0
  8 14  1  0  0  0  0
  8 16  1  1  0  0  0
  9 11  1  0  0  0  0
 17 16  1  6  0  0  0
 17 18  1  0  0  0  0
 17 24  1  0  0  0  0
 18 19  1  0  0  0  0
 18 25  1  6  0  0  0
 19 20  1  0  0  0  0
 19 26  1  1  0  0  0
 20 21  1  0  0  0  0
 20 23  1  6  0  0  0
 21 22  1  1  0  0  0
 21 24  1  0  0  0  0
 22 27  1  0  0  0  0
 28 12  1  1  0  0  0
 28 29  1  0  0  0  0
 28 33  1  0  0  0  0
 29 30  1  0  0  0  0
 29 36  1  1  0  0  0
 30 31  1  0  0  0  0
 30 37  1  6  0  0  0
 31 32  1  0  0  0  0
 31 34  1  6  0  0  0
 32 33  1  0  0  0  0
 33 35  1  1  0  0  0
M  END
>  <CHROM.1>
-161.48297831,-64.53891667,-169.56767131,178.15496526,-174.02405107,95.01108323
18.64901862,-2.96561118,47.27954552,2.54314725,-1.17628748,-0.99670380

>  <Name>
2oe8_lig

>  <RI>
0

>  <Rbt.Current_Directory>
/home/itssahil/PROJECTS/Mol_Feturizer/New_Systems/rnas/2oe8

>  <Rbt.Executable>
rbdock ($Id: //depot/dev/client3/rdock/2013.1/src/exe/rbdock.cxx#4 $)

>  <Rbt.Library>
libRbt.so (2013.1, Build901 2013/11/27)

>  <Rbt.Parameter_File>
/export/apps/rDock/src/rDock_2013.1_src/data/scripts/dock_solv.prm

>  <Rbt.Receptor>
prm/pocket_docking_8.prm

>  <SCORE>
-30.7018

>  <SCORE.INTER>
-25.8704

>  <SCORE.INTER.CONST>
1

>  <SCORE.INTER.POLAR>
-3.83662

>  <SCORE.INTER.ROT>
6

>  <SCORE.INTER.SOLV>
20.0541

>  <SCORE.INTER.VDW>
-18.7429

>  <SCORE.INTER.norm>
-0.699201

>  <SCORE.INTRA>
-4.83139

>  <SCORE.INTRA.DIHEDRAL>
-9.57414

>  <SCORE.INTRA.DIHEDRAL.0>
16.4056

>  <SCORE.INTRA.POLAR>
0

>  <SCORE.INTRA.POLAR.0>
0

>  <SCORE.INTRA.REPUL>
0

>  <SCORE.INTRA.REPUL.0>
0

>  <SCORE.INTRA.SOLV>
-0.955829

>  <SCORE.INTRA.SOLV.lig_0>
-90.9627

>  <SCORE.INTRA.VDW>
0.433593

>  <SCORE.INTRA.VDW.0>
-3.28744

>  <SCORE.INTRA.norm>
-0.130578

>  <SCORE.RESTR>
0

>  <SCORE.RESTR.CAVITY>
0

>  <SCORE.RESTR.norm>
0

>  <SCORE.SYSTEM>
0

>  <SCORE.SYSTEM.CONST>
0

>  <SCORE.SYSTEM.DIHEDRAL>
0

>  <SCORE.SYSTEM.SOLV>
0

>  <SCORE.SYSTEM.norm>
0

>  <SCORE.heavy>
37

>  <SCORE.norm>
-0.829779

>  <RMSD>
10.841

$$$$
2oe8_lig
 OpenBabel11021811463D
libRbt.so/2013.1/901 2013/11/27
 37 40  0  0  0  0  0  0  0  0999 V2000
   16.1372   -6.1700   45.3998 C   0  0  1  0  0  0  0  0  0  0  0  0
   15.1196   -5.6243   46.4722 C   0  0  1  0  0  0  0  0  0  0  0  0
   15.7373   -4.4053   47.1884 C   0  0  0  0  0  0  0  0  0  0  0  0
   17.0497   -4.9171   47.8603 C   0  0  1  0  0  0  0  0  0  0  0  0
   18.0942   -5.4986   46.7755 C   0  0  1  0  0  0  0  0  0  0  0  0
   19.3987   -6.0290   47.4396 C   0  0  1  0  0  0  0  0  0  0  0  0
   20.0377   -4.8275   48.2489 C   0  0  1  0  0  0  0  0  0  0  0  0
   18.9711   -4.2696   49.2544 C   0  0  2  0  0  0  0  0  0  0  0  0
   22.4957   -5.7503   48.1908 C   0  0  0  0  0  0  0  0  0  0  0  0
   13.8323   -5.2255   45.8193 N   0  0  0  0  0  0  0  0  0  0  0  0
   21.3052   -5.2644   48.9784 N   0  0  0  0  0  0  0  0  0  0  0  0
   16.4226   -5.1901   44.3937 O   0  0  0  0  0  0  0  0  0  0  0  0
   17.4307   -6.5740   46.0254 O   0  0  0  0  0  0  0  0  0  0  0  0
   17.7075   -3.8376   48.5877 O   0  0  0  0  0  0  0  0  0  0  0  0
   19.0266   -7.1185   48.2854 O   0  0  0  0  0  0  0  0  0  0  0  0
   19.5053   -3.1822   49.9171 O   0  0  0  0  0  0  0  0  0  0  0  0
   19.5735   -1.9979   49.1049 C   0  0  2  0  0  0  0  0  0  0  0  0
   21.0490   -1.6227   48.8258 C   0  0  1  0  0  0  0  0  0  0  0  0
   21.7946   -1.1961   50.1275 C   0  0  2  0  0  0  0  0  0  0  0  0
   21.0570    0.0158   50.7696 C   0  0  1  0  0  0  0  0  0  0  0  0
   19.5829   -0.4644   51.1007 C   0  0  1  0  0  0  0  0  0  0  0  0
   18.7460    0.6485   51.7252 C   0  0  0  0  0  0  0  0  0  0  0  0
   21.7680    0.4257   52.0142 N   0  0  0  0  0  0  0  0  0  0  0  0
   18.9094   -0.8761   49.8184 O   0  0  0  0  0  0  0  0  0  0  0  0
   21.6680   -2.7622   48.1987 O   0  0  0  0  0  0  0  0  0  0  0  0
   23.1130   -0.8244   49.7843 O   0  0  0  0  0  0  0  0  0  0  0  0
   17.7201    0.0838   52.4984 O   0  0  0  0  0  0  0  0  0  0  0  0
   15.3258   -4.9102   43.5485 C   0  0  1  0  0  0  0  0  0  0  0  0
   15.3647   -3.3903   43.1879 C   0  0  1  0  0  0  0  0  0  0  0  0
   14.1427   -3.0611   42.2816 C   0  0  2  0  0  0  0  0  0  0  0  0
   14.1722   -3.9182   40.9785 C   0  0  1  0  0  0  0  0  0  0  0  0
   14.1446   -5.4539   41.3329 C   0  0  0  0  0  0  0  0  0  0  0  0
   15.3936   -5.7861   42.2504 C   0  0  2  0  0  0  0  0  0  0  0  0
   12.9919   -3.5895   40.1321 N   0  0  0  0  0  0  0  0  0  0  0  0
   15.3621   -7.2300   42.5750 N   0  0  0  0  0  0  0  0  0  0  0  0
   15.2930   -2.5906   44.3832 O   0  0  0  0  0  0  0  0  0  0  0  0
   14.2059   -1.6805   41.9643 O   0  0  0  0  0  0  0  0  0  0  0  0
  1  2  1  0  0  0  0
  1 12  1  6  0  0  0
  1 13  1  0  0  0  0
  2  3  1  0  0  0  0
  2 10  1  6  0  0  0
  4  3  1  6  0  0  0
  4  5  1  0  0  0  0
  4 14  1  0  0  0  0
  5  6  1  0  0  0  0
  5 13  1  1  0  0  0
  6  7  1  0  0  0  0
  6 15  1  1  0  0  0
  7  8  1  0  0  0  0
  7 11  1  1  0  0  0
  8 14  1  0  0  0  0
  8 16  1  6  0  0  0
  9 11  1  0  0  0  0
 17 16  1  1  0  0  0
 17 18  1  0  0  0  0
 17 24  1  0  0  0  0
 18 19  1  0  0  0  0
 18 25  1  1  0  0  0
 19 20  1  0  0  0  0
 19 26  1  6  0  0  0
 20 21  1  0  0  0  0
 20 23  1  1  0  0  0
 21 22  1  6  0  0  0
 21 24  1  0  0  0  0
 22 27  1  0  0  0  0
 28 12  1  1  0  0  0
 28 29  1  0  0  0  0
 28 33  1  0  0  0  0
 29 30  1  0  0  0  0
 29 36  1  1  0  0  0
 30 31  1  0  0  0  0
 30 37  1  6  0  0  0
 31 32  1  0  0  0  0
 31 34  1  6  0  0  0
 32 33  1  0  0  0  0
 33 35  1  1  0  0  0
M  END
>  <CHROM.1>
-68.57608641,62.48832215,74.64745178,-112.94993924,-154.94496542,144.32056202
17.85745678,-3.60340843,46.94338115,-2.50927839,-0.76060471,0.42769476

>  <Name>
2oe8_lig

>  <RI>
0

>  <Rbt.Current_Directory>
/home/itssahil/PROJECTS/Mol_Feturizer/New_Systems/rnas/2oe8

>  <Rbt.Executable>
rbdock ($Id: //depot/dev/client3/rdock/2013.1/src/exe/rbdock.cxx#4 $)

>  <Rbt.Library>
libRbt.so (2013.1, Build901 2013/11/27)

>  <Rbt.Parameter_File>
/export/apps/rDock/src/rDock_2013.1_src/data/scripts/dock_solv.prm

>  <Rbt.Receptor>
prm/blind_docking_80.prm

>  <SCORE>
-18.7079

>  <SCORE.INTER>
-21.4301

>  <SCORE.INTER.CONST>
1

>  <SCORE.INTER.POLAR>
-3.23957

>  <SCORE.INTER.ROT>
6

>  <SCORE.INTER.SOLV>
10.7755

>  <SCORE.INTER.VDW>
-14.68

>  <SCORE.INTER.norm>
-0.579191

>  <SCORE.INTRA>
2.72212

>  <SCORE.INTRA.DIHEDRAL>
-1.40932

>  <SCORE.INTRA.DIHEDRAL.0>
16.4056

>  <SCORE.INTRA.POLAR>
0

>  <SCORE.INTRA.POLAR.0>
0

>  <SCORE.INTRA.REPUL>
0

>  <SCORE.INTRA.REPUL.0>
0

>  <SCORE.INTRA.SOLV>
2.51207

>  <SCORE.INTRA.SOLV.lig_0>
-90.9627

>  <SCORE.INTRA.VDW>
2.17075

>  <SCORE.INTRA.VDW.0>
-3.28744

>  <SCORE.INTRA.norm>
0.0735709

>  <SCORE.RESTR>
0

>  <SCORE.RESTR.CAVITY>
0

>  <SCORE.RESTR.norm>
0

>  <SCORE.SYSTEM>
0

>  <SCORE.SYSTEM.CONST>
0

>  <SCORE.SYSTEM.DIHEDRAL>
0

>  <SCORE.SYSTEM.SOLV>
0

>  <SCORE.SYSTEM.norm>
0

>  <SCORE.heavy>
37

>  <SCORE.norm>
-0.50562

>  <RMSD>
10.843

$$$$
2oe8_lig
 OpenBabel11021811463D
libRbt.so/2013.1/901 2013/11/27
 37 40  0  0  0  0  0  0  0  0999 V2000
   16.8281   -4.7121   44.7917 C   0  0  1  0  0  0  0  0  0  0  0  0
   16.0381   -5.1445   46.0849 C   0  0  1  0  0  0  0  0  0  0  0  0
   16.0896   -4.0020   47.1206 C   0  0  0  0  0  0  0  0  0  0  0  0
   17.6009   -3.7667   47.4309 C   0  0  1  0  0  0  0  0  0  0  0  0
   18.4277   -3.3429   46.1107 C   0  0  1  0  0  0  0  0  0  0  0  0
   19.9403   -3.1249   46.4080 C   0  0  1  0  0  0  0  0  0  0  0  0
   20.0450   -2.0044   47.5218 C   0  0  1  0  0  0  0  0  0  0  0  0
   19.1902   -2.4414   48.7621 C   0  0  2  0  0  0  0  0  0  0  0  0
   21.8167   -0.7739   49.0197 C   0  0  0  0  0  0  0  0  0  0  0  0
   14.6124   -5.4561   45.7496 N   0  0  0  0  0  0  0  0  0  0  0  0
   21.4974   -1.7514   47.9168 N   0  0  0  0  0  0  0  0  0  0  0  0
   16.2437   -3.5578   44.1753 O   0  0  0  0  0  0  0  0  0  0  0  0
   18.2537   -4.3945   45.0991 O   0  0  0  0  0  0  0  0  0  0  0  0
   17.7617   -2.7102   48.4234 O   0  0  0  0  0  0  0  0  0  0  0  0
   20.4676   -4.3785   46.8453 O   0  0  0  0  0  0  0  0  0  0  0  0
   19.2296   -1.4377   49.7098 O   0  0  0  0  0  0  0  0  0  0  0  0
   18.8308   -1.8757   51.0197 C   0  0  2  0  0  0  0  0  0  0  0  0
   18.8760   -0.6935   52.0178 C   0  0  1  0  0  0  0  0  0  0  0  0
   20.3322   -0.1852   52.2485 C   0  0  2  0  0  0  0  0  0  0  0  0
   21.2079   -1.3570   52.7825 C   0  0  1  0  0  0  0  0  0  0  0  0
   21.1802   -2.4938   51.6778 C   0  0  1  0  0  0  0  0  0  0  0  0
   21.9961   -3.7146   52.0935 C   0  0  0  0  0  0  0  0  0  0  0  0
   22.6007   -0.8736   53.0041 N   0  0  0  0  0  0  0  0  0  0  0  0
   19.7562   -2.9426   51.4821 O   0  0  0  0  0  0  0  0  0  0  0  0
   18.0207    0.3404   51.4939 O   0  0  0  0  0  0  0  0  0  0  0  0
   20.2950    0.8553   53.2026 O   0  0  0  0  0  0  0  0  0  0  0  0
   21.9634   -4.6702   51.0665 O   0  0  0  0  0  0  0  0  0  0  0  0
   16.0234   -3.7071   42.7878 C   0  0  1  0  0  0  0  0  0  0  0  0
   15.0617   -2.5669   42.3223 C   0  0  1  0  0  0  0  0  0  0  0  0
   14.7850   -2.7381   40.8001 C   0  0  2  0  0  0  0  0  0  0  0  0
   16.1139   -2.6794   39.9851 C   0  0  1  0  0  0  0  0  0  0  0  0
   17.0953   -3.8196   40.4559 C   0  0  0  0  0  0  0  0  0  0  0  0
   17.3793   -3.6380   42.0046 C   0  0  2  0  0  0  0  0  0  0  0  0
   15.8236   -2.8508   38.5346 N   0  0  0  0  0  0  0  0  0  0  0  0
   18.3042   -4.7098   42.4372 N   0  0  0  0  0  0  0  0  0  0  0  0
   13.8147   -2.6407   43.0384 O   0  0  0  0  0  0  0  0  0  0  0  0
   13.9173   -1.6890   40.4031 O   0  0  0  0  0  0  0  0  0  0  0  0
  1  2  1  0  0  0  0
  1 12  1  1  0  0  0
  1 13  1  0  0  0  0
  2  3  1  0  0  0  0
  2 10  1  6  0  0  0
  4  3  1  6  0  0  0
  4  5  1  0  0  0  0
  4 14  1  0  0  0  0
  5  6  1  0  0  0  0
  5 13  1  6  0  0  0
  6  7  1  0  0  0  0
  6 15  1  1  0  0  0
  7  8  1  0  0  0  0
  7 11  1  1  0  0  0
  8 14  1  0  0  0  0
  8 16  1  1  0  0  0
  9 11  1  0  0  0  0
 17 16  1  6  0  0  0
 17 18  1  0  0  0  0
 17 24  1  0  0  0  0
 18 19  1  0  0  0  0
 18 25  1  6  0  0  0
 19 20  1  0  0  0  0
 19 26  1  1  0  0  0
 20 21  1  0  0  0  0
 20 23  1  6  0  0  0
 21 22  1  1  0  0  0
 21 24  1  0  0  0  0
 22 27  1  0  0  0  0
 28 12  1  1  0  0  0
 28 29  1  0  0  0  0
 28 33  1  0  0  0  0
 29 30  1  0  0  0  0
 29 36  1  1  0  0  0
 30 31  1  0  0  0  0
 30 37  1  6  0  0  0
 31 32  1  0  0  0  0
 31 34  1  6  0  0  0
 32 33  1  0  0  0  0
 33 35  1  1  0  0  0
M  END
>  <CHROM.1>
-130.30286919,-176.62454907,-162.44362057,-178.97346509,-178.50422339,165.27565916
18.31557286,-2.73258107,46.96268885,-2.09511190,-0.49847678,1.12346149

>  <Name>
2oe8_lig

>  <RI>
0

>  <Rbt.Current_Directory>
/home/itssahil/PROJECTS/Mol_Feturizer/New_Systems/rnas/2oe8

>  <Rbt.Executable>
rbdock ($Id: //depot/dev/client3/rdock/2013.1/src/exe/rbdock.cxx#4 $)

>  <Rbt.Library>
libRbt.so (2013.1, Build901 2013/11/27)

>  <Rbt.Parameter_File>
/export/apps/rDock/src/rDock_2013.1_src/data/scripts/dock_solv.prm

>  <Rbt.Receptor>
prm/blind_docking_80.prm

>  <SCORE>
-20.6392

>  <SCORE.INTER>
-18.7082

>  <SCORE.INTER.CONST>
1

>  <SCORE.INTER.POLAR>
-2.08758

>  <SCORE.INTER.ROT>
6

>  <SCORE.INTER.SOLV>
13.7717

>  <SCORE.INTER.VDW>
-17.7041

>  <SCORE.INTER.norm>
-0.505628

>  <SCORE.INTRA>
-1.93097

>  <SCORE.INTRA.DIHEDRAL>
-7.25658

>  <SCORE.INTRA.DIHEDRAL.0>
16.4056

>  <SCORE.INTRA.POLAR>
0

>  <SCORE.INTRA.POLAR.0>
0

>  <SCORE.INTRA.REPUL>
0

>  <SCORE.INTRA.REPUL.0>
0

>  <SCORE.INTRA.SOLV>
-0.0243222

>  <SCORE.INTRA.SOLV.lig_0>
-90.9627

>  <SCORE.INTRA.VDW>
1.70948

>  <SCORE.INTRA.VDW.0>
-3.28744

>  <SCORE.INTRA.norm>
-0.0521883

>  <SCORE.RESTR>
0

>  <SCORE.RESTR.CAVITY>
0

>  <SCORE.RESTR.norm>
0

>  <SCORE.SYSTEM>
0

>  <SCORE.SYSTEM.CONST>
0

>  <SCORE.SYSTEM.DIHEDRAL>
0

>  <SCORE.SYSTEM.SOLV>
0

>  <SCORE.SYSTEM.norm>
0

>  <SCORE.heavy>
37

>  <SCORE.norm>
-0.557817

>  <RMSD>
10.845

$$$$
2oe8_lig
 OpenBabel11021811463D
libRbt.so/2013.1/901 2013/11/27
 37 40  0  0  0  0  0  0  0  0999 V2000
   16.5096   -4.2063   44.2195 C   0  0  1  0  0  0  0  0  0  0  0  0
   15.8726   -5.0035   45.4204 C   0  0  1  0  0  0  0  0  0  0  0  0
   16.2399   -4.3073   46.7474 C   0  0  0  0  0  0  0  0  0  0  0  0
   17.7987   -4.3159   46.8238 C   0  0  1  0  0  0  0  0  0  0  0  0
   18.4664   -3.5201   45.5881 C   0  0  1  0  0  0  0  0  0  0  0  0
   20.0221   -3.5403   45.6464 C   0  0  1  0  0  0  0  0  0  0  0  0
   20.4502   -2.8963   47.0281 C   0  0  1  0  0  0  0  0  0  0  0  0
   19.7412   -3.6740   48.1910 C   0  0  2  0  0  0  0  0  0  0  0  0
   22.7013   -1.6358   47.5184 C   0  0  0  0  0  0  0  0  0  0  0  0
   14.3831   -5.0640   45.2791 N   0  0  0  0  0  0  0  0  0  0  0  0
   21.9667   -2.9136   47.1998 N   0  0  0  0  0  0  0  0  0  0  0  0
   16.0054   -2.8668   44.1462 O   0  0  0  0  0  0  0  0  0  0  0  0
   17.9956   -4.1305   44.3369 O   0  0  0  0  0  0  0  0  0  0  0  0
   18.2544   -3.6931   48.0614 O   0  0  0  0  0  0  0  0  0  0  0  0
   20.4292   -4.9048   45.5321 O   0  0  0  0  0  0  0  0  0  0  0  0
   20.0639   -3.0752   49.3928 O   0  0  0  0  0  0  0  0  0  0  0  0
   20.3700   -4.0178   50.4343 C   0  0  2  0  0  0  0  0  0  0  0  0
   20.2167   -3.3517   51.8230 C   0  0  1  0  0  0  0  0  0  0  0  0
   21.2753   -2.2287   52.0471 C   0  0  2  0  0  0  0  0  0  0  0  0
   22.7040   -2.8330   51.9094 C   0  0  1  0  0  0  0  0  0  0  0  0
   22.8155   -3.4228   50.4421 C   0  0  1  0  0  0  0  0  0  0  0  0
   24.1766   -4.0638   50.1859 C   0  0  0  0  0  0  0  0  0  0  0  0
   23.7180   -1.7613   52.1235 N   0  0  0  0  0  0  0  0  0  0  0  0
   21.7689   -4.4916   50.2702 O   0  0  0  0  0  0  0  0  0  0  0  0
   18.8699   -2.8479   51.9085 O   0  0  0  0  0  0  0  0  0  0  0  0
   21.1021   -1.7061   53.3476 O   0  0  0  0  0  0  0  0  0  0  0  0
   24.2172   -4.5663   48.8763 O   0  0  0  0  0  0  0  0  0  0  0  0
   15.7104   -2.4438   42.8310 C   0  0  1  0  0  0  0  0  0  0  0  0
   16.9082   -2.8441   41.9109 C   0  0  1  0  0  0  0  0  0  0  0  0
   16.6103   -2.3556   40.4633 C   0  0  2  0  0  0  0  0  0  0  0  0
   15.2905   -2.9896   39.9249 C   0  0  1  0  0  0  0  0  0  0  0  0
   14.0778   -2.6003   40.8536 C   0  0  0  0  0  0  0  0  0  0  0  0
   14.3823   -3.1048   42.3250 C   0  0  2  0  0  0  0  0  0  0  0  0
   15.0249   -2.5033   38.5427 N   0  0  0  0  0  0  0  0  0  0  0  0
   13.2375   -2.7387   43.1891 N   0  0  0  0  0  0  0  0  0  0  0  0
   18.1236   -2.2270   42.3749 O   0  0  0  0  0  0  0  0  0  0  0  0
   17.7073   -2.7370   39.6496 O   0  0  0  0  0  0  0  0  0  0  0  0
  1  2  1  0  0  0  0
  1 12  1  1  0  0  0
  1 13  1  0  0  0  0
  2  3  1  0  0  0  0
  2 10  1  6  0  0  0
  4  3  1  6  0  0  0
  4  5  1  0  0  0  0
  4 14  1  0  0  0  0
  5  6  1  0  0  0  0
  5 13  1  6  0  0  0
  6  7  1  0  0  0  0
  6 15  1  1  0  0  0
  7  8  1  0  0  0  0
  7 11  1  1  0  0  0
  8 14  1  0  0  0  0
  8 16  1  1  0  0  0
  9 11  1  0  0  0  0
 17 16  1  6  0  0  0
 17 18  1  0  0  0  0
 17 24  1  0  0  0  0
 18 19  1  0  0  0  0
 18 25  1  6  0  0  0
 19 20  1  0  0  0  0
 19 26  1  1  0  0  0
 20 21  1  0  0  0  0
 20 23  1  6  0  0  0
 21 22  1  1  0  0  0
 21 24  1  0  0  0  0
 22 27  1  0  0  0  0
 28 12  1  1  0  0  0
 28 29  1  0  0  0  0
 28 33  1  0  0  0  0
 29 30  1  0  0  0  0
 29 36  1  1  0  0  0
 30 31  1  0  0  0  0
 30 37  1  6  0  0  0
 31 32  1  0  0  0  0
 31 34  1  6  0  0  0
 32 33  1  0  0  0  0
 33 35  1  1  0  0  0
M  END
>  <CHROM.1>
-137.57264080,126.45913751,-137.21833857,-159.54066443,-179.98997230,-46.08116159
18.83487968,-3.28533393,46.42767340,2.17417120,-0.07208263,-1.51514554

>  <Name>
2oe8_lig

>  <RI>
0

>  <Rbt.Current_Directory>
/home/itssahil/PROJECTS/Mol_Feturizer/New_Systems/rnas/2oe8

>  <Rbt.Executable>
rbdock ($Id: //depot/dev/client3/rdock/2013.1/src/exe/rbdock.cxx#4 $)

>  <Rbt.Library>
libRbt.so (2013.1, Build901 2013/11/27)

>  <Rbt.Parameter_File>
/export/apps/rDock/src/rDock_2013.1_src/data/scripts/dock_solv.prm

>  <Rbt.Receptor>
prm/blind_docking_100.prm

>  <SCORE>
-25.2778

>  <SCORE.INTER>
-26.0713

>  <SCORE.INTER.CONST>
1

>  <SCORE.INTER.POLAR>
-3.26451

>  <SCORE.INTER.ROT>
6

>  <SCORE.INTER.SOLV>
14.9146

>  <SCORE.INTER.VDW>
-19.0707

>  <SCORE.INTER.norm>
-0.70463

>  <SCORE.INTRA>
0.793496

>  <SCORE.INTRA.DIHEDRAL>
-0.873457

>  <SCORE.INTRA.DIHEDRAL.0>
16.4056

>  <SCORE.INTRA.POLAR>
0

>  <SCORE.INTRA.POLAR.0>
0

>  <SCORE.INTRA.REPUL>
0

>  <SCORE.INTRA.REPUL.0>
0

>  <SCORE.INTRA.SOLV>
0.981475

>  <SCORE.INTRA.SOLV.lig_0>
-90.9627

>  <SCORE.INTRA.VDW>
0.739487

>  <SCORE.INTRA.VDW.0>
-3.28744

>  <SCORE.INTRA.norm>
0.0214458

>  <SCORE.RESTR>
0

>  <SCORE.RESTR.CAVITY>
0

>  <SCORE.RESTR.norm>
0

>  <SCORE.SYSTEM>
0

>  <SCORE.SYSTEM.CONST>
0

>  <SCORE.SYSTEM.DIHEDRAL>
0

>  <SCORE.SYSTEM.SOLV>
0

>  <SCORE.SYSTEM.norm>
0

>  <SCORE.heavy>
37

>  <SCORE.norm>
-0.683184

>  <RMSD>
10.848

$$$$
2oe8_lig
 OpenBabel11021811463D
libRbt.so/2013.1/901 2013/11/27
 37 40  0  0  0  0  0  0  0  0999 V2000
   17.2652   -4.7891   45.6174 C   0  0  1  0  0  0  0  0  0  0  0  0
   16.5414   -3.4298   45.9521 C   0  0  1  0  0  0  0  0  0  0  0  0
   17.5996   -2.3515   46.2655 C   0  0  0  0  0  0  0  0  0  0  0  0
   18.4076   -2.8812   47.4913 C   0  0  1  0  0  0  0  0  0  0  0  0
   19.1382   -4.2843   47.1699 C   0  0  1  0  0  0  0  0  0  0  0  0
   19.9310   -4.8293   48.3940 C   0  0  1  0  0  0  0  0  0  0  0  0
   20.9890   -3.7236   48.8004 C   0  0  1  0  0  0  0  0  0  0  0  0
   20.2361   -2.3719   49.0570 C   0  0  2  0  0  0  0  0  0  0  0  0
   23.1383   -3.5316   50.2971 C   0  0  0  0  0  0  0  0  0  0  0  0
   15.6974   -2.9862   44.7976 N   0  0  0  0  0  0  0  0  0  0  0  0
   21.7890   -4.1489   50.0287 N   0  0  0  0  0  0  0  0  0  0  0  0
   18.1031   -4.6721   44.4606 O   0  0  0  0  0  0  0  0  0  0  0  0
   18.1151   -5.2533   46.7531 O   0  0  0  0  0  0  0  0  0  0  0  0
   19.4303   -1.9188   47.8852 O   0  0  0  0  0  0  0  0  0  0  0  0
   18.9815   -5.0818   49.4309 O   0  0  0  0  0  0  0  0  0  0  0  0
   21.1630   -1.3913   49.3509 O   0  0  0  0  0  0  0  0  0  0  0  0
   20.6077   -0.0652   49.3527 C   0  0  2  0  0  0  0  0  0  0  0  0
   21.6779    0.9643   49.7890 C   0  0  1  0  0  0  0  0  0  0  0  0
   22.1037    0.7627   51.2757 C   0  0  2  0  0  0  0  0  0  0  0  0
   20.8505    0.8878   52.1916 C   0  0  1  0  0  0  0  0  0  0  0  0
   19.8358   -0.2441   51.7416 C   0  0  1  0  0  0  0  0  0  0  0  0
   18.5484   -0.2159   52.5606 C   0  0  0  0  0  0  0  0  0  0  0  0
   21.2551    0.6956   53.6136 N   0  0  0  0  0  0  0  0  0  0  0  0
   19.4642   -0.0146   50.3005 O   0  0  0  0  0  0  0  0  0  0  0  0
   22.7922    0.8304   48.8861 O   0  0  0  0  0  0  0  0  0  0  0  0
   23.0408    1.7647   51.6105 O   0  0  0  0  0  0  0  0  0  0  0  0
   17.8832    1.0005   52.3436 O   0  0  0  0  0  0  0  0  0  0  0  0
   17.3892   -4.6761   43.2415 C   0  0  1  0  0  0  0  0  0  0  0  0
   18.1901   -3.8233   42.2057 C   0  0  1  0  0  0  0  0  0  0  0  0
   17.3984   -3.7931   40.8658 C   0  0  2  0  0  0  0  0  0  0  0  0
   17.1853   -5.2371   40.3152 C   0  0  1  0  0  0  0  0  0  0  0  0
   16.3875   -6.1085   41.3587 C   0  0  0  0  0  0  0  0  0  0  0  0
   17.1999   -6.1418   42.7193 C   0  0  2  0  0  0  0  0  0  0  0  0
   16.4220   -5.1819   39.0377 N   0  0  0  0  0  0  0  0  0  0  0  0
   16.4460   -6.9648   43.6917 N   0  0  0  0  0  0  0  0  0  0  0  0
   18.3531   -2.4759   42.6864 O   0  0  0  0  0  0  0  0  0  0  0  0
   18.1489   -3.0204   39.9436 O   0  0  0  0  0  0  0  0  0  0  0  0
  1  2  1  0  0  0  0
  1 12  1  6  0  0  0
  1 13  1  0  0  0  0
  2  3  1  0  0  0  0
  2 10  1  6  0  0  0
  4  3  1  6  0  0  0
  4  5  1  0  0  0  0
  4 14  1  0  0  0  0
  5  6  1  0  0  0  0
  5 13  1  1  0  0  0
  6  7  1  0  0  0  0
  6 15  1  1  0  0  0
  7  8  1  0  0  0  0
  7 11  1  1  0  0  0
  8 14  1  0  0  0  0
  8 16  1  6  0  0  0
  9 11  1  0  0  0  0
 17 16  1  1  0  0  0
 17 18  1  0  0  0  0
 17 24  1  0  0  0  0
 18 19  1  0  0  0  0
 18 25  1  6  0  0  0
 19 20  1  0  0  0  0
 19 26  1  1  0  0  0
 20 21  1  0  0  0  0
 20 23  1  1  0  0  0
 21 22  1  1  0  0  0
 21 24  1  0  0  0  0
 22 27  1  0  0  0  0
 28 12  1  1  0  0  0
 28 29  1  0  0  0  0
 28 33  1  0  0  0  0
 29 30  1  0  0  0  0
 29 36  1  1  0  0  0
 30 31  1  0  0  0  0
 30 37  1  6  0  0  0
 31 32  1  0  0  0  0
 31 34  1  6  0  0  0
 32 33  1  0  0  0  0
 33 35  1  1  0  0  0
M  END
>  <CHROM.1>
-76.79631415,157.94014665,168.82458962,175.90526928,63.05296710,150.06582830
19.15455746,-2.63032231,47.10332261,2.68002409,-1.17390935,-0.96711643

>  <Name>
2oe8_lig

>  <RI>
0

>  <Rbt.Current_Directory>
/home/itssahil/PROJECTS/Mol_Feturizer/New_Systems/rnas/2oe8

>  <Rbt.Executable>
rbdock ($Id: //depot/dev/client3/rdock/2013.1/src/exe/rbdock.cxx#4 $)

>  <Rbt.Library>
libRbt.so (2013.1, Build901 2013/11/27)

>  <Rbt.Parameter_File>
/export/apps/rDock/src/rDock_2013.1_src/data/scripts/dock_solv.prm

>  <Rbt.Receptor>
prm/blind_docking_60.prm

>  <SCORE>
-22.3635

>  <SCORE.INTER>
-18.7218

>  <SCORE.INTER.CONST>
1

>  <SCORE.INTER.POLAR>
-2.77415

>  <SCORE.INTER.ROT>
6

>  <SCORE.INTER.SOLV>
15.5929

>  <SCORE.INTER.VDW>
-16.0317

>  <SCORE.INTER.norm>
-0.505995

>  <SCORE.INTRA>
-3.66914

>  <SCORE.INTRA.DIHEDRAL>
-10.3897

>  <SCORE.INTRA.DIHEDRAL.0>
16.4056

>  <SCORE.INTRA.POLAR>
0

>  <SCORE.INTRA.POLAR.0>
0

>  <SCORE.INTRA.REPUL>
0

>  <SCORE.INTRA.REPUL.0>
0

>  <SCORE.INTRA.SOLV>
0.787508

>  <SCORE.INTRA.SOLV.lig_0>
-90.9627

>  <SCORE.INTRA.VDW>
1.13195

>  <SCORE.INTRA.VDW.0>
-3.28744

>  <SCORE.INTRA.norm>
-0.0991659

>  <SCORE.RESTR>
0.0274371

>  <SCORE.RESTR.CAVITY>
0.0274371

>  <SCORE.RESTR.norm>
0.000741542

>  <SCORE.SYSTEM>
0

>  <SCORE.SYSTEM.CONST>
0

>  <SCORE.SYSTEM.DIHEDRAL>
0

>  <SCORE.SYSTEM.SOLV>
0

>  <SCORE.SYSTEM.norm>
0

>  <SCORE.heavy>
37

>  <SCORE.norm>
-0.60442

>  <RMSD>
10.851

$$$$
2oe8_lig
 OpenBabel11021811463D
libRbt.so/2013.1/901 2013/11/27
 37 40  0  0  0  0  0  0  0  0999 V2000
   17.5065   -4.4640   44.1311 C   0  0  1  0  0  0  0  0  0  0  0  0
   18.3543   -3.2054   43.7061 C   0  0  1  0  0  0  0  0  0  0  0  0
   19.7329   -3.2614   44.3968 C   0  0  0  0  0  0  0  0  0  0  0  0
   19.4486   -3.2623   45.9314 C   0  0  1  0  0  0  0  0  0  0  0  0
   18.5629   -4.5356   46.3788 C   0  0  1  0  0  0  0  0  0  0  0  0
   18.2585   -4.5339   47.9057 C   0  0  1  0  0  0  0  0  0  0  0  0
   19.6487   -4.5207   48.6633 C   0  0  1  0  0  0  0  0  0  0  0  0
   20.4878   -3.2943   48.1615 C   0  0  2  0  0  0  0  0  0  0  0  0
   20.5248   -5.0099   51.0902 C   0  0  0  0  0  0  0  0  0  0  0  0
   18.5368   -3.1726   42.2202 N   0  0  0  0  0  0  0  0  0  0  0  0
   19.4534   -4.4709   50.1762 N   0  0  0  0  0  0  0  0  0  0  0  0
   18.1329   -5.6868   43.7232 O   0  0  0  0  0  0  0  0  0  0  0  0
   17.3108   -4.5209   45.6097 O   0  0  0  0  0  0  0  0  0  0  0  0
   20.6976   -3.2937   46.6838 O   0  0  0  0  0  0  0  0  0  0  0  0
   17.4791   -3.3680   48.1774 O   0  0  0  0  0  0  0  0  0  0  0  0
   21.7248   -3.3163   48.7750 O   0  0  0  0  0  0  0  0  0  0  0  0
   22.6050   -2.2751   48.3189 C   0  0  2  0  0  0  0  0  0  0  0  0
   23.9257   -2.2971   49.1257 C   0  0  1  0  0  0  0  0  0  0  0  0
   23.6960   -1.9281   50.6234 C   0  0  2  0  0  0  0  0  0  0  0  0
   23.0500   -0.5139   50.7120 C   0  0  1  0  0  0  0  0  0  0  0  0
   21.6697   -0.5881   49.9358 C   0  0  1  0  0  0  0  0  0  0  0  0
   20.9407    0.7526   49.9368 C   0  0  0  0  0  0  0  0  0  0  0  0
   22.8296   -0.1587   52.1431 N   0  0  0  0  0  0  0  0  0  0  0  0
   21.9413   -0.9580   48.5016 O   0  0  0  0  0  0  0  0  0  0  0  0
   24.4959   -3.6113   48.9754 O   0  0  0  0  0  0  0  0  0  0  0  0
   24.9474   -1.9224   51.2778 O   0  0  0  0  0  0  0  0  0  0  0  0
   20.6295    1.1141   51.2564 O   0  0  0  0  0  0  0  0  0  0  0  0
   17.3369   -6.8325   43.9460 C   0  0  1  0  0  0  0  0  0  0  0  0
   16.3384   -6.9710   42.7520 C   0  0  1  0  0  0  0  0  0  0  0  0
   15.4331   -8.2127   43.0003 C   0  0  2  0  0  0  0  0  0  0  0  0
   16.2923   -9.5084   43.1287 C   0  0  1  0  0  0  0  0  0  0  0  0
   17.3108   -9.3734   44.3242 C   0  0  0  0  0  0  0  0  0  0  0  0
   18.2346   -8.1119   44.0645 C   0  0  2  0  0  0  0  0  0  0  0  0
   15.4051  -10.6796   43.3709 N   0  0  0  0  0  0  0  0  0  0  0  0
   19.1899   -7.9949   45.1892 N   0  0  0  0  0  0  0  0  0  0  0  0
   15.5105   -5.7971   42.6535 O   0  0  0  0  0  0  0  0  0  0  0  0
   14.5432   -8.3190   41.9013 O   0  0  0  0  0  0  0  0  0  0  0  0
  1  2  1  0  0  0  0
  1 12  1  1  0  0  0
  1 13  1  0  0  0  0
  2  3  1  0  0  0  0
  2 10  1  6  0  0  0
  4  3  1  6  0  0  0
  4  5  1  0  0  0  0
  4 14  1  0  0  0  0
  5  6  1  0  0  0  0
  5 13  1  6  0  0  0
  6  7  1  0  0  0  0
  6 15  1  6  0  0  0
  7  8  1  0  0  0  0
  7 11  1  1  0  0  0
  8 14  1  0  0  0  0
  8 16  1  1  0  0  0
  9 11  1  0  0  0  0
 17 16  1  1  0  0  0
 17 18  1  0  0  0  0
 17 24  1  0  0  0  0
 18 19  1  0  0  0  0
 18 25  1  1  0  0  0
 19 20  1  0  0  0  0
 19 26  1  1  0  0  0
 20 21  1  0  0  0  0
 20 23  1  1  0  0  0
 21 22  1  6  0  0  0
 21 24  1  0  0  0  0
 22 27  1  0  0  0  0
 28 12  1  6  0  0  0
 28 29  1  0  0  0  0
 28 33  1  0  0  0  0
 29 30  1  0  0  0  0
 29 36  1  1  0  0  0
 30 31  1  0  0  0  0
 30 37  1  6  0  0  0
 31 32  1  0  0  0  0
 31 34  1  1  0  0  0
 32 33  1  0  0  0  0
 33 35  1  1  0  0  0
M  END
>  <CHROM.1>
-173.13697942,154.67381472,176.38543876,175.66707212,-62.47238904,82.67321851
19.53260454,-4.24208806,46.80881477,2.63406850,0.89948005,3.03307852

>  <Name>
2oe8_lig

>  <RI>
0

>  <Rbt.Current_Directory>
/home/itssahil/PROJECTS/Mol_Feturizer/New_Systems/rnas/2oe8

>  <Rbt.Executable>
rbdock ($Id: //depot/dev/client3/rdock/2013.1/src/exe/rbdock.cxx#4 $)

>  <Rbt.Library>
libRbt.so (2013.1, Build901 2013/11/27)

>  <Rbt.Parameter_File>
/export/apps/rDock/src/rDock_2013.1_src/data/scripts/dock_solv.prm

>  <Rbt.Receptor>
prm/blind_docking_80.prm

>  <SCORE>
-18.7978

>  <SCORE.INTER>
-12.6392

>  <SCORE.INTER.CONST>
1

>  <SCORE.INTER.POLAR>
-0.809526

>  <SCORE.INTER.ROT>
6

>  <SCORE.INTER.SOLV>
11.14

>  <SCORE.INTER.VDW>
-17.041

>  <SCORE.INTER.norm>
-0.341599

>  <SCORE.INTRA>
-6.15869

>  <SCORE.INTRA.DIHEDRAL>
-13.222

>  <SCORE.INTRA.DIHEDRAL.0>
16.4056

>  <SCORE.INTRA.POLAR>
0

>  <SCORE.INTRA.POLAR.0>
0

>  <SCORE.INTRA.REPUL>
0

>  <SCORE.INTRA.REPUL.0>
0

>  <SCORE.INTRA.SOLV>
-1.42374

>  <SCORE.INTRA.SOLV.lig_0>
-90.9627

>  <SCORE.INTRA.VDW>
1.16417

>  <SCORE.INTRA.VDW.0>
-3.28744

>  <SCORE.INTRA.norm>
-0.166451

>  <SCORE.RESTR>
0

>  <SCORE.RESTR.CAVITY>
0

>  <SCORE.RESTR.norm>
0

>  <SCORE.SYSTEM>
0

>  <SCORE.SYSTEM.CONST>
0

>  <SCORE.SYSTEM.DIHEDRAL>
0

>  <SCORE.SYSTEM.SOLV>
0

>  <SCORE.SYSTEM.norm>
0

>  <SCORE.heavy>
37

>  <SCORE.norm>
-0.50805

>  <RMSD>
10.868

$$$$
2oe8_lig
 OpenBabel11021811463D
libRbt.so/2013.1/901 2013/11/27
 37 40  0  0  0  0  0  0  0  0999 V2000
   17.4989   -4.2078   44.0200 C   0  0  1  0  0  0  0  0  0  0  0  0
   18.5997   -3.1845   43.5462 C   0  0  1  0  0  0  0  0  0  0  0  0
   19.8617   -3.3521   44.4178 C   0  0  0  0  0  0  0  0  0  0  0  0
   19.4152   -3.0662   45.8857 C   0  0  1  0  0  0  0  0  0  0  0  0
   18.2723   -4.0943   46.3784 C   0  0  1  0  0  0  0  0  0  0  0  0
   17.8075   -3.8038   47.8357 C   0  0  1  0  0  0  0  0  0  0  0  0
   19.0859   -3.8953   48.7652 C   0  0  1  0  0  0  0  0  0  0  0  0
   20.1808   -2.9140   48.2192 C   0  0  2  0  0  0  0  0  0  0  0  0
   19.6647   -4.0126   51.3241 C   0  0  0  0  0  0  0  0  0  0  0  0
   18.9469   -3.4153   42.1080 N   0  0  0  0  0  0  0  0  0  0  0  0
   18.7379   -3.5777   50.2169 N   0  0  0  0  0  0  0  0  0  0  0  0
   17.9372   -5.5641   43.8705 O   0  0  0  0  0  0  0  0  0  0  0  0
   17.1351   -3.9995   45.4525 O   0  0  0  0  0  0  0  0  0  0  0  0
   20.5482   -3.1793   46.7971 O   0  0  0  0  0  0  0  0  0  0  0  0
   17.2242   -2.4997   47.8386 O   0  0  0  0  0  0  0  0  0  0  0  0
   21.3191   -3.0378   48.9913 O   0  0  0  0  0  0  0  0  0  0  0  0
   22.4493   -2.3277   48.4572 C   0  0  2  0  0  0  0  0  0  0  0  0
   23.7582   -2.8328   49.1109 C   0  0  1  0  0  0  0  0  0  0  0  0
   23.8170   -2.4889   50.6309 C   0  0  2  0  0  0  0  0  0  0  0  0
   23.6992   -0.9469   50.8148 C   0  0  1  0  0  0  0  0  0  0  0  0
   22.3051   -0.5142   50.1965 C   0  0  1  0  0  0  0  0  0  0  0  0
   22.0760    0.9910   50.3014 C   0  0  0  0  0  0  0  0  0  0  0  0
   23.7555   -0.6156   52.2672 N   0  0  0  0  0  0  0  0  0  0  0  0
   22.2914   -0.8764   48.7350 O   0  0  0  0  0  0  0  0  0  0  0  0
   23.8327   -4.2520   48.8759 O   0  0  0  0  0  0  0  0  0  0  0  0
   25.0553   -2.9366   51.1414 O   0  0  0  0  0  0  0  0  0  0  0  0
   20.8156    1.3096   49.7732 O   0  0  0  0  0  0  0  0  0  0  0  0
   16.8883   -6.5084   43.9327 C   0  0  1  0  0  0  0  0  0  0  0  0
   16.2137   -6.5797   42.5250 C   0  0  1  0  0  0  0  0  0  0  0  0
   15.0348   -7.5942   42.5876 C   0  0  2  0  0  0  0  0  0  0  0  0
   15.5422   -9.0085   43.0069 C   0  0  1  0  0  0  0  0  0  0  0  0
   16.2346   -8.9442   44.4216 C   0  0  0  0  0  0  0  0  0  0  0  0
   17.4380   -7.9151   44.3519 C   0  0  2  0  0  0  0  0  0  0  0  0
   14.3967   -9.9583   43.0648 N   0  0  0  0  0  0  0  0  0  0  0  0
   18.0845   -7.8638   45.6825 N   0  0  0  0  0  0  0  0  0  0  0  0
   15.7027   -5.2871   42.1491 O   0  0  0  0  0  0  0  0  0  0  0  0
   14.4459   -7.6447   41.2985 O   0  0  0  0  0  0  0  0  0  0  0  0
  1  2  1  0  0  0  0
  1 12  1  1  0  0  0
  1 13  1  0  0  0  0
  2  3  1  0  0  0  0
  2 10  1  6  0  0  0
  4  3  1  6  0  0  0
  4  5  1  0  0  0  0
  4 14  1  0  0  0  0
  5  6  1  0  0  0  0
  5 13  1  6  0  0  0
  6  7  1  0  0  0  0
  6 15  1  6  0  0  0
  7  8  1  0  0  0  0
  7 11  1  1  0  0  0
  8 14  1  0  0  0  0
  8 16  1  1  0  0  0
  9 11  1  0  0  0  0
 17 16  1  1  0  0  0
 17 18  1  0  0  0  0
 17 24  1  0  0  0  0
 18 19  1  0  0  0  0
 18 25  1  1  0  0  0
 19 20  1  0  0  0  0
 19 26  1  6  0  0  0
 20 21  1  0  0  0  0
 20 23  1  1  0  0  0
 21 22  1  6  0  0  0
 21 24  1  0  0  0  0
 22 27  1  0  0  0  0
 28 12  1  6  0  0  0
 28 29  1  0  0  0  0
 28 33  1  0  0  0  0
 29 30  1  0  0  0  0
 29 36  1  1  0  0  0
 30 31  1  0  0  0  0
 30 37  1  6  0  0  0
 31 32  1  0  0  0  0
 31 34  1  1  0  0  0
 32 33  1  0  0  0  0
 33 35  1  1  0  0  0
M  END
>  <CHROM.1>
-163.86872934,160.86573039,171.33767694,-163.33079934,-178.40901735,82.09499155
19.36879266,-4.03915013,46.74970226,2.88531907,0.91519544,2.79264130

>  <Name>
2oe8_lig

>  <RI>
0

>  <Rbt.Current_Directory>
/home/itssahil/PROJECTS/Mol_Feturizer/New_Systems/rnas/2oe8

>  <Rbt.Executable>
rbdock ($Id: //depot/dev/client3/rdock/2013.1/src/exe/rbdock.cxx#4 $)

>  <Rbt.Library>
libRbt.so (2013.1, Build901 2013/11/27)

>  <Rbt.Parameter_File>
/export/apps/rDock/src/rDock_2013.1_src/data/scripts/dock_solv.prm

>  <Rbt.Receptor>
prm/blind_docking_60.prm

>  <SCORE>
-16.1211

>  <SCORE.INTER>
-10.4932

>  <SCORE.INTER.CONST>
1

>  <SCORE.INTER.POLAR>
-0.391343

>  <SCORE.INTER.ROT>
6

>  <SCORE.INTER.SOLV>
12.0538

>  <SCORE.INTER.VDW>
-17.3089

>  <SCORE.INTER.norm>
-0.2836

>  <SCORE.INTRA>
-5.6312

>  <SCORE.INTRA.DIHEDRAL>
-11.0512

>  <SCORE.INTRA.DIHEDRAL.0>
16.4056

>  <SCORE.INTRA.POLAR>
0

>  <SCORE.INTRA.POLAR.0>
0

>  <SCORE.INTRA.REPUL>
0

>  <SCORE.INTRA.REPUL.0>
0

>  <SCORE.INTRA.SOLV>
-2.4224

>  <SCORE.INTRA.SOLV.lig_0>
-90.9627

>  <SCORE.INTRA.VDW>
1.10562

>  <SCORE.INTRA.VDW.0>
-3.28744

>  <SCORE.INTRA.norm>
-0.152195

>  <SCORE.RESTR>
0.00328279

>  <SCORE.RESTR.CAVITY>
0.00328279

>  <SCORE.RESTR.norm>
8.8724e-05

>  <SCORE.SYSTEM>
0

>  <SCORE.SYSTEM.CONST>
0

>  <SCORE.SYSTEM.DIHEDRAL>
0

>  <SCORE.SYSTEM.SOLV>
0

>  <SCORE.SYSTEM.norm>
0

>  <SCORE.heavy>
37

>  <SCORE.norm>
-0.435706

>  <RMSD>
10.872

$$$$
2oe8_lig
 OpenBabel11021811463D
libRbt.so/2013.1/901 2013/11/27
 37 40  0  0  0  0  0  0  0  0999 V2000
   16.5901   -4.1740   44.4689 C   0  0  1  0  0  0  0  0  0  0  0  0
   16.1882   -4.7192   45.8918 C   0  0  1  0  0  0  0  0  0  0  0  0
   16.7188   -3.7577   46.9756 C   0  0  0  0  0  0  0  0  0  0  0  0
   18.2691   -3.7199   46.7994 C   0  0  1  0  0  0  0  0  0  0  0  0
   18.6960   -3.1826   45.3382 C   0  0  1  0  0  0  0  0  0  0  0  0
   20.2410   -3.1600   45.1474 C   0  0  1  0  0  0  0  0  0  0  0  0
   20.8428   -2.2371   46.2846 C   0  0  1  0  0  0  0  0  0  0  0  0
   20.3629   -2.7725   47.6785 C   0  0  2  0  0  0  0  0  0  0  0  0
   23.1365   -1.2845   47.1379 C   0  0  0  0  0  0  0  0  0  0  0  0
   14.6999   -4.8365   46.0080 N   0  0  0  0  0  0  0  0  0  0  0  0
   22.3664   -2.1891   46.2091 N   0  0  0  0  0  0  0  0  0  0  0  0
   16.0116   -2.8883   44.2115 O   0  0  0  0  0  0  0  0  0  0  0  0
   18.0705   -4.0465   44.3273 O   0  0  0  0  0  0  0  0  0  0  0  0
   18.8769   -2.8469   47.7972 O   0  0  0  0  0  0  0  0  0  0  0  0
   20.6962   -4.5106   45.2442 O   0  0  0  0  0  0  0  0  0  0  0  0
   20.8353   -1.9329   48.6680 O   0  0  0  0  0  0  0  0  0  0  0  0
   20.4508   -2.3405   49.9919 C   0  0  2  0  0  0  0  0  0  0  0  0
   20.3469   -1.1090   50.9237 C   0  0  1  0  0  0  0  0  0  0  0  0
   21.7359   -0.4387   51.1551 C   0  0  2  0  0  0  0  0  0  0  0  0
   22.7148   -1.4818   51.7705 C   0  0  1  0  0  0  0  0  0  0  0  0
   22.8340   -2.6720   50.7301 C   0  0  1  0  0  0  0  0  0  0  0  0
   23.7616   -3.7763   51.2290 C   0  0  0  0  0  0  0  0  0  0  0  0
   24.0435   -0.8433   51.9929 N   0  0  0  0  0  0  0  0  0  0  0  0
   21.4700   -3.2780   50.5310 O   0  0  0  0  0  0  0  0  0  0  0  0
   19.4024   -0.2001   50.3264 O   0  0  0  0  0  0  0  0  0  0  0  0
   21.5661    0.6412   52.0492 O   0  0  0  0  0  0  0  0  0  0  0  0
   23.8438   -4.7898   50.2619 O   0  0  0  0  0  0  0  0  0  0  0  0
   15.7041   -2.6679   42.8504 C   0  0  1  0  0  0  0  0  0  0  0  0
   16.9865   -2.9632   42.0078 C   0  0  1  0  0  0  0  0  0  0  0  0
   16.6708   -2.6936   40.5076 C   0  0  2  0  0  0  0  0  0  0  0  0
   15.4938   -3.5931   40.0186 C   0  0  1  0  0  0  0  0  0  0  0  0
   14.1981   -3.3100   40.8706 C   0  0  0  0  0  0  0  0  0  0  0  0
   14.5220   -3.5916   42.3964 C   0  0  2  0  0  0  0  0  0  0  0  0
   15.2077   -3.3130   38.5842 N   0  0  0  0  0  0  0  0  0  0  0  0
   13.2997   -3.3272   43.1884 N   0  0  0  0  0  0  0  0  0  0  0  0
   18.0662   -2.1058   42.4229 O   0  0  0  0  0  0  0  0  0  0  0  0
   17.8465   -2.9753   39.7665 O   0  0  0  0  0  0  0  0  0  0  0  0
  1  2  1  0  0  0  0
  1 12  1  1  0  0  0
  1 13  1  0  0  0  0
  2  3  1  0  0  0  0
  2 10  1  6  0  0  0
  4  3  1  6  0  0  0
  4  5  1  0  0  0  0
  4 14  1  0  0  0  0
  5  6  1  0  0  0  0
  5 13  1  6  0  0  0
  6  7  1  0  0  0  0
  6 15  1  1  0  0  0
  7  8  1  0  0  0  0
  7 11  1  1  0  0  0
  8 14  1  0  0  0  0
  8 16  1  1  0  0  0
  9 11  1  0  0  0  0
 17 16  1  6  0  0  0
 17 18  1  0  0  0  0
 17 24  1  0  0  0  0
 18 19  1  0  0  0  0
 18 25  1  6  0  0  0
 19 20  1  0  0  0  0
 19 26  1  1  0  0  0
 20 21  1  0  0  0  0
 20 23  1  6  0  0  0
 21 22  1  1  0  0  0
 21 24  1  0  0  0  0
 22 27  1  0  0  0  0
 28 12  1  1  0  0  0
 28 29  1  0  0  0  0
 28 33  1  0  0  0  0
 29 30  1  0  0  0  0
 29 36  1  1  0  0  0
 30 31  1  0  0  0  0
 30 37  1  6  0  0  0
 31 32  1  0  0  0  0
 31 34  1  6  0  0  0
 32 33  1  0  0  0  0
 33 35  1  1  0  0  0
M  END
>  <CHROM.1>
-147.79226496,175.44867132,-179.85813366,-151.20714720,-179.12508302,-52.59356525
19.03921385,-2.77649146,46.29581341,2.19670831,-0.07420145,-1.68284041

>  <Name>
2oe8_lig

>  <RI>
0

>  <Rbt.Current_Directory>
/home/itssahil/PROJECTS/Mol_Feturizer/New_Systems/rnas/2oe8

>  <Rbt.Executable>
rbdock ($Id: //depot/dev/client3/rdock/2013.1/src/exe/rbdock.cxx#4 $)

>  <Rbt.Library>
libRbt.so (2013.1, Build901 2013/11/27)

>  <Rbt.Parameter_File>
/export/apps/rDock/src/rDock_2013.1_src/data/scripts/dock_solv.prm

>  <Rbt.Receptor>
prm/blind_docking_60.prm

>  <SCORE>
-26.5293

>  <SCORE.INTER>
-24.186

>  <SCORE.INTER.CONST>
1

>  <SCORE.INTER.POLAR>
-3.11993

>  <SCORE.INTER.ROT>
6

>  <SCORE.INTER.SOLV>
16.277

>  <SCORE.INTER.VDW>
-18.7499

>  <SCORE.INTER.norm>
-0.653676

>  <SCORE.INTRA>
-2.34328

>  <SCORE.INTRA.DIHEDRAL>
-8.69014

>  <SCORE.INTRA.DIHEDRAL.0>
16.4056

>  <SCORE.INTRA.POLAR>
0

>  <SCORE.INTRA.POLAR.0>
0

>  <SCORE.INTRA.REPUL>
0

>  <SCORE.INTRA.REPUL.0>
0

>  <SCORE.INTRA.SOLV>
-0.895449

>  <SCORE.INTRA.SOLV.lig_0>
-90.9627

>  <SCORE.INTRA.VDW>
2.44951

>  <SCORE.INTRA.VDW.0>
-3.28744

>  <SCORE.INTRA.norm>
-0.063332

>  <SCORE.RESTR>
0

>  <SCORE.RESTR.CAVITY>
0

>  <SCORE.RESTR.norm>
0

>  <SCORE.SYSTEM>
0

>  <SCORE.SYSTEM.CONST>
0

>  <SCORE.SYSTEM.DIHEDRAL>
0

>  <SCORE.SYSTEM.SOLV>
0

>  <SCORE.SYSTEM.norm>
0

>  <SCORE.heavy>
37

>  <SCORE.norm>
-0.717008

>  <RMSD>
10.887

$$$$
2oe8_lig
 OpenBabel11021811463D
libRbt.so/2013.1/901 2013/11/27
 37 40  0  0  0  0  0  0  0  0999 V2000
   16.7969   -5.4581   45.2352 C   0  0  1  0  0  0  0  0  0  0  0  0
   15.9758   -5.6492   46.5667 C   0  0  1  0  0  0  0  0  0  0  0  0
   16.1329   -4.3927   47.4482 C   0  0  0  0  0  0  0  0  0  0  0  0
   17.6603   -4.2554   47.7381 C   0  0  1  0  0  0  0  0  0  0  0  0
   18.5171   -4.0795   46.3813 C   0  0  1  0  0  0  0  0  0  0  0  0
   20.0442   -3.9611   46.6604 C   0  0  1  0  0  0  0  0  0  0  0  0
   20.2526   -2.7211   47.6227 C   0  0  1  0  0  0  0  0  0  0  0  0
   19.3664   -2.9176   48.9017 C   0  0  2  0  0  0  0  0  0  0  0  0
   22.4326   -3.6310   48.7699 C   0  0  0  0  0  0  0  0  0  0  0  0
   14.5267   -5.8727   46.2624 N   0  0  0  0  0  0  0  0  0  0  0  0
   21.7231   -2.5502   47.9938 N   0  0  0  0  0  0  0  0  0  0  0  0
   16.3160   -4.3447   44.4716 O   0  0  0  0  0  0  0  0  0  0  0  0
   18.2462   -5.2323   45.5110 O   0  0  0  0  0  0  0  0  0  0  0  0
   17.9184   -3.0991   48.5887 O   0  0  0  0  0  0  0  0  0  0  0  0
   20.4586   -5.1904   47.2586 O   0  0  0  0  0  0  0  0  0  0  0  0
   19.4987   -1.8084   49.7136 O   0  0  0  0  0  0  0  0  0  0  0  0
   19.0112   -2.0194   51.0496 C   0  0  2  0  0  0  0  0  0  0  0  0
   18.8699   -0.6671   51.7891 C   0  0  1  0  0  0  0  0  0  0  0  0
   20.2541    0.0111   52.0262 C   0  0  2  0  0  0  0  0  0  0  0  0
   21.1620   -0.9470   52.8527 C   0  0  1  0  0  0  0  0  0  0  0  0
   21.3273   -2.2740   52.0012 C   0  0  1  0  0  0  0  0  0  0  0  0
   22.1909   -3.3086   52.7173 C   0  0  0  0  0  0  0  0  0  0  0  0
   22.4859   -0.3008   53.0809 N   0  0  0  0  0  0  0  0  0  0  0  0
   19.9672   -2.8843   51.7887 O   0  0  0  0  0  0  0  0  0  0  0  0
   17.9919    0.1603   51.0020 O   0  0  0  0  0  0  0  0  0  0  0  0
   20.0462    1.2088   52.7450 O   0  0  0  0  0  0  0  0  0  0  0  0
   22.7299   -4.1991   51.7763 O   0  0  0  0  0  0  0  0  0  0  0  0
   16.8093   -4.3103   43.1482 C   0  0  1  0  0  0  0  0  0  0  0  0
   15.8291   -5.1228   42.2423 C   0  0  1  0  0  0  0  0  0  0  0  0
   16.3776   -5.1197   40.7856 C   0  0  2  0  0  0  0  0  0  0  0  0
   16.5146   -3.6618   40.2479 C   0  0  1  0  0  0  0  0  0  0  0  0
   17.4933   -2.8309   41.1625 C   0  0  0  0  0  0  0  0  0  0  0  0
   16.9280   -2.8312   42.6432 C   0  0  2  0  0  0  0  0  0  0  0  0
   17.0456   -3.6853   38.8568 N   0  0  0  0  0  0  0  0  0  0  0  0
   17.8505   -2.0461   43.4941 N   0  0  0  0  0  0  0  0  0  0  0  0
   15.7309   -6.4827   42.7052 O   0  0  0  0  0  0  0  0  0  0  0  0
   15.4679   -5.8562   39.9850 O   0  0  0  0  0  0  0  0  0  0  0  0
  1  2  1  0  0  0  0
  1 12  1  1  0  0  0
  1 13  1  0  0  0  0
  2  3  1  0  0  0  0
  2 10  1  6  0  0  0
  4  3  1  6  0  0  0
  4  5  1  0  0  0  0
  4 14  1  0  0  0  0
  5  6  1  0  0  0  0
  5 13  1  6  0  0  0
  6  7  1  0  0  0  0
  6 15  1  1  0  0  0
  7  8  1  0  0  0  0
  7 11  1  1  0  0  0
  8 14  1  0  0  0  0
  8 16  1  1  0  0  0
  9 11  1  0  0  0  0
 17 16  1  6  0  0  0
 17 18  1  0  0  0  0
 17 24  1  0  0  0  0
 18 19  1  0  0  0  0
 18 25  1  6  0  0  0
 19 20  1  0  0  0  0
 19 26  1  1  0  0  0
 20 21  1  0  0  0  0
 20 23  1  6  0  0  0
 21 22  1  1  0  0  0
 21 24  1  0  0  0  0
 22 27  1  0  0  0  0
 28 12  1  1  0  0  0
 28 29  1  0  0  0  0
 28 33  1  0  0  0  0
 29 30  1  0  0  0  0
 29 36  1  1  0  0  0
 30 31  1  0  0  0  0
 30 37  1  6  0  0  0
 31 32  1  0  0  0  0
 31 34  1  6  0  0  0
 32 33  1  0  0  0  0
 33 35  1  1  0  0  0
M  END
>  <CHROM.1>
-166.61986454,-62.98170915,-165.07870434,-166.25963345,-157.32607565,89.38027345
18.60844743,-3.31247184,47.15084454,1.99683472,0.31482539,-2.01930279

>  <Name>
2oe8_lig

>  <RI>
0

>  <Rbt.Current_Directory>
/home/itssahil/PROJECTS/Mol_Feturizer/New_Systems/rnas/2oe8

>  <Rbt.Executable>
rbdock ($Id: //depot/dev/client3/rdock/2013.1/src/exe/rbdock.cxx#4 $)

>  <Rbt.Library>
libRbt.so (2013.1, Build901 2013/11/27)

>  <Rbt.Parameter_File>
/export/apps/rDock/src/rDock_2013.1_src/data/scripts/dock_solv.prm

>  <Rbt.Receptor>
prm/blind_docking_80.prm

>  <SCORE>
-23.5005

>  <SCORE.INTER>
-19.3279

>  <SCORE.INTER.CONST>
1

>  <SCORE.INTER.POLAR>
-2.78854

>  <SCORE.INTER.ROT>
6

>  <SCORE.INTER.SOLV>
18.2416

>  <SCORE.INTER.VDW>
-17.2707

>  <SCORE.INTER.norm>
-0.522375

>  <SCORE.INTRA>
-4.17259

>  <SCORE.INTRA.DIHEDRAL>
-8.43163

>  <SCORE.INTRA.DIHEDRAL.0>
16.4056

>  <SCORE.INTRA.POLAR>
0

>  <SCORE.INTRA.POLAR.0>
0

>  <SCORE.INTRA.REPUL>
0

>  <SCORE.INTRA.REPUL.0>
0

>  <SCORE.INTRA.SOLV>
-1.22981

>  <SCORE.INTRA.SOLV.lig_0>
-90.9627

>  <SCORE.INTRA.VDW>
0.658127

>  <SCORE.INTRA.VDW.0>
-3.28744

>  <SCORE.INTRA.norm>
-0.112773

>  <SCORE.RESTR>
0

>  <SCORE.RESTR.CAVITY>
0

>  <SCORE.RESTR.norm>
0

>  <SCORE.SYSTEM>
0

>  <SCORE.SYSTEM.CONST>
0

>  <SCORE.SYSTEM.DIHEDRAL>
0

>  <SCORE.SYSTEM.SOLV>
0

>  <SCORE.SYSTEM.norm>
0

>  <SCORE.heavy>
37

>  <SCORE.norm>
-0.635148

>  <RMSD>
10.894

$$$$
2oe8_lig
 OpenBabel11021811463D
libRbt.so/2013.1/901 2013/11/27
 37 40  0  0  0  0  0  0  0  0999 V2000
   17.1527   -5.3845   45.2915 C   0  0  1  0  0  0  0  0  0  0  0  0
   16.3195   -5.6256   46.6071 C   0  0  1  0  0  0  0  0  0  0  0  0
   16.3078   -4.3322   47.4484 C   0  0  0  0  0  0  0  0  0  0  0  0
   17.8008   -4.0131   47.7726 C   0  0  1  0  0  0  0  0  0  0  0  0
   18.6720   -3.7839   46.4330 C   0  0  1  0  0  0  0  0  0  0  0  0
   20.1671   -3.4839   46.7471 C   0  0  1  0  0  0  0  0  0  0  0  0
   20.2058   -2.1985   47.6709 C   0  0  1  0  0  0  0  0  0  0  0  0
   19.3101   -2.4541   48.9327 C   0  0  2  0  0  0  0  0  0  0  0  0
   22.6678   -1.5662   47.0112 C   0  0  0  0  0  0  0  0  0  0  0  0
   14.9145   -6.0219   46.2736 N   0  0  0  0  0  0  0  0  0  0  0  0
   21.6361   -1.8500   48.0736 N   0  0  0  0  0  0  0  0  0  0  0  0
   16.5721   -4.3576   44.4776 O   0  0  0  0  0  0  0  0  0  0  0  0
   18.5586   -4.9868   45.5965 O   0  0  0  0  0  0  0  0  0  0  0  0
   17.9016   -2.8088   48.5889 O   0  0  0  0  0  0  0  0  0  0  0  0
   20.6996   -4.6386   47.3981 O   0  0  0  0  0  0  0  0  0  0  0  0
   19.2925   -1.3120   49.7088 O   0  0  0  0  0  0  0  0  0  0  0  0
   18.8192   -1.5404   51.0470 C   0  0  2  0  0  0  0  0  0  0  0  0
   18.8241   -0.2178   51.8510 C   0  0  1  0  0  0  0  0  0  0  0  0
   20.2715    0.3161   52.0795 C   0  0  2  0  0  0  0  0  0  0  0  0
   21.1042   -0.7610   52.8354 C   0  0  1  0  0  0  0  0  0  0  0  0
   21.1230   -2.0553   51.9202 C   0  0  1  0  0  0  0  0  0  0  0  0
   21.9018   -3.1990   52.5637 C   0  0  0  0  0  0  0  0  0  0  0  0
   22.4884   -0.2528   53.0553 N   0  0  0  0  0  0  0  0  0  0  0  0
   19.7066   -2.5251   51.7188 O   0  0  0  0  0  0  0  0  0  0  0  0
   18.0097    0.7246   51.1275 O   0  0  0  0  0  0  0  0  0  0  0  0
   20.1949    1.4922   52.8576 O   0  0  0  0  0  0  0  0  0  0  0  0
   22.0006   -4.2654   51.6569 O   0  0  0  0  0  0  0  0  0  0  0  0
   17.0162   -4.3789   43.1366 C   0  0  1  0  0  0  0  0  0  0  0  0
   16.0281   -5.2639   42.3108 C   0  0  1  0  0  0  0  0  0  0  0  0
   16.5235   -5.3220   40.8363 C   0  0  2  0  0  0  0  0  0  0  0  0
   16.5986   -3.8908   40.2200 C   0  0  1  0  0  0  0  0  0  0  0  0
   17.5851   -2.9871   41.0536 C   0  0  0  0  0  0  0  0  0  0  0  0
   17.0738   -2.9256   42.5526 C   0  0  2  0  0  0  0  0  0  0  0  0
   17.0796   -3.9725   38.8130 N   0  0  0  0  0  0  0  0  0  0  0  0
   18.0031   -2.0724   43.3270 N   0  0  0  0  0  0  0  0  0  0  0  0
   15.9860   -6.5999   42.8460 O   0  0  0  0  0  0  0  0  0  0  0  0
   15.6072   -6.1236   40.1091 O   0  0  0  0  0  0  0  0  0  0  0  0
  1  2  1  0  0  0  0
  1 12  1  1  0  0  0
  1 13  1  0  0  0  0
  2  3  1  0  0  0  0
  2 10  1  6  0  0  0
  4  3  1  6  0  0  0
  4  5  1  0  0  0  0
  4 14  1  0  0  0  0
  5  6  1  0  0  0  0
  5 13  1  6  0  0  0
  6  7  1  0  0  0  0
  6 15  1  1  0  0  0
  7  8  1  0  0  0  0
  7 11  1  1  0  0  0
  8 14  1  0  0  0  0
  8 16  1  1  0  0  0
  9 11  1  0  0  0  0
 17 16  1  6  0  0  0
 17 18  1  0  0  0  0
 17 24  1  0  0  0  0
 18 19  1  0  0  0  0
 18 25  1  6  0  0  0
 19 20  1  0  0  0  0
 19 26  1  1  0  0  0
 20 21  1  0  0  0  0
 20 23  1  6  0  0  0
 21 22  1  1  0  0  0
 21 24  1  0  0  0  0
 22 27  1  0  0  0  0
 28 12  1  1  0  0  0
 28 29  1  0  0  0  0
 28 33  1  0  0  0  0
 29 30  1  0  0  0  0
 29 36  1  1  0  0  0
 30 31  1  0  0  0  0
 30 37  1  6  0  0  0
 31 32  1  0  0  0  0
 31 34  1  6  0  0  0
 32 33  1  0  0  0  0
 33 35  1  1  0  0  0
M  END
>  <CHROM.1>
-161.69615201,58.51907198,-163.83749283,-179.81529238,-174.05499982,91.69197328
18.66508475,-3.09980414,47.11475135,2.13546517,-0.83694066,-1.49158563

>  <Name>
2oe8_lig

>  <RI>
0

>  <Rbt.Current_Directory>
/home/itssahil/PROJECTS/Mol_Feturizer/New_Systems/rnas/2oe8

>  <Rbt.Executable>
rbdock ($Id: //depot/dev/client3/rdock/2013.1/src/exe/rbdock.cxx#4 $)

>  <Rbt.Library>
libRbt.so (2013.1, Build901 2013/11/27)

>  <Rbt.Parameter_File>
/export/apps/rDock/src/rDock_2013.1_src/data/scripts/dock_solv.prm

>  <Rbt.Receptor>
prm/blind_docking_80.prm

>  <SCORE>
-31.0877

>  <SCORE.INTER>
-25.7721

>  <SCORE.INTER.CONST>
1

>  <SCORE.INTER.POLAR>
-3.46835

>  <SCORE.INTER.ROT>
6

>  <SCORE.INTER.SOLV>
19.1926

>  <SCORE.INTER.VDW>
-19.6178

>  <SCORE.INTER.norm>
-0.696544

>  <SCORE.INTRA>
-5.31559

>  <SCORE.INTRA.DIHEDRAL>
-9.57139

>  <SCORE.INTRA.DIHEDRAL.0>
16.4056

>  <SCORE.INTRA.POLAR>
0

>  <SCORE.INTRA.POLAR.0>
0

>  <SCORE.INTRA.REPUL>
0

>  <SCORE.INTRA.REPUL.0>
0

>  <SCORE.INTRA.SOLV>
-1.44612

>  <SCORE.INTRA.SOLV.lig_0>
-90.9627

>  <SCORE.INTRA.VDW>
0.193171

>  <SCORE.INTRA.VDW.0>
-3.28744

>  <SCORE.INTRA.norm>
-0.143664

>  <SCORE.RESTR>
0

>  <SCORE.RESTR.CAVITY>
0

>  <SCORE.RESTR.norm>
0

>  <SCORE.SYSTEM>
0

>  <SCORE.SYSTEM.CONST>
0

>  <SCORE.SYSTEM.DIHEDRAL>
0

>  <SCORE.SYSTEM.SOLV>
0

>  <SCORE.SYSTEM.norm>
0

>  <SCORE.heavy>
37

>  <SCORE.norm>
-0.840208

>  <RMSD>
10.900

$$$$
2oe8_lig
 OpenBabel11021811463D
libRbt.so/2013.1/901 2013/11/27
 37 40  0  0  0  0  0  0  0  0999 V2000
   17.0587   -5.3144   45.2607 C   0  0  1  0  0  0  0  0  0  0  0  0
   16.2102   -5.5344   46.5703 C   0  0  1  0  0  0  0  0  0  0  0  0
   16.2353   -4.2452   47.4176 C   0  0  0  0  0  0  0  0  0  0  0  0
   17.7358   -3.9761   47.7520 C   0  0  1  0  0  0  0  0  0  0  0  0
   18.6220   -3.7690   46.4187 C   0  0  1  0  0  0  0  0  0  0  0  0
   20.1241   -3.5189   46.7430 C   0  0  1  0  0  0  0  0  0  0  0  0
   20.1988   -2.2397   47.6730 C   0  0  1  0  0  0  0  0  0  0  0  0
   19.2877   -2.4720   48.9284 C   0  0  2  0  0  0  0  0  0  0  0  0
   22.6518   -1.5463   47.0419 C   0  0  0  0  0  0  0  0  0  0  0  0
   14.7952   -5.8835   46.2267 N   0  0  0  0  0  0  0  0  0  0  0  0
   21.6371   -1.9395   48.0858 N   0  0  0  0  0  0  0  0  0  0  0  0
   16.5164   -4.2655   44.4484 O   0  0  0  0  0  0  0  0  0  0  0  0
   18.4748   -4.9637   45.5758 O   0  0  0  0  0  0  0  0  0  0  0  0
   17.8706   -2.7793   48.5747 O   0  0  0  0  0  0  0  0  0  0  0  0
   20.6151   -4.6932   47.3915 O   0  0  0  0  0  0  0  0  0  0  0  0
   19.3024   -1.3335   49.7098 O   0  0  0  0  0  0  0  0  0  0  0  0
   18.8127   -1.5522   51.0437 C   0  0  2  0  0  0  0  0  0  0  0  0
   18.8110   -0.2245   51.8392 C   0  0  1  0  0  0  0  0  0  0  0  0
   20.2567    0.3076   52.0816 C   0  0  2  0  0  0  0  0  0  0  0  0
   21.0779   -0.7665   52.8543 C   0  0  1  0  0  0  0  0  0  0  0  0
   21.1046   -2.0667   51.9476 C   0  0  1  0  0  0  0  0  0  0  0  0
   21.8730   -3.2080   52.6077 C   0  0  0  0  0  0  0  0  0  0  0  0
   22.4605   -0.2600   53.0875 N   0  0  0  0  0  0  0  0  0  0  0  0
   19.6897   -2.5347   51.7323 O   0  0  0  0  0  0  0  0  0  0  0  0
   18.0074    0.7151   51.1001 O   0  0  0  0  0  0  0  0  0  0  0  0
   20.1736    1.4888   52.8512 O   0  0  0  0  0  0  0  0  0  0  0  0
   21.8894   -4.3181   51.7495 O   0  0  0  0  0  0  0  0  0  0  0  0
   16.9459   -4.3114   43.1033 C   0  0  1  0  0  0  0  0  0  0  0  0
   15.8904   -5.1202   42.2827 C   0  0  1  0  0  0  0  0  0  0  0  0
   16.3673   -5.2057   40.8035 C   0  0  2  0  0  0  0  0  0  0  0  0
   16.5379   -3.7804   40.1928 C   0  0  1  0  0  0  0  0  0  0  0  0
   17.5932   -2.9528   41.0212 C   0  0  0  0  0  0  0  0  0  0  0  0
   17.1008   -2.8628   42.5251 C   0  0  2  0  0  0  0  0  0  0  0  0
   16.9994   -3.8887   38.7811 N   0  0  0  0  0  0  0  0  0  0  0  0
   18.0949   -2.0813   43.2946 N   0  0  0  0  0  0  0  0  0  0  0  0
   15.7589   -6.4526   42.8124 O   0  0  0  0  0  0  0  0  0  0  0  0
   15.3903   -5.9370   40.0813 O   0  0  0  0  0  0  0  0  0  0  0  0
  1  2  1  0  0  0  0
  1 12  1  1  0  0  0
  1 13  1  0  0  0  0
  2  3  1  0  0  0  0
  2 10  1  6  0  0  0
  4  3  1  6  0  0  0
  4  5  1  0  0  0  0
  4 14  1  0  0  0  0
  5  6  1  0  0  0  0
  5 13  1  6  0  0  0
  6  7  1  0  0  0  0
  6 15  1  1  0  0  0
  7  8  1  0  0  0  0
  7 11  1  1  0  0  0
  8 14  1  0  0  0  0
  8 16  1  1  0  0  0
  9 11  1  0  0  0  0
 17 16  1  6  0  0  0
 17 18  1  0  0  0  0
 17 24  1  0  0  0  0
 18 19  1  0  0  0  0
 18 25  1  6  0  0  0
 19 20  1  0  0  0  0
 19 26  1  1  0  0  0
 20 21  1  0  0  0  0
 20 23  1  6  0  0  0
 21 22  1  1  0  0  0
 21 24  1  0  0  0  0
 22 27  1  0  0  0  0
 28 12  1  1  0  0  0
 28 29  1  0  0  0  0
 28 33  1  0  0  0  0
 29 30  1  0  0  0  0
 29 36  1  1  0  0  0
 30 31  1  0  0  0  0
 30 37  1  6  0  0  0
 31 32  1  0  0  0  0
 31 34  1  6  0  0  0
 32 33  1  0  0  0  0
 33 35  1  1  0  0  0
M  END
>  <CHROM.1>
-160.45945042,64.74898780,-163.90134126,-177.92324653,-178.66369920,93.26549428
18.61136411,-3.06884314,47.10596217,2.11891561,-0.79383750,-1.50757172

>  <Name>
2oe8_lig

>  <RI>
0

>  <Rbt.Current_Directory>
/home/itssahil/PROJECTS/Mol_Feturizer/New_Systems/rnas/2oe8

>  <Rbt.Executable>
rbdock ($Id: //depot/dev/client3/rdock/2013.1/src/exe/rbdock.cxx#4 $)

>  <Rbt.Library>
libRbt.so (2013.1, Build901 2013/11/27)

>  <Rbt.Parameter_File>
/export/apps/rDock/src/rDock_2013.1_src/data/scripts/dock_solv.prm

>  <Rbt.Receptor>
prm/blind_docking_60.prm

>  <SCORE>
-31.1644

>  <SCORE.INTER>
-25.9264

>  <SCORE.INTER.CONST>
1

>  <SCORE.INTER.POLAR>
-3.52111

>  <SCORE.INTER.ROT>
6

>  <SCORE.INTER.SOLV>
19.0598

>  <SCORE.INTER.VDW>
-19.5005

>  <SCORE.INTER.norm>
-0.700714

>  <SCORE.INTRA>
-5.23795

>  <SCORE.INTRA.DIHEDRAL>
-9.17509

>  <SCORE.INTRA.DIHEDRAL.0>
16.4056

>  <SCORE.INTRA.POLAR>
0

>  <SCORE.INTRA.POLAR.0>
0

>  <SCORE.INTRA.REPUL>
0

>  <SCORE.INTRA.REPUL.0>
0

>  <SCORE.INTRA.SOLV>
-1.37008

>  <SCORE.INTRA.SOLV.lig_0>
-90.9627

>  <SCORE.INTRA.VDW>
0.0346356

>  <SCORE.INTRA.VDW.0>
-3.28744

>  <SCORE.INTRA.norm>
-0.141566

>  <SCORE.RESTR>
0

>  <SCORE.RESTR.CAVITY>
0

>  <SCORE.RESTR.norm>
0

>  <SCORE.SYSTEM>
0

>  <SCORE.SYSTEM.CONST>
0

>  <SCORE.SYSTEM.DIHEDRAL>
0

>  <SCORE.SYSTEM.SOLV>
0

>  <SCORE.SYSTEM.norm>
0

>  <SCORE.heavy>
37

>  <SCORE.norm>
-0.84228

>  <RMSD>
10.909

$$$$
2oe8_lig
 OpenBabel11021811463D
libRbt.so/2013.1/901 2013/11/27
 37 40  0  0  0  0  0  0  0  0999 V2000
   15.7929   -5.4341   44.6780 C   0  0  1  0  0  0  0  0  0  0  0  0
   15.3191   -5.8808   46.1131 C   0  0  1  0  0  0  0  0  0  0  0  0
   15.5016   -4.7081   47.0990 C   0  0  0  0  0  0  0  0  0  0  0  0
   17.0238   -4.3640   47.0855 C   0  0  1  0  0  0  0  0  0  0  0  0
   17.5286   -3.9243   45.6165 C   0  0  1  0  0  0  0  0  0  0  0  0
   19.0506   -3.5977   45.5902 C   0  0  1  0  0  0  0  0  0  0  0  0
   19.3027   -2.4412   46.6419 C   0  0  1  0  0  0  0  0  0  0  0  0
   18.7551   -2.8982   48.0387 C   0  0  2  0  0  0  0  0  0  0  0  0
   21.7676   -3.0716   47.2924 C   0  0  0  0  0  0  0  0  0  0  0  0
   13.8807   -6.2960   46.0855 N   0  0  0  0  0  0  0  0  0  0  0  0
   20.7836   -2.0809   46.7232 N   0  0  0  0  0  0  0  0  0  0  0  0
   15.0135   -4.3394   44.1798 O   0  0  0  0  0  0  0  0  0  0  0  0
   17.2250   -5.0138   44.6783 O   0  0  0  0  0  0  0  0  0  0  0  0
   17.3102   -3.2710   48.0078 O   0  0  0  0  0  0  0  0  0  0  0  0
   19.7443   -4.8003   45.9265 O   0  0  0  0  0  0  0  0  0  0  0  0
   18.9175   -1.8673   48.9431 O   0  0  0  0  0  0  0  0  0  0  0  0
   18.7797   -2.2840   50.3121 C   0  0  2  0  0  0  0  0  0  0  0  0
   18.9652   -1.0761   51.2620 C   0  0  1  0  0  0  0  0  0  0  0  0
   20.4207   -0.5181   51.2124 C   0  0  2  0  0  0  0  0  0  0  0  0
   21.4191   -1.6488   51.5995 C   0  0  1  0  0  0  0  0  0  0  0  0
   21.2296   -2.8134   50.5406 C   0  0  1  0  0  0  0  0  0  0  0  0
   22.1494   -3.9979   50.8233 C   0  0  0  0  0  0  0  0  0  0  0  0
   22.8113   -1.1177   51.5530 N   0  0  0  0  0  0  0  0  0  0  0  0
   19.8102   -3.3102   50.6176 O   0  0  0  0  0  0  0  0  0  0  0  0
   17.9935   -0.0824   50.8838 O   0  0  0  0  0  0  0  0  0  0  0  0
   20.5222    0.5446   52.1369 O   0  0  0  0  0  0  0  0  0  0  0  0
   21.9864   -4.4085   52.1552 O   0  0  0  0  0  0  0  0  0  0  0  0
   15.2205   -4.0751   42.8075 C   0  0  1  0  0  0  0  0  0  0  0  0
   16.6084   -3.3745   42.6509 C   0  0  1  0  0  0  0  0  0  0  0  0
   16.8357   -3.0488   41.1458 C   0  0  2  0  0  0  0  0  0  0  0  0
   16.7957   -4.3492   40.2850 C   0  0  1  0  0  0  0  0  0  0  0  0
   15.4026   -5.0691   40.4456 C   0  0  0  0  0  0  0  0  0  0  0  0
   15.1779   -5.4045   41.9783 C   0  0  2  0  0  0  0  0  0  0  0  0
   17.0099   -4.0110   38.8506 N   0  0  0  0  0  0  0  0  0  0  0  0
   13.8700   -6.0834   42.1195 N   0  0  0  0  0  0  0  0  0  0  0  0
   16.6388   -2.1497   43.4072 O   0  0  0  0  0  0  0  0  0  0  0  0
   18.1023   -2.4213   41.0312 O   0  0  0  0  0  0  0  0  0  0  0  0
  1  2  1  0  0  0  0
  1 12  1  1  0  0  0
  1 13  1  0  0  0  0
  2  3  1  0  0  0  0
  2 10  1  6  0  0  0
  4  3  1  6  0  0  0
  4  5  1  0  0  0  0
  4 14  1  0  0  0  0
  5  6  1  0  0  0  0
  5 13  1  6  0  0  0
  6  7  1  0  0  0  0
  6 15  1  1  0  0  0
  7  8  1  0  0  0  0
  7 11  1  1  0  0  0
  8 14  1  0  0  0  0
  8 16  1  1  0  0  0
  9 11  1  0  0  0  0
 17 16  1  6  0  0  0
 17 18  1  0  0  0  0
 17 24  1  0  0  0  0
 18 19  1  0  0  0  0
 18 25  1  6  0  0  0
 19 20  1  0  0  0  0
 19 26  1  1  0  0  0
 20 21  1  0  0  0  0
 20 23  1  6  0  0  0
 21 22  1  1  0  0  0
 21 24  1  0  0  0  0
 22 27  1  0  0  0  0
 28 12  1  1  0  0  0
 28 29  1  0  0  0  0
 28 33  1  0  0  0  0
 29 30  1  0  0  0  0
 29 36  1  1  0  0  0
 30 31  1  0  0  0  0
 30 37  1  1  0  0  0
 31 32  1  0  0  0  0
 31 34  1  6  0  0  0
 32 33  1  0  0  0  0
 33 35  1  6  0  0  0
M  END
>  <CHROM.1>
-168.26622910,-67.77089200,-164.63229914,-179.63813349,52.70643668,-74.64477502
18.15531013,-3.34717634,46.54729541,2.13070272,-0.52506614,-1.55030969

>  <Name>
2oe8_lig

>  <RI>
0

>  <Rbt.Current_Directory>
/home/itssahil/PROJECTS/Mol_Feturizer/New_Systems/rnas/2oe8

>  <Rbt.Executable>
rbdock ($Id: //depot/dev/client3/rdock/2013.1/src/exe/rbdock.cxx#4 $)

>  <Rbt.Library>
libRbt.so (2013.1, Build901 2013/11/27)

>  <Rbt.Parameter_File>
/export/apps/rDock/src/rDock_2013.1_src/data/scripts/dock_solv.prm

>  <Rbt.Receptor>
prm/blind_docking_60.prm

>  <SCORE>
-20.3091

>  <SCORE.INTER>
-16.1513

>  <SCORE.INTER.CONST>
1

>  <SCORE.INTER.POLAR>
-2.53443

>  <SCORE.INTER.ROT>
6

>  <SCORE.INTER.SOLV>
17.5791

>  <SCORE.INTER.VDW>
-15.7792

>  <SCORE.INTER.norm>
-0.436522

>  <SCORE.INTRA>
-4.1578

>  <SCORE.INTRA.DIHEDRAL>
-13.3394

>  <SCORE.INTRA.DIHEDRAL.0>
16.4056

>  <SCORE.INTRA.POLAR>
0

>  <SCORE.INTRA.POLAR.0>
0

>  <SCORE.INTRA.REPUL>
0

>  <SCORE.INTRA.REPUL.0>
0

>  <SCORE.INTRA.SOLV>
-0.455948

>  <SCORE.INTRA.SOLV.lig_0>
-90.9627

>  <SCORE.INTRA.VDW>
2.73985

>  <SCORE.INTRA.VDW.0>
-3.28744

>  <SCORE.INTRA.norm>
-0.112373

>  <SCORE.RESTR>
0

>  <SCORE.RESTR.CAVITY>
0

>  <SCORE.RESTR.norm>
0

>  <SCORE.SYSTEM>
0

>  <SCORE.SYSTEM.CONST>
0

>  <SCORE.SYSTEM.DIHEDRAL>
0

>  <SCORE.SYSTEM.SOLV>
0

>  <SCORE.SYSTEM.norm>
0

>  <SCORE.heavy>
37

>  <SCORE.norm>
-0.548895

>  <RMSD>
10.913

$$$$
2oe8_lig
 OpenBabel11021811463D
libRbt.so/2013.1/901 2013/11/27
 37 40  0  0  0  0  0  0  0  0999 V2000
   17.1044   -5.3113   45.3012 C   0  0  1  0  0  0  0  0  0  0  0  0
   16.2892   -5.5659   46.6256 C   0  0  1  0  0  0  0  0  0  0  0  0
   16.2917   -4.2821   47.4815 C   0  0  0  0  0  0  0  0  0  0  0  0
   17.7897   -3.9693   47.7883 C   0  0  1  0  0  0  0  0  0  0  0  0
   18.6425   -3.7264   46.4393 C   0  0  1  0  0  0  0  0  0  0  0  0
   20.1424   -3.4325   46.7358 C   0  0  1  0  0  0  0  0  0  0  0  0
   20.1965   -2.1578   47.6734 C   0  0  1  0  0  0  0  0  0  0  0  0
   19.3181   -2.4262   48.9447 C   0  0  2  0  0  0  0  0  0  0  0  0
   22.6670   -1.5920   46.9856 C   0  0  0  0  0  0  0  0  0  0  0  0
   14.8789   -5.9559   46.3074 N   0  0  0  0  0  0  0  0  0  0  0  0
   21.6329   -1.8163   48.0600 N   0  0  0  0  0  0  0  0  0  0  0  0
   16.5143   -4.2742   44.5072 O   0  0  0  0  0  0  0  0  0  0  0  0
   18.5151   -4.9195   45.5909 O   0  0  0  0  0  0  0  0  0  0  0  0
   17.9042   -2.7744   48.6168 O   0  0  0  0  0  0  0  0  0  0  0  0
   20.6818   -4.5955   47.3661 O   0  0  0  0  0  0  0  0  0  0  0  0
   19.3135   -1.2929   49.7339 O   0  0  0  0  0  0  0  0  0  0  0  0
   18.9600   -1.5539   51.1028 C   0  0  2  0  0  0  0  0  0  0  0  0
   18.9199   -0.2326   51.9080 C   0  0  1  0  0  0  0  0  0  0  0  0
   20.3336    0.4144   52.0304 C   0  0  2  0  0  0  0  0  0  0  0  0
   21.3022   -0.5914   52.7196 C   0  0  1  0  0  0  0  0  0  0  0  0
   21.3553   -1.8829   51.8018 C   0  0  1  0  0  0  0  0  0  0  0  0
   22.2673   -2.9598   52.3827 C   0  0  0  0  0  0  0  0  0  0  0  0
   22.6545    0.0250   52.8380 N   0  0  0  0  0  0  0  0  0  0  0  0
   19.9694   -2.4636   51.7042 O   0  0  0  0  0  0  0  0  0  0  0  0
   17.9825    0.6405   51.2493 O   0  0  0  0  0  0  0  0  0  0  0  0
   20.2222    1.5831   52.8153 O   0  0  0  0  0  0  0  0  0  0  0  0
   21.9267   -3.1861   53.7251 O   0  0  0  0  0  0  0  0  0  0  0  0
   16.9765   -4.2505   43.1725 C   0  0  1  0  0  0  0  0  0  0  0  0
   16.0174   -5.1321   42.3096 C   0  0  1  0  0  0  0  0  0  0  0  0
   16.5334   -5.1405   40.8411 C   0  0  2  0  0  0  0  0  0  0  0  0
   16.5881   -3.6920   40.2644 C   0  0  1  0  0  0  0  0  0  0  0  0
   17.5451   -2.7919   41.1355 C   0  0  0  0  0  0  0  0  0  0  0  0
   17.0127   -2.7810   42.6284 C   0  0  2  0  0  0  0  0  0  0  0  0
   17.0893   -3.7261   38.8625 N   0  0  0  0  0  0  0  0  0  0  0  0
   17.9143   -1.9310   43.4382 N   0  0  0  0  0  0  0  0  0  0  0  0
   15.9951   -6.4827   42.8082 O   0  0  0  0  0  0  0  0  0  0  0  0
   15.6431   -5.9400   40.0801 O   0  0  0  0  0  0  0  0  0  0  0  0
  1  2  1  0  0  0  0
  1 12  1  1  0  0  0
  1 13  1  0  0  0  0
  2  3  1  0  0  0  0
  2 10  1  6  0  0  0
  4  3  1  6  0  0  0
  4  5  1  0  0  0  0
  4 14  1  0  0  0  0
  5  6  1  0  0  0  0
  5 13  1  6  0  0  0
  6  7  1  0  0  0  0
  6 15  1  1  0  0  0
  7  8  1  0  0  0  0
  7 11  1  1  0  0  0
  8 14  1  0  0  0  0
  8 16  1  1  0  0  0
  9 11  1  0  0  0  0
 17 16  1  6  0  0  0
 17 18  1  0  0  0  0
 17 24  1  0  0  0  0
 18 19  1  0  0  0  0
 18 25  1  6  0  0  0
 19 20  1  0  0  0  0
 19 26  1  1  0  0  0
 20 21  1  0  0  0  0
 20 23  1  6  0  0  0
 21 22  1  1  0  0  0
 21 24  1  0  0  0  0
 22 27  1  0  0  0  0
 28 12  1  1  0  0  0
 28 29  1  0  0  0  0
 28 33  1  0  0  0  0
 29 30  1  0  0  0  0
 29 36  1  1  0  0  0
 30 31  1  0  0  0  0
 30 37  1  6  0  0  0
 31 32  1  0  0  0  0
 31 34  1  6  0  0  0
 32 33  1  0  0  0  0
 33 35  1  1  0  0  0
M  END
>  <CHROM.1>
-163.89228356,55.37453372,-159.22026869,-177.67939378,50.57757642,91.68162546
18.69057035,-2.97691289,47.17674229,2.12579330,-0.79733473,-1.50504125

>  <Name>
2oe8_lig

>  <RI>
0

>  <Rbt.Current_Directory>
/home/itssahil/PROJECTS/Mol_Feturizer/New_Systems/rnas/2oe8

>  <Rbt.Executable>
rbdock ($Id: //depot/dev/client3/rdock/2013.1/src/exe/rbdock.cxx#4 $)

>  <Rbt.Library>
libRbt.so (2013.1, Build901 2013/11/27)

>  <Rbt.Parameter_File>
/export/apps/rDock/src/rDock_2013.1_src/data/scripts/dock_solv.prm

>  <Rbt.Receptor>
prm/blind_docking_80.prm

>  <SCORE>
-29.4359

>  <SCORE.INTER>
-25.0446

>  <SCORE.INTER.CONST>
1

>  <SCORE.INTER.POLAR>
-3.53868

>  <SCORE.INTER.ROT>
6

>  <SCORE.INTER.SOLV>
19.9479

>  <SCORE.INTER.VDW>
-19.1501

>  <SCORE.INTER.norm>
-0.676881

>  <SCORE.INTRA>
-4.3913

>  <SCORE.INTRA.DIHEDRAL>
-8.95496

>  <SCORE.INTRA.DIHEDRAL.0>
16.4056

>  <SCORE.INTRA.POLAR>
0

>  <SCORE.INTRA.POLAR.0>
0

>  <SCORE.INTRA.REPUL>
0

>  <SCORE.INTRA.REPUL.0>
0

>  <SCORE.INTRA.SOLV>
-0.577791

>  <SCORE.INTRA.SOLV.lig_0>
-90.9627

>  <SCORE.INTRA.VDW>
0.37507

>  <SCORE.INTRA.VDW.0>
-3.28744

>  <SCORE.INTRA.norm>
-0.118684

>  <SCORE.RESTR>
0

>  <SCORE.RESTR.CAVITY>
0

>  <SCORE.RESTR.norm>
0

>  <SCORE.SYSTEM>
0

>  <SCORE.SYSTEM.CONST>
0

>  <SCORE.SYSTEM.DIHEDRAL>
0

>  <SCORE.SYSTEM.SOLV>
0

>  <SCORE.SYSTEM.norm>
0

>  <SCORE.heavy>
37

>  <SCORE.norm>
-0.795565

>  <RMSD>
10.913

$$$$
2oe8_lig
 OpenBabel11021811463D
libRbt.so/2013.1/901 2013/11/27
 37 40  0  0  0  0  0  0  0  0999 V2000
   16.9817   -5.4070   45.2645 C   0  0  1  0  0  0  0  0  0  0  0  0
   16.2065   -5.6423   46.6162 C   0  0  1  0  0  0  0  0  0  0  0  0
   16.2341   -4.3462   47.4530 C   0  0  0  0  0  0  0  0  0  0  0  0
   17.7405   -4.0291   47.7103 C   0  0  1  0  0  0  0  0  0  0  0  0
   18.5525   -3.8058   46.3331 C   0  0  1  0  0  0  0  0  0  0  0  0
   20.0605   -3.5078   46.5804 C   0  0  1  0  0  0  0  0  0  0  0  0
   20.1421   -2.2196   47.4973 C   0  0  1  0  0  0  0  0  0  0  0  0
   19.3021   -2.4695   48.7981 C   0  0  2  0  0  0  0  0  0  0  0  0
   22.4319   -2.8470   48.6198 C   0  0  0  0  0  0  0  0  0  0  0  0
   14.7875   -6.0368   46.3459 N   0  0  0  0  0  0  0  0  0  0  0  0
   21.5893   -1.8727   47.8358 N   0  0  0  0  0  0  0  0  0  0  0  0
   16.3678   -4.3815   44.4735 O   0  0  0  0  0  0  0  0  0  0  0  0
   18.4003   -5.0111   45.5063 O   0  0  0  0  0  0  0  0  0  0  0  0
   17.8792   -2.8223   48.5175 O   0  0  0  0  0  0  0  0  0  0  0  0
   20.6189   -4.6616   47.2110 O   0  0  0  0  0  0  0  0  0  0  0  0
   19.3207   -1.3249   49.5705 O   0  0  0  0  0  0  0  0  0  0  0  0
   18.9745   -1.5606   50.9458 C   0  0  2  0  0  0  0  0  0  0  0  0
   18.9315   -0.2239   51.7251 C   0  0  1  0  0  0  0  0  0  0  0  0
   20.3424    0.4323   51.8283 C   0  0  2  0  0  0  0  0  0  0  0  0
   21.3192   -0.5550   52.5328 C   0  0  1  0  0  0  0  0  0  0  0  0
   21.3746   -1.8641   51.6403 C   0  0  1  0  0  0  0  0  0  0  0  0
   22.2945   -2.9248   52.2382 C   0  0  0  0  0  0  0  0  0  0  0  0
   22.6688    0.0702   52.6329 N   0  0  0  0  0  0  0  0  0  0  0  0
   19.9912   -2.4533   51.5605 O   0  0  0  0  0  0  0  0  0  0  0  0
   17.9868    0.6314   51.0537 O   0  0  0  0  0  0  0  0  0  0  0  0
   20.2287    1.6156   52.5907 O   0  0  0  0  0  0  0  0  0  0  0  0
   21.9219   -3.1702   53.5686 O   0  0  0  0  0  0  0  0  0  0  0  0
   16.8587   -4.3168   43.1504 C   0  0  1  0  0  0  0  0  0  0  0  0
   15.8989   -5.1422   42.2344 C   0  0  1  0  0  0  0  0  0  0  0  0
   16.4456   -5.1056   40.7774 C   0  0  2  0  0  0  0  0  0  0  0  0
   16.5443   -3.6375   40.2592 C   0  0  1  0  0  0  0  0  0  0  0  0
   17.5022   -2.7939   41.1841 C   0  0  0  0  0  0  0  0  0  0  0  0
   16.9386   -2.8286   42.6651 C   0  0  2  0  0  0  0  0  0  0  0  0
   17.0743   -3.6288   38.8675 N   0  0  0  0  0  0  0  0  0  0  0  0
   17.8414   -2.0312   43.5257 N   0  0  0  0  0  0  0  0  0  0  0  0
   15.8363   -6.5102   42.6792 O   0  0  0  0  0  0  0  0  0  0  0  0
   15.5544   -5.8546   39.9678 O   0  0  0  0  0  0  0  0  0  0  0  0
  1  2  1  0  0  0  0
  1 12  1  1  0  0  0
  1 13  1  0  0  0  0
  2  3  1  0  0  0  0
  2 10  1  6  0  0  0
  4  3  1  6  0  0  0
  4  5  1  0  0  0  0
  4 14  1  0  0  0  0
  5  6  1  0  0  0  0
  5 13  1  6  0  0  0
  6  7  1  0  0  0  0
  6 15  1  1  0  0  0
  7  8  1  0  0  0  0
  7 11  1  1  0  0  0
  8 14  1  0  0  0  0
  8 16  1  1  0  0  0
  9 11  1  0  0  0  0
 17 16  1  6  0  0  0
 17 18  1  0  0  0  0
 17 24  1  0  0  0  0
 18 19  1  0  0  0  0
 18 25  1  6  0  0  0
 19 20  1  0  0  0  0
 19 26  1  1  0  0  0
 20 21  1  0  0  0  0
 20 23  1  6  0  0  0
 21 22  1  1  0  0  0
 21 24  1  0  0  0  0
 22 27  1  0  0  0  0
 28 12  1  1  0  0  0
 28 29  1  0  0  0  0
 28 33  1  0  0  0  0
 29 30  1  0  0  0  0
 29 36  1  1  0  0  0
 30 31  1  0  0  0  0
 30 37  1  6  0  0  0
 31 32  1  0  0  0  0
 31 34  1  6  0  0  0
 32 33  1  0  0  0  0
 33 35  1  1  0  0  0
M  END
>  <CHROM.1>
-168.09242344,-62.24668468,-160.73475017,-176.49425624,53.23527617,95.52244011
18.63762108,-3.03469793,47.12370355,2.26748412,-0.93153993,-1.33397975

>  <Name>
2oe8_lig

>  <RI>
0

>  <Rbt.Current_Directory>
/home/itssahil/PROJECTS/Mol_Feturizer/New_Systems/rnas/2oe8

>  <Rbt.Executable>
rbdock ($Id: //depot/dev/client3/rdock/2013.1/src/exe/rbdock.cxx#4 $)

>  <Rbt.Library>
libRbt.so (2013.1, Build901 2013/11/27)

>  <Rbt.Parameter_File>
/export/apps/rDock/src/rDock_2013.1_src/data/scripts/dock_solv.prm

>  <Rbt.Receptor>
prm/blind_docking_100.prm

>  <SCORE>
-29.1095

>  <SCORE.INTER>
-25.032

>  <SCORE.INTER.CONST>
1

>  <SCORE.INTER.POLAR>
-3.50628

>  <SCORE.INTER.ROT>
6

>  <SCORE.INTER.SOLV>
19.2435

>  <SCORE.INTER.VDW>
-19.0149

>  <SCORE.INTER.norm>
-0.676541

>  <SCORE.INTRA>
-4.07753

>  <SCORE.INTRA.DIHEDRAL>
-9.14605

>  <SCORE.INTRA.DIHEDRAL.0>
16.4056

>  <SCORE.INTRA.POLAR>
0

>  <SCORE.INTRA.POLAR.0>
0

>  <SCORE.INTRA.REPUL>
0

>  <SCORE.INTRA.REPUL.0>
0

>  <SCORE.INTRA.SOLV>
-0.309289

>  <SCORE.INTRA.SOLV.lig_0>
-90.9627

>  <SCORE.INTRA.VDW>
0.650144

>  <SCORE.INTRA.VDW.0>
-3.28744

>  <SCORE.INTRA.norm>
-0.110203

>  <SCORE.RESTR>
0

>  <SCORE.RESTR.CAVITY>
0

>  <SCORE.RESTR.norm>
0

>  <SCORE.SYSTEM>
0

>  <SCORE.SYSTEM.CONST>
0

>  <SCORE.SYSTEM.DIHEDRAL>
0

>  <SCORE.SYSTEM.SOLV>
0

>  <SCORE.SYSTEM.norm>
0

>  <SCORE.heavy>
37

>  <SCORE.norm>
-0.786744

>  <RMSD>
10.916

$$$$
2oe8_lig
 OpenBabel11021811463D
libRbt.so/2013.1/901 2013/11/27
 37 40  0  0  0  0  0  0  0  0999 V2000
   16.8697   -5.3824   44.9539 C   0  0  1  0  0  0  0  0  0  0  0  0
   15.9762   -5.5894   46.2354 C   0  0  1  0  0  0  0  0  0  0  0  0
   15.9891   -4.2988   47.0809 C   0  0  0  0  0  0  0  0  0  0  0  0
   17.4810   -4.0470   47.4638 C   0  0  1  0  0  0  0  0  0  0  0  0
   18.4128   -3.8534   46.1598 C   0  0  1  0  0  0  0  0  0  0  0  0
   19.9064   -3.6207   46.5326 C   0  0  1  0  0  0  0  0  0  0  0  0
   19.9660   -2.3405   47.4624 C   0  0  1  0  0  0  0  0  0  0  0  0
   19.0117   -2.5592   48.6877 C   0  0  2  0  0  0  0  0  0  0  0  0
   22.4547   -1.7124   46.9069 C   0  0  0  0  0  0  0  0  0  0  0  0
   14.5691   -5.9222   45.8463 N   0  0  0  0  0  0  0  0  0  0  0  0
   21.3937   -2.0566   47.9216 N   0  0  0  0  0  0  0  0  0  0  0  0
   16.3670   -4.3288   44.1224 O   0  0  0  0  0  0  0  0  0  0  0  0
   18.2789   -5.0481   45.3146 O   0  0  0  0  0  0  0  0  0  0  0  0
   17.6033   -2.8502   48.2883 O   0  0  0  0  0  0  0  0  0  0  0  0
   20.3617   -4.7994   47.1989 O   0  0  0  0  0  0  0  0  0  0  0  0
   19.0145   -1.4192   49.4672 O   0  0  0  0  0  0  0  0  0  0  0  0
   18.5651   -1.6490   50.8134 C   0  0  2  0  0  0  0  0  0  0  0  0
   19.5236   -0.9714   51.8222 C   0  0  1  0  0  0  0  0  0  0  0  0
   20.9375   -1.6293   51.8097 C   0  0  2  0  0  0  0  0  0  0  0  0
   20.8039   -3.1435   52.1481 C   0  0  1  0  0  0  0  0  0  0  0  0
   19.8781   -3.7851   51.0325 C   0  0  1  0  0  0  0  0  0  0  0  0
   19.6553   -5.2770   51.2635 C   0  0  0  0  0  0  0  0  0  0  0  0
   22.1545   -3.7746   52.1369 N   0  0  0  0  0  0  0  0  0  0  0  0
   18.5321   -3.1114   51.0756 O   0  0  0  0  0  0  0  0  0  0  0  0
   19.5771    0.4283   51.4862 O   0  0  0  0  0  0  0  0  0  0  0  0
   21.7344   -0.9913   52.7855 O   0  0  0  0  0  0  0  0  0  0  0  0
   18.8721   -5.7991   50.2227 O   0  0  0  0  0  0  0  0  0  0  0  0
   16.8385   -4.3836   42.7918 C   0  0  1  0  0  0  0  0  0  0  0  0
   15.8047   -5.1905   41.9421 C   0  0  1  0  0  0  0  0  0  0  0  0
   16.3275   -5.2858   40.4791 C   0  0  2  0  0  0  0  0  0  0  0  0
   16.5255   -3.8645   39.8674 C   0  0  1  0  0  0  0  0  0  0  0  0
   17.5589   -3.0388   40.7249 C   0  0  0  0  0  0  0  0  0  0  0  0
   17.0199   -2.9388   42.2120 C   0  0  2  0  0  0  0  0  0  0  0  0
   17.0307   -3.9823   38.4715 N   0  0  0  0  0  0  0  0  0  0  0  0
   17.9937   -2.1592   43.0089 N   0  0  0  0  0  0  0  0  0  0  0  0
   15.6488   -6.5195   42.4736 O   0  0  0  0  0  0  0  0  0  0  0  0
   15.3695   -6.0151   39.7298 O   0  0  0  0  0  0  0  0  0  0  0  0
  1  2  1  0  0  0  0
  1 12  1  6  0  0  0
  1 13  1  0  0  0  0
  2  3  1  0  0  0  0
  2 10  1  6  0  0  0
  4  3  1  6  0  0  0
  4  5  1  0  0  0  0
  4 14  1  0  0  0  0
  5  6  1  0  0  0  0
  5 13  1  6  0  0  0
  6  7  1  0  0  0  0
  6 15  1  1  0  0  0
  7  8  1  0  0  0  0
  7 11  1  1  0  0  0
  8 14  1  0  0  0  0
  8 16  1  1  0  0  0
  9 11  1  0  0  0  0
 17 16  1  6  0  0  0
 17 18  1  0  0  0  0
 17 24  1  0  0  0  0
 18 19  1  0  0  0  0
 18 25  1  6  0  0  0
 19 20  1  0  0  0  0
 19 26  1  1  0  0  0
 20 21  1  0  0  0  0
 20 23  1  6  0  0  0
 21 22  1  1  0  0  0
 21 24  1  0  0  0  0
 22 27  1  0  0  0  0
 28 12  1  1  0  0  0
 28 29  1  0  0  0  0
 28 33  1  0  0  0  0
 29 30  1  0  0  0  0
 29 36  1  1  0  0  0
 30 31  1  0  0  0  0
 30 37  1  6  0  0  0
 31 32  1  0  0  0  0
 31 34  1  6  0  0  0
 32 33  1  0  0  0  0
 33 35  1  1  0  0  0
M  END
>  <CHROM.1>
-160.38708651,63.18832777,-159.86086629,133.53537885,-177.86527564,92.83887575
18.38830478,-3.59368234,46.73640701,2.13002004,-0.81596025,-1.38437299

>  <Name>
2oe8_lig

>  <RI>
0

>  <Rbt.Current_Directory>
/home/itssahil/PROJECTS/Mol_Feturizer/New_Systems/rnas/2oe8

>  <Rbt.Executable>
rbdock ($Id: //depot/dev/client3/rdock/2013.1/src/exe/rbdock.cxx#4 $)

>  <Rbt.Library>
libRbt.so (2013.1, Build901 2013/11/27)

>  <Rbt.Parameter_File>
/export/apps/rDock/src/rDock_2013.1_src/data/scripts/dock_solv.prm

>  <Rbt.Receptor>
prm/blind_docking_100.prm

>  <SCORE>
-29.0037

>  <SCORE.INTER>
-29.8425

>  <SCORE.INTER.CONST>
1

>  <SCORE.INTER.POLAR>
-4.19809

>  <SCORE.INTER.ROT>
6

>  <SCORE.INTER.SOLV>
20.2351

>  <SCORE.INTER.VDW>
-20.2464

>  <SCORE.INTER.norm>
-0.806554

>  <SCORE.INTRA>
0.838791

>  <SCORE.INTRA.DIHEDRAL>
-2.31992

>  <SCORE.INTRA.DIHEDRAL.0>
16.4056

>  <SCORE.INTRA.POLAR>
0

>  <SCORE.INTRA.POLAR.0>
0

>  <SCORE.INTRA.REPUL>
0

>  <SCORE.INTRA.REPUL.0>
0

>  <SCORE.INTRA.SOLV>
-0.0876863

>  <SCORE.INTRA.SOLV.lig_0>
-90.9627

>  <SCORE.INTRA.VDW>
2.04259

>  <SCORE.INTRA.VDW.0>
-3.28744

>  <SCORE.INTRA.norm>
0.02267

>  <SCORE.RESTR>
0

>  <SCORE.RESTR.CAVITY>
0

>  <SCORE.RESTR.norm>
0

>  <SCORE.SYSTEM>
0

>  <SCORE.SYSTEM.CONST>
0

>  <SCORE.SYSTEM.DIHEDRAL>
0

>  <SCORE.SYSTEM.SOLV>
0

>  <SCORE.SYSTEM.norm>
0

>  <SCORE.heavy>
37

>  <SCORE.norm>
-0.783884

>  <RMSD>
10.919

$$$$
2oe8_lig
 OpenBabel11021811463D
libRbt.so/2013.1/901 2013/11/27
 37 40  0  0  0  0  0  0  0  0999 V2000
   17.2479   -5.1340   44.3767 C   0  0  1  0  0  0  0  0  0  0  0  0
   16.2274   -5.2692   45.5699 C   0  0  1  0  0  0  0  0  0  0  0  0
   16.3001   -4.0039   46.4498 C   0  0  0  0  0  0  0  0  0  0  0  0
   17.7702   -3.9202   46.9671 C   0  0  1  0  0  0  0  0  0  0  0  0
   18.8293   -3.8021   45.7545 C   0  0  1  0  0  0  0  0  0  0  0  0
   20.2999   -3.7374   46.2614 C   0  0  1  0  0  0  0  0  0  0  0  0
   20.4104   -2.4891   47.2291 C   0  0  1  0  0  0  0  0  0  0  0  0
   19.3333   -2.6282   48.3607 C   0  0  2  0  0  0  0  0  0  0  0  0
   22.8221   -1.4512   47.1731 C   0  0  0  0  0  0  0  0  0  0  0  0
   14.8333   -5.4423   45.0514 N   0  0  0  0  0  0  0  0  0  0  0  0
   21.8134   -2.3682   47.8177 N   0  0  0  0  0  0  0  0  0  0  0  0
   16.9341   -4.0170   43.5354 O   0  0  0  0  0  0  0  0  0  0  0  0
   18.6467   -4.9591   44.8671 O   0  0  0  0  0  0  0  0  0  0  0  0
   17.9433   -2.7594   47.8330 O   0  0  0  0  0  0  0  0  0  0  0  0
   20.5684   -4.9707   46.9305 O   0  0  0  0  0  0  0  0  0  0  0  0
   19.3861   -1.5104   49.1698 O   0  0  0  0  0  0  0  0  0  0  0  0
   18.9617   -1.7642   50.5197 C   0  0  2  0  0  0  0  0  0  0  0  0
   19.1308   -0.4912   51.3838 C   0  0  1  0  0  0  0  0  0  0  0  0
   20.6314   -0.1037   51.5572 C   0  0  2  0  0  0  0  0  0  0  0  0
   21.3968   -1.2899   52.2145 C   0  0  1  0  0  0  0  0  0  0  0  0
   21.2483   -2.5311   51.2395 C   0  0  1  0  0  0  0  0  0  0  0  0
   21.9483   -3.7729   51.7845 C   0  0  0  0  0  0  0  0  0  0  0  0
   22.8318   -0.9217   52.3816 N   0  0  0  0  0  0  0  0  0  0  0  0
   19.7859   -2.8592   51.0943 O   0  0  0  0  0  0  0  0  0  0  0  0
   18.3726    0.5577   50.7515 O   0  0  0  0  0  0  0  0  0  0  0  0
   20.7044    1.0323   52.3930 O   0  0  0  0  0  0  0  0  0  0  0  0
   21.7449   -4.8475   50.9054 O   0  0  0  0  0  0  0  0  0  0  0  0
   15.6897   -4.1356   42.8773 C   0  0  1  0  0  0  0  0  0  0  0  0
   15.3382   -2.7494   42.2474 C   0  0  1  0  0  0  0  0  0  0  0  0
   13.9532   -2.8573   41.5452 C   0  0  2  0  0  0  0  0  0  0  0  0
   13.9777   -3.9548   40.4368 C   0  0  1  0  0  0  0  0  0  0  0  0
   14.3426   -5.3553   41.0614 C   0  0  0  0  0  0  0  0  0  0  0  0
   15.7560   -5.2429   41.7699 C   0  0  2  0  0  0  0  0  0  0  0  0
   12.6418   -4.0424   39.7846 N   0  0  0  0  0  0  0  0  0  0  0  0
   16.0925   -6.5625   42.3500 N   0  0  0  0  0  0  0  0  0  0  0  0
   15.2698   -1.7381   43.2701 O   0  0  0  0  0  0  0  0  0  0  0  0
   13.6624   -1.5908   40.9776 O   0  0  0  0  0  0  0  0  0  0  0  0
  1  2  1  0  0  0  0
  1 12  1  1  0  0  0
  1 13  1  0  0  0  0
  2  3  1  0  0  0  0
  2 10  1  6  0  0  0
  4  3  1  6  0  0  0
  4  5  1  0  0  0  0
  4 14  1  0  0  0  0
  5  6  1  0  0  0  0
  5 13  1  6  0  0  0
  6  7  1  0  0  0  0
  6 15  1  1  0  0  0
  7  8  1  0  0  0  0
  7 11  1  1  0  0  0
  8 14  1  0  0  0  0
  8 16  1  1  0  0  0
  9 11  1  0  0  0  0
 17 16  1  6  0  0  0
 17 18  1  0  0  0  0
 17 24  1  0  0  0  0
 18 19  1  0  0  0  0
 18 25  1  6  0  0  0
 19 20  1  0  0  0  0
 19 26  1  1  0  0  0
 20 21  1  0  0  0  0
 20 23  1  6  0  0  0
 21 22  1  1  0  0  0
 21 24  1  0  0  0  0
 22 27  1  0  0  0  0
 28 12  1  6  0  0  0
 28 29  1  0  0  0  0
 28 33  1  0  0  0  0
 29 30  1  0  0  0  0
 29 36  1  1  0  0  0
 30 31  1  0  0  0  0
 30 37  1  6  0  0  0
 31 32  1  0  0  0  0
 31 34  1  1  0  0  0
 32 33  1  0  0  0  0
 33 35  1  1  0  0  0
M  END
>  <CHROM.1>
-64.00965560,95.99220893,-152.05915318,176.53006675,177.98357941,168.27934146
18.21093743,-3.04641465,46.68455489,-2.38564447,-0.72057956,0.69191840

>  <Name>
2oe8_lig

>  <RI>
0

>  <Rbt.Current_Directory>
/home/itssahil/PROJECTS/Mol_Feturizer/New_Systems/rnas/2oe8

>  <Rbt.Executable>
rbdock ($Id: //depot/dev/client3/rdock/2013.1/src/exe/rbdock.cxx#4 $)

>  <Rbt.Library>
libRbt.so (2013.1, Build901 2013/11/27)

>  <Rbt.Parameter_File>
/export/apps/rDock/src/rDock_2013.1_src/data/scripts/dock_solv.prm

>  <Rbt.Receptor>
prm/blind_docking_80.prm

>  <SCORE>
-23.4933

>  <SCORE.INTER>
-20.2251

>  <SCORE.INTER.CONST>
1

>  <SCORE.INTER.POLAR>
-2.42586

>  <SCORE.INTER.ROT>
6

>  <SCORE.INTER.SOLV>
10.4195

>  <SCORE.INTER.VDW>
-16.4703

>  <SCORE.INTER.norm>
-0.546624

>  <SCORE.INTRA>
-3.26826

>  <SCORE.INTRA.DIHEDRAL>
-11.5605

>  <SCORE.INTRA.DIHEDRAL.0>
16.4056

>  <SCORE.INTRA.POLAR>
0

>  <SCORE.INTRA.POLAR.0>
0

>  <SCORE.INTRA.REPUL>
0

>  <SCORE.INTRA.REPUL.0>
0

>  <SCORE.INTRA.SOLV>
2.81758

>  <SCORE.INTRA.SOLV.lig_0>
-90.9627

>  <SCORE.INTRA.VDW>
1.10319

>  <SCORE.INTRA.VDW.0>
-3.28744

>  <SCORE.INTRA.norm>
-0.0883314

>  <SCORE.RESTR>
0

>  <SCORE.RESTR.CAVITY>
0

>  <SCORE.RESTR.norm>
0

>  <SCORE.SYSTEM>
0

>  <SCORE.SYSTEM.CONST>
0

>  <SCORE.SYSTEM.DIHEDRAL>
0

>  <SCORE.SYSTEM.SOLV>
0

>  <SCORE.SYSTEM.norm>
0

>  <SCORE.heavy>
37

>  <SCORE.norm>
-0.634955

>  <RMSD>
10.932

$$$$
2oe8_lig
 OpenBabel11021811463D
libRbt.so/2013.1/901 2013/11/27
 37 40  0  0  0  0  0  0  0  0999 V2000
   15.8268   -5.3737   45.0969 C   0  0  1  0  0  0  0  0  0  0  0  0
   15.5991   -5.7530   46.6094 C   0  0  1  0  0  0  0  0  0  0  0  0
   16.1482   -4.6245   47.5070 C   0  0  0  0  0  0  0  0  0  0  0  0
   17.6684   -4.5073   47.1739 C   0  0  1  0  0  0  0  0  0  0  0  0
   17.9180   -4.1392   45.6220 C   0  0  1  0  0  0  0  0  0  0  0  0
   19.4329   -4.0391   45.2769 C   0  0  1  0  0  0  0  0  0  0  0  0
   20.0604   -2.9372   46.2249 C   0  0  1  0  0  0  0  0  0  0  0  0
   19.7520   -3.3157   47.7154 C   0  0  2  0  0  0  0  0  0  0  0  0
   22.3574   -1.7987   46.7942 C   0  0  0  0  0  0  0  0  0  0  0  0
   14.1413   -5.9527   46.8870 N   0  0  0  0  0  0  0  0  0  0  0  0
   21.5625   -2.7984   45.9926 N   0  0  0  0  0  0  0  0  0  0  0  0
   15.1280   -4.1742   44.7407 O   0  0  0  0  0  0  0  0  0  0  0  0
   17.2736   -5.1679   44.7937 O   0  0  0  0  0  0  0  0  0  0  0  0
   18.2933   -3.4725   47.9900 O   0  0  0  0  0  0  0  0  0  0  0  0
   19.9998   -5.3321   45.4949 O   0  0  0  0  0  0  0  0  0  0  0  0
   20.2444   -2.3241   48.5409 O   0  0  0  0  0  0  0  0  0  0  0  0
   20.1052   -2.6265   49.9395 C   0  0  2  0  0  0  0  0  0  0  0  0
   20.3116   -1.3486   50.7880 C   0  0  1  0  0  0  0  0  0  0  0  0
   21.7749   -0.8181   50.6900 C   0  0  2  0  0  0  0  0  0  0  0  0
   22.7580   -1.9285   51.1652 C   0  0  1  0  0  0  0  0  0  0  0  0
   22.5479   -3.1720   50.2047 C   0  0  1  0  0  0  0  0  0  0  0  0
   23.4512   -4.3432   50.5803 C   0  0  0  0  0  0  0  0  0  0  0  0
   24.1576   -1.4236   51.0727 N   0  0  0  0  0  0  0  0  0  0  0  0
   21.1217   -3.6398   50.3248 O   0  0  0  0  0  0  0  0  0  0  0  0
   19.3532   -0.3744   50.3327 O   0  0  0  0  0  0  0  0  0  0  0  0
   21.8951    0.3143   51.5252 O   0  0  0  0  0  0  0  0  0  0  0  0
   23.4022   -5.3143   49.5685 O   0  0  0  0  0  0  0  0  0  0  0  0
   14.5121   -4.2335   43.4707 C   0  0  1  0  0  0  0  0  0  0  0  0
   13.2576   -5.1586   43.5809 C   0  0  1  0  0  0  0  0  0  0  0  0
   12.5866   -5.2583   42.1799 C   0  0  2  0  0  0  0  0  0  0  0  0
   12.1639   -3.8473   41.6661 C   0  0  1  0  0  0  0  0  0  0  0  0
   13.4219   -2.9032   41.5624 C   0  0  0  0  0  0  0  0  0  0  0  0
   14.0985   -2.7994   42.9920 C   0  0  2  0  0  0  0  0  0  0  0  0
   11.5304   -3.9686   40.3239 N   0  0  0  0  0  0  0  0  0  0  0  0
   15.2759   -1.9085   42.8864 N   0  0  0  0  0  0  0  0  0  0  0  0
   13.6445   -6.4768   44.0122 O   0  0  0  0  0  0  0  0  0  0  0  0
   11.4498   -6.0960   42.3095 O   0  0  0  0  0  0  0  0  0  0  0  0
  1  2  1  0  0  0  0
  1 12  1  1  0  0  0
  1 13  1  0  0  0  0
  2  3  1  0  0  0  0
  2 10  1  6  0  0  0
  4  3  1  6  0  0  0
  4  5  1  0  0  0  0
  4 14  1  0  0  0  0
  5  6  1  0  0  0  0
  5 13  1  6  0  0  0
  6  7  1  0  0  0  0
  6 15  1  1  0  0  0
  7  8  1  0  0  0  0
  7 11  1  1  0  0  0
  8 14  1  0  0  0  0
  8 16  1  1  0  0  0
  9 11  1  0  0  0  0
 17 16  1  6  0  0  0
 17 18  1  0  0  0  0
 17 24  1  0  0  0  0
 18 19  1  0  0  0  0
 18 25  1  6  0  0  0
 19 20  1  0  0  0  0
 19 26  1  1  0  0  0
 20 21  1  0  0  0  0
 20 23  1  6  0  0  0
 21 22  1  1  0  0  0
 21 24  1  0  0  0  0
 22 27  1  0  0  0  0
 28 12  1  1  0  0  0
 28 29  1  0  0  0  0
 28 33  1  0  0  0  0
 29 30  1  0  0  0  0
 29 36  1  6  0  0  0
 30 31  1  0  0  0  0
 30 37  1  1  0  0  0
 31 32  1  0  0  0  0
 31 34  1  6  0  0  0
 32 33  1  0  0  0  0
 33 35  1  6  0  0  0
M  END
>  <CHROM.1>
-138.91327627,179.91539683,-175.40326245,-164.70375484,-169.49056039,73.55165438
17.98617720,-3.60134453,46.61543868,-2.91208192,-0.68279672,0.03760221

>  <Name>
2oe8_lig

>  <RI>
0

>  <Rbt.Current_Directory>
/home/itssahil/PROJECTS/Mol_Feturizer/New_Systems/rnas/2oe8

>  <Rbt.Executable>
rbdock ($Id: //depot/dev/client3/rdock/2013.1/src/exe/rbdock.cxx#4 $)

>  <Rbt.Library>
libRbt.so (2013.1, Build901 2013/11/27)

>  <Rbt.Parameter_File>
/export/apps/rDock/src/rDock_2013.1_src/data/scripts/dock_solv.prm

>  <Rbt.Receptor>
prm/blind_docking_100.prm

>  <SCORE>
-17.1212

>  <SCORE.INTER>
-14.034

>  <SCORE.INTER.CONST>
1

>  <SCORE.INTER.POLAR>
-1.8239

>  <SCORE.INTER.ROT>
6

>  <SCORE.INTER.SOLV>
16.6506

>  <SCORE.INTER.VDW>
-16.4265

>  <SCORE.INTER.norm>
-0.379297

>  <SCORE.INTRA>
-3.08724

>  <SCORE.INTRA.DIHEDRAL>
-8.35054

>  <SCORE.INTRA.DIHEDRAL.0>
16.4056

>  <SCORE.INTRA.POLAR>
0

>  <SCORE.INTRA.POLAR.0>
0

>  <SCORE.INTRA.REPUL>
0

>  <SCORE.INTRA.REPUL.0>
0

>  <SCORE.INTRA.SOLV>
-1.52024

>  <SCORE.INTRA.SOLV.lig_0>
-90.9627

>  <SCORE.INTRA.VDW>
1.84815

>  <SCORE.INTRA.VDW.0>
-3.28744

>  <SCORE.INTRA.norm>
-0.083439

>  <SCORE.RESTR>
0

>  <SCORE.RESTR.CAVITY>
0

>  <SCORE.RESTR.norm>
0

>  <SCORE.SYSTEM>
0

>  <SCORE.SYSTEM.CONST>
0

>  <SCORE.SYSTEM.DIHEDRAL>
0

>  <SCORE.SYSTEM.SOLV>
0

>  <SCORE.SYSTEM.norm>
0

>  <SCORE.heavy>
37

>  <SCORE.norm>
-0.462736

>  <RMSD>
10.935

$$$$
2oe8_lig
 OpenBabel11021811463D
libRbt.so/2013.1/901 2013/11/27
 37 40  0  0  0  0  0  0  0  0999 V2000
   17.0120   -5.3384   45.2289 C   0  0  1  0  0  0  0  0  0  0  0  0
   16.1908   -5.5675   46.5543 C   0  0  1  0  0  0  0  0  0  0  0  0
   16.2184   -4.2782   47.4014 C   0  0  0  0  0  0  0  0  0  0  0  0
   17.7221   -3.9934   47.7075 C   0  0  1  0  0  0  0  0  0  0  0  0
   18.5807   -3.7769   46.3577 C   0  0  1  0  0  0  0  0  0  0  0  0
   20.0860   -3.5111   46.6536 C   0  0  1  0  0  0  0  0  0  0  0  0
   20.1648   -2.2314   47.5825 C   0  0  1  0  0  0  0  0  0  0  0  0
   19.2802   -2.4734   48.8548 C   0  0  2  0  0  0  0  0  0  0  0  0
   22.3932   -2.8956   48.8031 C   0  0  0  0  0  0  0  0  0  0  0  0
   14.7733   -5.9313   46.2374 N   0  0  0  0  0  0  0  0  0  0  0  0
   21.6076   -1.9161   47.9681 N   0  0  0  0  0  0  0  0  0  0  0  0
   16.4436   -4.2951   44.4274 O   0  0  0  0  0  0  0  0  0  0  0  0
   18.4301   -4.9730   45.5173 O   0  0  0  0  0  0  0  0  0  0  0  0
   17.8599   -2.7954   48.5279 O   0  0  0  0  0  0  0  0  0  0  0  0
   20.6015   -4.6804   47.2923 O   0  0  0  0  0  0  0  0  0  0  0  0
   19.2977   -1.3349   49.6362 O   0  0  0  0  0  0  0  0  0  0  0  0
   18.8427   -1.5605   50.9812 C   0  0  2  0  0  0  0  0  0  0  0  0
   18.7936   -0.2252   51.7623 C   0  0  1  0  0  0  0  0  0  0  0  0
   20.2171    0.3761   51.9721 C   0  0  2  0  0  0  0  0  0  0  0  0
   21.1011   -0.6497   52.7411 C   0  0  1  0  0  0  0  0  0  0  0  0
   21.1720   -1.9577   51.8481 C   0  0  1  0  0  0  0  0  0  0  0  0
   22.0044   -3.0545   52.5062 C   0  0  0  0  0  0  0  0  0  0  0  0
   22.4626   -0.0771   52.9432 N   0  0  0  0  0  0  0  0  0  0  0  0
   19.7767   -2.4932   51.6640 O   0  0  0  0  0  0  0  0  0  0  0  0
   17.9340    0.6675   51.0280 O   0  0  0  0  0  0  0  0  0  0  0  0
   20.0929    1.5611   52.7303 O   0  0  0  0  0  0  0  0  0  0  0  0
   23.3537   -2.6694   52.5247 O   0  0  0  0  0  0  0  0  0  0  0  0
   16.8885   -4.3049   43.0866 C   0  0  1  0  0  0  0  0  0  0  0  0
   15.8779   -5.1483   42.2446 C   0  0  1  0  0  0  0  0  0  0  0  0
   16.3733   -5.1939   40.7696 C   0  0  2  0  0  0  0  0  0  0  0  0
   16.4877   -3.7547   40.1786 C   0  0  1  0  0  0  0  0  0  0  0  0
   17.4971   -2.8926   41.0287 C   0  0  0  0  0  0  0  0  0  0  0  0
   16.9858   -2.8436   42.5281 C   0  0  2  0  0  0  0  0  0  0  0  0
   16.9680   -3.8246   38.7707 N   0  0  0  0  0  0  0  0  0  0  0  0
   17.9368   -2.0295   43.3181 N   0  0  0  0  0  0  0  0  0  0  0  0
   15.7993   -6.4919   42.7563 O   0  0  0  0  0  0  0  0  0  0  0  0
   15.4367   -5.9577   40.0279 O   0  0  0  0  0  0  0  0  0  0  0  0
  1  2  1  0  0  0  0
  1 12  1  1  0  0  0
  1 13  1  0  0  0  0
  2  3  1  0  0  0  0
  2 10  1  6  0  0  0
  4  3  1  6  0  0  0
  4  5  1  0  0  0  0
  4 14  1  0  0  0  0
  5  6  1  0  0  0  0
  5 13  1  6  0  0  0
  6  7  1  0  0  0  0
  6 15  1  1  0  0  0
  7  8  1  0  0  0  0
  7 11  1  1  0  0  0
  8 14  1  0  0  0  0
  8 16  1  1  0  0  0
  9 11  1  0  0  0  0
 17 16  1  6  0  0  0
 17 18  1  0  0  0  0
 17 24  1  0  0  0  0
 18 19  1  0  0  0  0
 18 25  1  6  0  0  0
 19 20  1  0  0  0  0
 19 26  1  1  0  0  0
 20 21  1  0  0  0  0
 20 23  1  6  0  0  0
 21 22  1  1  0  0  0
 21 24  1  0  0  0  0
 22 27  1  0  0  0  0
 28 12  1  1  0  0  0
 28 29  1  0  0  0  0
 28 33  1  0  0  0  0
 29 30  1  0  0  0  0
 29 36  1  1  0  0  0
 30 31  1  0  0  0  0
 30 37  1  6  0  0  0
 31 32  1  0  0  0  0
 31 34  1  6  0  0  0
 32 33  1  0  0  0  0
 33 35  1  1  0  0  0
M  END
>  <CHROM.1>
-162.79132589,-63.97066639,-163.57176496,-175.91119818,-68.84773780,92.64356468
18.62977786,-3.03992005,47.12632032,2.03170555,-0.52814571,-1.68013903

>  <Name>
2oe8_lig

>  <RI>
0

>  <Rbt.Current_Directory>
/home/itssahil/PROJECTS/Mol_Feturizer/New_Systems/rnas/2oe8

>  <Rbt.Executable>
rbdock ($Id: //depot/dev/client3/rdock/2013.1/src/exe/rbdock.cxx#4 $)

>  <Rbt.Library>
libRbt.so (2013.1, Build901 2013/11/27)

>  <Rbt.Parameter_File>
/export/apps/rDock/src/rDock_2013.1_src/data/scripts/dock_solv.prm

>  <Rbt.Receptor>
prm/blind_docking_60.prm

>  <SCORE>
-29.4538

>  <SCORE.INTER>
-25.3344

>  <SCORE.INTER.CONST>
1

>  <SCORE.INTER.POLAR>
-3.51534

>  <SCORE.INTER.ROT>
6

>  <SCORE.INTER.SOLV>
18.6598

>  <SCORE.INTER.VDW>
-18.9917

>  <SCORE.INTER.norm>
-0.684713

>  <SCORE.INTRA>
-4.11937

>  <SCORE.INTRA.DIHEDRAL>
-9.27297

>  <SCORE.INTRA.DIHEDRAL.0>
16.4056

>  <SCORE.INTRA.POLAR>
0

>  <SCORE.INTRA.POLAR.0>
0

>  <SCORE.INTRA.REPUL>
0

>  <SCORE.INTRA.REPUL.0>
0

>  <SCORE.INTRA.SOLV>
-0.0786631

>  <SCORE.INTRA.SOLV.lig_0>
-90.9627

>  <SCORE.INTRA.VDW>
0.556445

>  <SCORE.INTRA.VDW.0>
-3.28744

>  <SCORE.INTRA.norm>
-0.111334

>  <SCORE.RESTR>
0

>  <SCORE.RESTR.CAVITY>
0

>  <SCORE.RESTR.norm>
0

>  <SCORE.SYSTEM>
0

>  <SCORE.SYSTEM.CONST>
0

>  <SCORE.SYSTEM.DIHEDRAL>
0

>  <SCORE.SYSTEM.SOLV>
0

>  <SCORE.SYSTEM.norm>
0

>  <SCORE.heavy>
37

>  <SCORE.norm>
-0.796048

>  <RMSD>
10.936

$$$$
2oe8_lig
 OpenBabel11021811463D
libRbt.so/2013.1/901 2013/11/27
 37 40  0  0  0  0  0  0  0  0999 V2000
   16.7868   -5.4225   44.9225 C   0  0  1  0  0  0  0  0  0  0  0  0
   15.8825   -5.6146   46.1988 C   0  0  1  0  0  0  0  0  0  0  0  0
   15.9091   -4.3232   47.0426 C   0  0  0  0  0  0  0  0  0  0  0  0
   17.4021   -4.0927   47.4344 C   0  0  1  0  0  0  0  0  0  0  0  0
   18.3447   -3.9146   46.1360 C   0  0  1  0  0  0  0  0  0  0  0  0
   19.8392   -3.7033   46.5178 C   0  0  1  0  0  0  0  0  0  0  0  0
   19.9119   -2.4229   47.4463 C   0  0  1  0  0  0  0  0  0  0  0  0
   18.9468   -2.6258   48.6659 C   0  0  2  0  0  0  0  0  0  0  0  0
   22.3969   -1.7611   46.9141 C   0  0  0  0  0  0  0  0  0  0  0  0
   14.4730   -5.9273   45.8013 N   0  0  0  0  0  0  0  0  0  0  0  0
   21.3406   -2.1594   47.9139 N   0  0  0  0  0  0  0  0  0  0  0  0
   16.3047   -4.3628   44.0866 O   0  0  0  0  0  0  0  0  0  0  0  0
   18.1984   -5.1084   45.2916 O   0  0  0  0  0  0  0  0  0  0  0  0
   17.5368   -2.8967   48.2582 O   0  0  0  0  0  0  0  0  0  0  0  0
   20.2731   -4.8877   47.1884 O   0  0  0  0  0  0  0  0  0  0  0  0
   18.9616   -1.4850   49.4439 O   0  0  0  0  0  0  0  0  0  0  0  0
   18.5084   -1.7080   50.7900 C   0  0  2  0  0  0  0  0  0  0  0  0
   19.4784   -1.0475   51.7992 C   0  0  1  0  0  0  0  0  0  0  0  0
   20.8809   -1.7293   51.7861 C   0  0  2  0  0  0  0  0  0  0  0  0
   20.7216   -3.2412   52.1234 C   0  0  1  0  0  0  0  0  0  0  0  0
   19.7849   -3.8663   51.0075 C   0  0  1  0  0  0  0  0  0  0  0  0
   19.5368   -5.3544   51.2375 C   0  0  0  0  0  0  0  0  0  0  0  0
   22.0612   -3.8953   52.1118 N   0  0  0  0  0  0  0  0  0  0  0  0
   18.4505   -3.1698   51.0512 O   0  0  0  0  0  0  0  0  0  0  0  0
   19.5557    0.3513   51.4641 O   0  0  0  0  0  0  0  0  0  0  0  0
   21.6886   -1.1056   52.7623 O   0  0  0  0  0  0  0  0  0  0  0  0
   18.6698   -5.8419   50.2477 O   0  0  0  0  0  0  0  0  0  0  0  0
   16.8031   -4.4123   42.7656 C   0  0  1  0  0  0  0  0  0  0  0  0
   15.7875   -5.2169   41.8922 C   0  0  1  0  0  0  0  0  0  0  0  0
   16.3399   -5.3064   40.4397 C   0  0  2  0  0  0  0  0  0  0  0  0
   16.5489   -3.8826   39.8374 C   0  0  1  0  0  0  0  0  0  0  0  0
   17.5639   -3.0592   40.7186 C   0  0  0  0  0  0  0  0  0  0  0  0
   16.9947   -2.9651   42.1949 C   0  0  2  0  0  0  0  0  0  0  0  0
   17.0823   -3.9948   38.4516 N   0  0  0  0  0  0  0  0  0  0  0  0
   17.9515   -2.1876   43.0142 N   0  0  0  0  0  0  0  0  0  0  0  0
   15.6222   -6.5481   42.4156 O   0  0  0  0  0  0  0  0  0  0  0  0
   15.3980   -6.0338   39.6686 O   0  0  0  0  0  0  0  0  0  0  0  0
  1  2  1  0  0  0  0
  1 12  1  6  0  0  0
  1 13  1  0  0  0  0
  2  3  1  0  0  0  0
  2 10  1  6  0  0  0
  4  3  1  6  0  0  0
  4  5  1  0  0  0  0
  4 14  1  0  0  0  0
  5  6  1  0  0  0  0
  5 13  1  6  0  0  0
  6  7  1  0  0  0  0
  6 15  1  1  0  0  0
  7  8  1  0  0  0  0
  7 11  1  1  0  0  0
  8 14  1  0  0  0  0
  8 16  1  1  0  0  0
  9 11  1  0  0  0  0
 17 16  1  6  0  0  0
 17 18  1  0  0  0  0
 17 24  1  0  0  0  0
 18 19  1  0  0  0  0
 18 25  1  6  0  0  0
 19 20  1  0  0  0  0
 19 26  1  1  0  0  0
 20 21  1  0  0  0  0
 20 23  1  6  0  0  0
 21 22  1  1  0  0  0
 21 24  1  0  0  0  0
 22 27  1  0  0  0  0
 28 12  1  1  0  0  0
 28 29  1  0  0  0  0
 28 33  1  0  0  0  0
 29 30  1  0  0  0  0
 29 36  1  1  0  0  0
 30 31  1  0  0  0  0
 30 37  1  6  0  0  0
 31 32  1  0  0  0  0
 31 34  1  6  0  0  0
 32 33  1  0  0  0  0
 33 35  1  1  0  0  0
M  END
>  <CHROM.1>
-161.49308312,66.40177755,-159.49540720,133.17256689,178.10428278,92.57047411
18.33191147,-3.64819423,46.71218221,2.11424585,-0.80508992,-1.39516383

>  <Name>
2oe8_lig

>  <RI>
0

>  <Rbt.Current_Directory>
/home/itssahil/PROJECTS/Mol_Feturizer/New_Systems/rnas/2oe8

>  <Rbt.Executable>
rbdock ($Id: //depot/dev/client3/rdock/2013.1/src/exe/rbdock.cxx#4 $)

>  <Rbt.Library>
libRbt.so (2013.1, Build901 2013/11/27)

>  <Rbt.Parameter_File>
/export/apps/rDock/src/rDock_2013.1_src/data/scripts/dock_solv.prm

>  <Rbt.Receptor>
prm/blind_docking_60.prm

>  <SCORE>
-29.0203

>  <SCORE.INTER>
-29.8167

>  <SCORE.INTER.CONST>
1

>  <SCORE.INTER.POLAR>
-4.1442

>  <SCORE.INTER.ROT>
6

>  <SCORE.INTER.SOLV>
20.6541

>  <SCORE.INTER.VDW>
-20.5485

>  <SCORE.INTER.norm>
-0.805857

>  <SCORE.INTRA>
0.796354

>  <SCORE.INTRA.DIHEDRAL>
-2.41778

>  <SCORE.INTRA.DIHEDRAL.0>
16.4056

>  <SCORE.INTRA.POLAR>
0

>  <SCORE.INTRA.POLAR.0>
0

>  <SCORE.INTRA.REPUL>
0

>  <SCORE.INTRA.REPUL.0>
0

>  <SCORE.INTRA.SOLV>
-0.123978

>  <SCORE.INTRA.SOLV.lig_0>
-90.9627

>  <SCORE.INTRA.VDW>
2.06723

>  <SCORE.INTRA.VDW.0>
-3.28744

>  <SCORE.INTRA.norm>
0.0215231

>  <SCORE.RESTR>
0

>  <SCORE.RESTR.CAVITY>
0

>  <SCORE.RESTR.norm>
0

>  <SCORE.SYSTEM>
0

>  <SCORE.SYSTEM.CONST>
0

>  <SCORE.SYSTEM.DIHEDRAL>
0

>  <SCORE.SYSTEM.SOLV>
0

>  <SCORE.SYSTEM.norm>
0

>  <SCORE.heavy>
37

>  <SCORE.norm>
-0.784334

>  <RMSD>
10.943

$$$$
2oe8_lig
 OpenBabel11021811463D
libRbt.so/2013.1/901 2013/11/27
 37 40  0  0  0  0  0  0  0  0999 V2000
   17.5020   -5.3022   45.3603 C   0  0  1  0  0  0  0  0  0  0  0  0
   16.5033   -5.4733   46.5672 C   0  0  1  0  0  0  0  0  0  0  0  0
   16.4122   -4.1450   47.3468 C   0  0  0  0  0  0  0  0  0  0  0  0
   17.8583   -3.8360   47.8462 C   0  0  1  0  0  0  0  0  0  0  0  0
   18.8974   -3.6784   46.6209 C   0  0  1  0  0  0  0  0  0  0  0  0
   20.3464   -3.3889   47.1113 C   0  0  1  0  0  0  0  0  0  0  0  0
   20.2946   -2.0658   47.9794 C   0  0  1  0  0  0  0  0  0  0  0  0
   19.2405   -2.2527   49.1256 C   0  0  2  0  0  0  0  0  0  0  0  0
   22.8299   -1.4863   47.6144 C   0  0  0  0  0  0  0  0  0  0  0  0
   15.1441   -5.8612   46.0731 N   0  0  0  0  0  0  0  0  0  0  0  0
   21.6692   -1.7230   48.5474 N   0  0  0  0  0  0  0  0  0  0  0  0
   17.0516   -4.3022   44.4378 O   0  0  0  0  0  0  0  0  0  0  0  0
   18.8658   -4.9142   45.8263 O   0  0  0  0  0  0  0  0  0  0  0  0
   17.8800   -2.5994   48.6191 O   0  0  0  0  0  0  0  0  0  0  0  0
   20.7673   -4.5229   47.8713 O   0  0  0  0  0  0  0  0  0  0  0  0
   19.1486   -1.0782   49.8461 O   0  0  0  0  0  0  0  0  0  0  0  0
   18.5605   -1.2524   51.1463 C   0  0  2  0  0  0  0  0  0  0  0  0
   18.5179    0.0980   51.9015 C   0  0  1  0  0  0  0  0  0  0  0  0
   19.9488    0.6217   52.2335 C   0  0  2  0  0  0  0  0  0  0  0  0
   20.6980   -0.4379   53.0944 C   0  0  1  0  0  0  0  0  0  0  0  0
   20.7740   -1.7643   52.2295 C   0  0  1  0  0  0  0  0  0  0  0  0
   21.4779   -2.8938   52.9762 C   0  0  0  0  0  0  0  0  0  0  0  0
   22.0663    0.0606   53.4133 N   0  0  0  0  0  0  0  0  0  0  0  0
   19.3727   -2.2234   51.9248 O   0  0  0  0  0  0  0  0  0  0  0  0
   17.7821    1.0239   51.0791 O   0  0  0  0  0  0  0  0  0  0  0  0
   19.8249    1.8258   52.9609 O   0  0  0  0  0  0  0  0  0  0  0  0
   21.6985   -3.9671   52.0996 O   0  0  0  0  0  0  0  0  0  0  0  0
   17.3049   -4.6237   43.0857 C   0  0  1  0  0  0  0  0  0  0  0  0
   16.0998   -5.4624   42.5509 C   0  0  1  0  0  0  0  0  0  0  0  0
   16.3804   -5.8507   41.0699 C   0  0  2  0  0  0  0  0  0  0  0  0
   16.5748   -4.5772   40.1901 C   0  0  1  0  0  0  0  0  0  0  0  0
   17.7820   -3.7188   40.7291 C   0  0  0  0  0  0  0  0  0  0  0  0
   17.4895   -3.3203   42.2351 C   0  0  2  0  0  0  0  0  0  0  0  0
   16.8469   -4.9747   38.7810 N   0  0  0  0  0  0  0  0  0  0  0  0
   18.6255   -2.5117   42.7319 N   0  0  0  0  0  0  0  0  0  0  0  0
   15.9405   -6.6627   43.3300 O   0  0  0  0  0  0  0  0  0  0  0  0
   15.2708   -6.6034   40.6081 O   0  0  0  0  0  0  0  0  0  0  0  0
  1  2  1  0  0  0  0
  1 12  1  6  0  0  0
  1 13  1  0  0  0  0
  2  3  1  0  0  0  0
  2 10  1  6  0  0  0
  4  3  1  6  0  0  0
  4  5  1  0  0  0  0
  4 14  1  0  0  0  0
  5  6  1  0  0  0  0
  5 13  1  1  0  0  0
  6  7  1  0  0  0  0
  6 15  1  1  0  0  0
  7  8  1  0  0  0  0
  7 11  1  1  0  0  0
  8 14  1  0  0  0  0
  8 16  1  6  0  0  0
  9 11  1  0  0  0  0
 17 16  1  6  0  0  0
 17 18  1  0  0  0  0
 17 24  1  0  0  0  0
 18 19  1  0  0  0  0
 18 25  1  6  0  0  0
 19 20  1  0  0  0  0
 19 26  1  1  0  0  0
 20 21  1  0  0  0  0
 20 23  1  6  0  0  0
 21 22  1  1  0  0  0
 21 24  1  0  0  0  0
 22 27  1  0  0  0  0
 28 12  1  1  0  0  0
 28 29  1  0  0  0  0
 28 33  1  0  0  0  0
 29 30  1  0  0  0  0
 29 36  1  1  0  0  0
 30 31  1  0  0  0  0
 30 37  1  6  0  0  0
 31 32  1  0  0  0  0
 31 34  1  6  0  0  0
 32 33  1  0  0  0  0
 33 35  1  1  0  0  0
M  END
>  <CHROM.1>
-142.32878131,59.20199999,-161.11564208,178.86678416,-171.03111476,87.58946545
18.64387010,-3.07399996,47.26079445,1.97835635,-0.63355698,-1.73009177

>  <Name>
2oe8_lig

>  <RI>
0

>  <Rbt.Current_Directory>
/home/itssahil/PROJECTS/Mol_Feturizer/New_Systems/rnas/2oe8

>  <Rbt.Executable>
rbdock ($Id: //depot/dev/client3/rdock/2013.1/src/exe/rbdock.cxx#4 $)

>  <Rbt.Library>
libRbt.so (2013.1, Build901 2013/11/27)

>  <Rbt.Parameter_File>
/export/apps/rDock/src/rDock_2013.1_src/data/scripts/dock_solv.prm

>  <Rbt.Receptor>
prm/pocket_docking_8.prm

>  <SCORE>
-27.1799

>  <SCORE.INTER>
-23.7332

>  <SCORE.INTER.CONST>
1

>  <SCORE.INTER.POLAR>
-3.1282

>  <SCORE.INTER.ROT>
6

>  <SCORE.INTER.SOLV>
18.4967

>  <SCORE.INTER.VDW>
-19.1604

>  <SCORE.INTER.norm>
-0.641439

>  <SCORE.INTRA>
-3.44663

>  <SCORE.INTRA.DIHEDRAL>
-6.3275

>  <SCORE.INTRA.DIHEDRAL.0>
16.4056

>  <SCORE.INTRA.POLAR>
0

>  <SCORE.INTRA.POLAR.0>
0

>  <SCORE.INTRA.REPUL>
0

>  <SCORE.INTRA.REPUL.0>
0

>  <SCORE.INTRA.SOLV>
-0.983466

>  <SCORE.INTRA.SOLV.lig_0>
-90.9627

>  <SCORE.INTRA.VDW>
0.208858

>  <SCORE.INTRA.VDW.0>
-3.28744

>  <SCORE.INTRA.norm>
-0.093152

>  <SCORE.RESTR>
0

>  <SCORE.RESTR.CAVITY>
0

>  <SCORE.RESTR.norm>
0

>  <SCORE.SYSTEM>
0

>  <SCORE.SYSTEM.CONST>
0

>  <SCORE.SYSTEM.DIHEDRAL>
0

>  <SCORE.SYSTEM.SOLV>
0

>  <SCORE.SYSTEM.norm>
0

>  <SCORE.heavy>
37

>  <SCORE.norm>
-0.734591

>  <RMSD>
10.952

$$$$
2oe8_lig
 OpenBabel11021811463D
libRbt.so/2013.1/901 2013/11/27
 37 40  0  0  0  0  0  0  0  0999 V2000
   17.0458   -5.3783   45.2622 C   0  0  1  0  0  0  0  0  0  0  0  0
   16.2020   -5.5888   46.5764 C   0  0  1  0  0  0  0  0  0  0  0  0
   16.2265   -4.2921   47.4121 C   0  0  0  0  0  0  0  0  0  0  0  0
   17.7274   -4.0162   47.7393 C   0  0  1  0  0  0  0  0  0  0  0  0
   18.6089   -3.8189   46.4014 C   0  0  1  0  0  0  0  0  0  0  0  0
   20.1113   -3.5622   46.7187 C   0  0  1  0  0  0  0  0  0  0  0  0
   20.1858   -2.2746   47.6371 C   0  0  1  0  0  0  0  0  0  0  0  0
   19.2792   -2.4979   48.8974 C   0  0  2  0  0  0  0  0  0  0  0  0
   22.6392   -1.5972   46.9901 C   0  0  0  0  0  0  0  0  0  0  0  0
   14.7868   -5.9444   46.2403 N   0  0  0  0  0  0  0  0  0  0  0  0
   21.6247   -1.9671   48.0427 N   0  0  0  0  0  0  0  0  0  0  0  0
   16.4984   -4.3381   44.4422 O   0  0  0  0  0  0  0  0  0  0  0  0
   18.4620   -5.0214   45.5697 O   0  0  0  0  0  0  0  0  0  0  0  0
   17.8618   -2.8119   48.5509 O   0  0  0  0  0  0  0  0  0  0  0  0
   20.6073   -4.7295   47.3761 O   0  0  0  0  0  0  0  0  0  0  0  0
   19.2935   -1.3525   49.6686 O   0  0  0  0  0  0  0  0  0  0  0  0
   19.0092   -1.5970   51.0565 C   0  0  2  0  0  0  0  0  0  0  0  0
   18.9994   -0.2653   51.8451 C   0  0  1  0  0  0  0  0  0  0  0  0
   20.4128    0.3923   51.8895 C   0  0  2  0  0  0  0  0  0  0  0  0
   21.4210   -0.5980   52.5437 C   0  0  1  0  0  0  0  0  0  0  0  0
   21.4382   -1.9014   51.6415 C   0  0  1  0  0  0  0  0  0  0  0  0
   22.3850   -2.9645   52.1912 C   0  0  0  0  0  0  0  0  0  0  0  0
   22.7731    0.0285   52.5874 N   0  0  0  0  0  0  0  0  0  0  0  0
   20.0532   -2.4921   51.6197 O   0  0  0  0  0  0  0  0  0  0  0  0
   18.0248    0.5929   51.2217 O   0  0  0  0  0  0  0  0  0  0  0  0
   20.3318    1.5708   52.6634 O   0  0  0  0  0  0  0  0  0  0  0  0
   22.0739   -3.2168   53.5361 O   0  0  0  0  0  0  0  0  0  0  0  0
   16.9478   -4.3767   43.1034 C   0  0  1  0  0  0  0  0  0  0  0  0
   15.9307   -5.2236   42.2729 C   0  0  1  0  0  0  0  0  0  0  0  0
   16.4307   -5.3008   40.8008 C   0  0  2  0  0  0  0  0  0  0  0  0
   16.5632   -3.8738   40.1848 C   0  0  1  0  0  0  0  0  0  0  0  0
   17.5793   -3.0080   41.0231 C   0  0  0  0  0  0  0  0  0  0  0  0
   17.0634   -2.9267   42.5196 C   0  0  2  0  0  0  0  0  0  0  0  0
   17.0475   -3.9740   38.7801 N   0  0  0  0  0  0  0  0  0  0  0  0
   18.0207   -2.1093   43.2984 N   0  0  0  0  0  0  0  0  0  0  0  0
   15.8354   -6.5569   42.8080 O   0  0  0  0  0  0  0  0  0  0  0  0
   15.4881   -6.0673   40.0693 O   0  0  0  0  0  0  0  0  0  0  0  0
  1  2  1  0  0  0  0
  1 12  1  6  0  0  0
  1 13  1  0  0  0  0
  2  3  1  0  0  0  0
  2 10  1  6  0  0  0
  4  3  1  6  0  0  0
  4  5  1  0  0  0  0
  4 14  1  0  0  0  0
  5  6  1  0  0  0  0
  5 13  1  6  0  0  0
  6  7  1  0  0  0  0
  6 15  1  1  0  0  0
  7  8  1  0  0  0  0
  7 11  1  1  0  0  0
  8 14  1  0  0  0  0
  8 16  1  1  0  0  0
  9 11  1  0  0  0  0
 17 16  1  6  0  0  0
 17 18  1  0  0  0  0
 17 24  1  0  0  0  0
 18 19  1  0  0  0  0
 18 25  1  6  0  0  0
 19 20  1  0  0  0  0
 19 26  1  1  0  0  0
 20 21  1  0  0  0  0
 20 23  1  6  0  0  0
 21 22  1  1  0  0  0
 21 24  1  0  0  0  0
 22 27  1  0  0  0  0
 28 12  1  1  0  0  0
 28 29  1  0  0  0  0
 28 33  1  0  0  0  0
 29 30  1  0  0  0  0
 29 36  1  1  0  0  0
 30 31  1  0  0  0  0
 30 37  1  6  0  0  0
 31 32  1  0  0  0  0
 31 34  1  6  0  0  0
 32 33  1  0  0  0  0
 33 35  1  1  0  0  0
M  END
>  <CHROM.1>
-161.83162758,64.00198140,-154.76968531,-178.22986345,53.12334592,92.26860264
18.68749427,-3.05428973,47.10181550,2.10954226,-0.73488610,-1.55425444

>  <Name>
2oe8_lig

>  <RI>
0

>  <Rbt.Current_Directory>
/home/itssahil/PROJECTS/Mol_Feturizer/New_Systems/rnas/2oe8

>  <Rbt.Executable>
rbdock ($Id: //depot/dev/client3/rdock/2013.1/src/exe/rbdock.cxx#4 $)

>  <Rbt.Library>
libRbt.so (2013.1, Build901 2013/11/27)

>  <Rbt.Parameter_File>
/export/apps/rDock/src/rDock_2013.1_src/data/scripts/dock_solv.prm

>  <Rbt.Receptor>
prm/blind_docking_60.prm

>  <SCORE>
-29.4413

>  <SCORE.INTER>
-25.3236

>  <SCORE.INTER.CONST>
1

>  <SCORE.INTER.POLAR>
-3.48126

>  <SCORE.INTER.ROT>
6

>  <SCORE.INTER.SOLV>
18.9196

>  <SCORE.INTER.VDW>
-19.1848

>  <SCORE.INTER.norm>
-0.684422

>  <SCORE.INTRA>
-4.11767

>  <SCORE.INTRA.DIHEDRAL>
-7.93214

>  <SCORE.INTRA.DIHEDRAL.0>
16.4056

>  <SCORE.INTRA.POLAR>
0

>  <SCORE.INTRA.POLAR.0>
0

>  <SCORE.INTRA.REPUL>
0

>  <SCORE.INTRA.REPUL.0>
0

>  <SCORE.INTRA.SOLV>
-0.38598

>  <SCORE.INTRA.SOLV.lig_0>
-90.9627

>  <SCORE.INTRA.VDW>
0.0413943

>  <SCORE.INTRA.VDW.0>
-3.28744

>  <SCORE.INTRA.norm>
-0.111288

>  <SCORE.RESTR>
0

>  <SCORE.RESTR.CAVITY>
0

>  <SCORE.RESTR.norm>
0

>  <SCORE.SYSTEM>
0

>  <SCORE.SYSTEM.CONST>
0

>  <SCORE.SYSTEM.DIHEDRAL>
0

>  <SCORE.SYSTEM.SOLV>
0

>  <SCORE.SYSTEM.norm>
0

>  <SCORE.heavy>
37

>  <SCORE.norm>
-0.795711

>  <RMSD>
10.953

$$$$
2oe8_lig
 OpenBabel11021811463D
libRbt.so/2013.1/901 2013/11/27
 37 40  0  0  0  0  0  0  0  0999 V2000
   17.8174   -5.2159   43.4735 C   0  0  1  0  0  0  0  0  0  0  0  0
   19.0935   -4.4536   42.9499 C   0  0  1  0  0  0  0  0  0  0  0  0
   20.1942   -4.4986   44.0302 C   0  0  0  0  0  0  0  0  0  0  0  0
   19.5931   -3.8003   45.2900 C   0  0  1  0  0  0  0  0  0  0  0  0
   18.2725   -4.5585   45.8259 C   0  0  1  0  0  0  0  0  0  0  0  0
   17.6555   -3.8570   47.0714 C   0  0  1  0  0  0  0  0  0  0  0  0
   18.7742   -3.8151   48.1911 C   0  0  1  0  0  0  0  0  0  0  0  0
   20.0489   -3.1116   47.6078 C   0  0  2  0  0  0  0  0  0  0  0  0
   18.9461   -3.3535   50.7706 C   0  0  0  0  0  0  0  0  0  0  0  0
   19.5999   -5.0824   41.6888 N   0  0  0  0  0  0  0  0  0  0  0  0
   18.2762   -3.0994   49.4438 N   0  0  0  0  0  0  0  0  0  0  0  0
   18.0957   -6.5973   43.7345 O   0  0  0  0  0  0  0  0  0  0  0  0
   17.2926   -4.6088   44.7320 O   0  0  0  0  0  0  0  0  0  0  0  0
   20.5687   -3.7710   46.3738 O   0  0  0  0  0  0  0  0  0  0  0  0
   17.2481   -2.5513   46.6594 O   0  0  0  0  0  0  0  0  0  0  0  0
   21.0470   -3.1294   48.5620 O   0  0  0  0  0  0  0  0  0  0  0  0
   22.1927   -2.3390   48.2022 C   0  0  2  0  0  0  0  0  0  0  0  0
   23.4188   -2.7537   49.0510 C   0  0  1  0  0  0  0  0  0  0  0  0
   23.2208   -2.4137   50.5600 C   0  0  2  0  0  0  0  0  0  0  0  0
   22.9681   -0.8848   50.7144 C   0  0  1  0  0  0  0  0  0  0  0  0
   21.6577   -0.5483   49.8881 C   0  0  1  0  0  0  0  0  0  0  0  0
   21.3100    0.9364   49.9476 C   0  0  0  0  0  0  0  0  0  0  0  0
   22.7787   -0.5571   52.1564 N   0  0  0  0  0  0  0  0  0  0  0  0
   21.8927   -0.9037   48.4438 O   0  0  0  0  0  0  0  0  0  0  0  0
   23.6280   -4.1630   48.8388 O   0  0  0  0  0  0  0  0  0  0  0  0
   24.3950   -2.7755   51.2561 O   0  0  0  0  0  0  0  0  0  0  0  0
   22.4205    1.6929   49.5432 O   0  0  0  0  0  0  0  0  0  0  0  0
   16.9728   -7.3255   44.1870 C   0  0  1  0  0  0  0  0  0  0  0  0
   16.0293   -7.5733   42.9664 C   0  0  1  0  0  0  0  0  0  0  0  0
   14.7716   -8.3481   43.4571 C   0  0  2  0  0  0  0  0  0  0  0  0
   15.1761   -9.7096   44.1023 C   0  0  1  0  0  0  0  0  0  0  0  0
   16.1374   -9.4701   45.3284 C   0  0  0  0  0  0  0  0  0  0  0  0
   17.4193   -8.6866   44.8233 C   0  0  2  0  0  0  0  0  0  0  0  0
   13.9578  -10.4283   44.5681 N   0  0  0  0  0  0  0  0  0  0  0  0
   18.3178   -8.4694   45.9795 N   0  0  0  0  0  0  0  0  0  0  0  0
   15.6152   -6.3198   42.3915 O   0  0  0  0  0  0  0  0  0  0  0  0
   13.9375   -8.5654   42.3311 O   0  0  0  0  0  0  0  0  0  0  0  0
  1  2  1  0  0  0  0
  1 12  1  1  0  0  0
  1 13  1  0  0  0  0
  2  3  1  0  0  0  0
  2 10  1  6  0  0  0
  4  3  1  6  0  0  0
  4  5  1  0  0  0  0
  4 14  1  0  0  0  0
  5  6  1  0  0  0  0
  5 13  1  6  0  0  0
  6  7  1  0  0  0  0
  6 15  1  6  0  0  0
  7  8  1  0  0  0  0
  7 11  1  1  0  0  0
  8 14  1  0  0  0  0
  8 16  1  1  0  0  0
  9 11  1  0  0  0  0
 17 16  1  1  0  0  0
 17 18  1  0  0  0  0
 17 24  1  0  0  0  0
 18 19  1  0  0  0  0
 18 25  1  1  0  0  0
 19 20  1  0  0  0  0
 19 26  1  1  0  0  0
 20 21  1  0  0  0  0
 20 23  1  1  0  0  0
 21 22  1  6  0  0  0
 21 24  1  0  0  0  0
 22 27  1  0  0  0  0
 28 12  1  6  0  0  0
 28 29  1  0  0  0  0
 28 33  1  0  0  0  0
 29 30  1  0  0  0  0
 29 36  1  1  0  0  0
 30 31  1  0  0  0  0
 30 37  1  6  0  0  0
 31 32  1  0  0  0  0
 31 34  1  1  0  0  0
 32 33  1  0  0  0  0
 33 35  1  1  0  0  0
M  END
>  <CHROM.1>
-179.07560890,158.35824929,-171.41717225,-161.67003648,53.97503640,74.57983124
19.22988122,-4.42547277,46.64153385,-2.85090390,0.93368376,1.97979571

>  <Name>
2oe8_lig

>  <RI>
0

>  <Rbt.Current_Directory>
/home/itssahil/PROJECTS/Mol_Feturizer/New_Systems/rnas/2oe8

>  <Rbt.Executable>
rbdock ($Id: //depot/dev/client3/rdock/2013.1/src/exe/rbdock.cxx#4 $)

>  <Rbt.Library>
libRbt.so (2013.1, Build901 2013/11/27)

>  <Rbt.Parameter_File>
/export/apps/rDock/src/rDock_2013.1_src/data/scripts/dock_solv.prm

>  <Rbt.Receptor>
prm/blind_docking_80.prm

>  <SCORE>
-19.1793

>  <SCORE.INTER>
-12.6577

>  <SCORE.INTER.CONST>
1

>  <SCORE.INTER.POLAR>
-0.979796

>  <SCORE.INTER.ROT>
6

>  <SCORE.INTER.SOLV>
13.3733

>  <SCORE.INTER.VDW>
-17.2302

>  <SCORE.INTER.norm>
-0.342099

>  <SCORE.INTRA>
-6.52161

>  <SCORE.INTRA.DIHEDRAL>
-12.9652

>  <SCORE.INTRA.DIHEDRAL.0>
16.4056

>  <SCORE.INTRA.POLAR>
0

>  <SCORE.INTRA.POLAR.0>
0

>  <SCORE.INTRA.REPUL>
0

>  <SCORE.INTRA.REPUL.0>
0

>  <SCORE.INTRA.SOLV>
-2.25147

>  <SCORE.INTRA.SOLV.lig_0>
-90.9627

>  <SCORE.INTRA.VDW>
1.08674

>  <SCORE.INTRA.VDW.0>
-3.28744

>  <SCORE.INTRA.norm>
-0.17626

>  <SCORE.RESTR>
0

>  <SCORE.RESTR.CAVITY>
0

>  <SCORE.RESTR.norm>
0

>  <SCORE.SYSTEM>
0

>  <SCORE.SYSTEM.CONST>
0

>  <SCORE.SYSTEM.DIHEDRAL>
0

>  <SCORE.SYSTEM.SOLV>
0

>  <SCORE.SYSTEM.norm>
0

>  <SCORE.heavy>
37

>  <SCORE.norm>
-0.518358

>  <RMSD>
10.967

$$$$
2oe8_lig
 OpenBabel11021811463D
libRbt.so/2013.1/901 2013/11/27
 37 40  0  0  0  0  0  0  0  0999 V2000
   17.0132   -5.3154   45.1117 C   0  0  1  0  0  0  0  0  0  0  0  0
   16.1202   -5.5166   46.3944 C   0  0  1  0  0  0  0  0  0  0  0  0
   16.1534   -4.2307   47.2465 C   0  0  0  0  0  0  0  0  0  0  0  0
   17.6497   -4.0019   47.6268 C   0  0  1  0  0  0  0  0  0  0  0  0
   18.5808   -3.8146   46.3214 C   0  0  1  0  0  0  0  0  0  0  0  0
   20.0784   -3.6049   46.6916 C   0  0  1  0  0  0  0  0  0  0  0  0
   20.1585   -2.3306   47.6278 C   0  0  1  0  0  0  0  0  0  0  0  0
   19.2042   -2.5422   48.8544 C   0  0  2  0  0  0  0  0  0  0  0  0
   22.6368   -1.6570   47.0795 C   0  0  0  0  0  0  0  0  0  0  0  0
   14.7075   -5.8275   46.0073 N   0  0  0  0  0  0  0  0  0  0  0  0
   21.5911   -2.0692   48.0847 N   0  0  0  0  0  0  0  0  0  0  0  0
   16.5233   -4.2506   44.2870 O   0  0  0  0  0  0  0  0  0  0  0  0
   18.4279   -5.0029   45.4704 O   0  0  0  0  0  0  0  0  0  0  0  0
   17.7909   -2.8112   48.4572 O   0  0  0  0  0  0  0  0  0  0  0  0
   20.5188   -4.7934   47.3505 O   0  0  0  0  0  0  0  0  0  0  0  0
   19.2251   -1.4065   49.6398 O   0  0  0  0  0  0  0  0  0  0  0  0
   18.7934   -1.6407   50.9910 C   0  0  2  0  0  0  0  0  0  0  0  0
   18.8047   -0.3182   51.7949 C   0  0  1  0  0  0  0  0  0  0  0  0
   20.2512    0.2339   51.9820 C   0  0  2  0  0  0  0  0  0  0  0  0
   21.1188   -0.8327   52.7133 C   0  0  1  0  0  0  0  0  0  0  0  0
   21.1275   -2.1266   51.7975 C   0  0  1  0  0  0  0  0  0  0  0  0
   21.9388   -3.2605   52.4180 C   0  0  0  0  0  0  0  0  0  0  0  0
   22.5022   -0.3071   52.8936 N   0  0  0  0  0  0  0  0  0  0  0  0
   19.7120   -2.6143   51.6366 O   0  0  0  0  0  0  0  0  0  0  0  0
   17.9581    0.6139   51.0954 O   0  0  0  0  0  0  0  0  0  0  0  0
   20.1822    1.4089   52.7623 O   0  0  0  0  0  0  0  0  0  0  0  0
   22.1045   -4.2866   51.4754 O   0  0  0  0  0  0  0  0  0  0  0  0
   16.9524   -4.3315   42.9434 C   0  0  1  0  0  0  0  0  0  0  0  0
   15.8688   -5.1126   42.1327 C   0  0  1  0  0  0  0  0  0  0  0  0
   16.3440   -5.2368   40.6556 C   0  0  2  0  0  0  0  0  0  0  0  0
   16.5677   -3.8276   40.0250 C   0  0  1  0  0  0  0  0  0  0  0  0
   17.6517   -3.0276   40.8433 C   0  0  0  0  0  0  0  0  0  0  0  0
   17.1612   -2.8980   42.3449 C   0  0  2  0  0  0  0  0  0  0  0  0
   17.0265   -3.9730   38.6157 N   0  0  0  0  0  0  0  0  0  0  0  0
   18.1825   -2.1427   43.1049 N   0  0  0  0  0  0  0  0  0  0  0  0
   15.6877   -6.4315   42.6811 O   0  0  0  0  0  0  0  0  0  0  0  0
   15.3415   -5.9418   39.9423 O   0  0  0  0  0  0  0  0  0  0  0  0
  1  2  1  0  0  0  0
  1 12  1  1  0  0  0
  1 13  1  0  0  0  0
  2  3  1  0  0  0  0
  2 10  1  6  0  0  0
  4  3  1  6  0  0  0
  4  5  1  0  0  0  0
  4 14  1  0  0  0  0
  5  6  1  0  0  0  0
  5 13  1  6  0  0  0
  6  7  1  0  0  0  0
  6 15  1  1  0  0  0
  7  8  1  0  0  0  0
  7 11  1  1  0  0  0
  8 14  1  0  0  0  0
  8 16  1  1  0  0  0
  9 11  1  0  0  0  0
 17 16  1  6  0  0  0
 17 18  1  0  0  0  0
 17 24  1  0  0  0  0
 18 19  1  0  0  0  0
 18 25  1  6  0  0  0
 19 20  1  0  0  0  0
 19 26  1  1  0  0  0
 20 21  1  0  0  0  0
 20 23  1  6  0  0  0
 21 22  1  1  0  0  0
 21 24  1  0  0  0  0
 22 27  1  0  0  0  0
 28 12  1  1  0  0  0
 28 29  1  0  0  0  0
 28 33  1  0  0  0  0
 29 30  1  0  0  0  0
 29 36  1  1  0  0  0
 30 31  1  0  0  0  0
 30 37  1  6  0  0  0
 31 32  1  0  0  0  0
 31 34  1  6  0  0  0
 32 33  1  0  0  0  0
 33 35  1  1  0  0  0
M  END
>  <CHROM.1>
-158.27293417,66.70725893,-159.05580896,-178.35310509,-169.96502390,92.59250610
18.59742822,-3.11573784,46.98466159,2.05206476,-0.65443327,-1.60523223

>  <Name>
2oe8_lig

>  <RI>
0

>  <Rbt.Current_Directory>
/home/itssahil/PROJECTS/Mol_Feturizer/New_Systems/rnas/2oe8

>  <Rbt.Executable>
rbdock ($Id: //depot/dev/client3/rdock/2013.1/src/exe/rbdock.cxx#4 $)

>  <Rbt.Library>
libRbt.so (2013.1, Build901 2013/11/27)

>  <Rbt.Parameter_File>
/export/apps/rDock/src/rDock_2013.1_src/data/scripts/dock_solv.prm

>  <Rbt.Receptor>
prm/blind_docking_80.prm

>  <SCORE>
-30.5427

>  <SCORE.INTER>
-25.9229

>  <SCORE.INTER.CONST>
1

>  <SCORE.INTER.POLAR>
-3.45327

>  <SCORE.INTER.ROT>
6

>  <SCORE.INTER.SOLV>
18.765

>  <SCORE.INTER.VDW>
-19.626

>  <SCORE.INTER.norm>
-0.700618

>  <SCORE.INTRA>
-4.61987

>  <SCORE.INTRA.DIHEDRAL>
-7.83825

>  <SCORE.INTRA.DIHEDRAL.0>
16.4056

>  <SCORE.INTRA.POLAR>
0

>  <SCORE.INTRA.POLAR.0>
0

>  <SCORE.INTRA.REPUL>
0

>  <SCORE.INTRA.REPUL.0>
0

>  <SCORE.INTRA.SOLV>
-1.08307

>  <SCORE.INTRA.SOLV.lig_0>
-90.9627

>  <SCORE.INTRA.VDW>
-0.159216

>  <SCORE.INTRA.VDW.0>
-3.28744

>  <SCORE.INTRA.norm>
-0.124861

>  <SCORE.RESTR>
0

>  <SCORE.RESTR.CAVITY>
0

>  <SCORE.RESTR.norm>
0

>  <SCORE.SYSTEM>
0

>  <SCORE.SYSTEM.CONST>
0

>  <SCORE.SYSTEM.DIHEDRAL>
0

>  <SCORE.SYSTEM.SOLV>
0

>  <SCORE.SYSTEM.norm>
0

>  <SCORE.heavy>
37

>  <SCORE.norm>
-0.825479

>  <RMSD>
10.971

$$$$
2oe8_lig
 OpenBabel11021811463D
libRbt.so/2013.1/901 2013/11/27
 37 40  0  0  0  0  0  0  0  0999 V2000
   16.9361   -5.3325   45.1644 C   0  0  1  0  0  0  0  0  0  0  0  0
   16.0802   -5.5290   46.4729 C   0  0  1  0  0  0  0  0  0  0  0  0
   16.1362   -4.2394   47.3182 C   0  0  0  0  0  0  0  0  0  0  0  0
   17.6425   -4.0075   47.6547 C   0  0  1  0  0  0  0  0  0  0  0  0
   18.5358   -3.8250   46.3225 C   0  0  1  0  0  0  0  0  0  0  0  0
   20.0432   -3.6122   46.6489 C   0  0  1  0  0  0  0  0  0  0  0  0
   20.1485   -2.3338   47.5771 C   0  0  1  0  0  0  0  0  0  0  0  0
   19.2298   -2.5410   48.8313 C   0  0  2  0  0  0  0  0  0  0  0  0
   22.5994   -1.6175   46.9634 C   0  0  0  0  0  0  0  0  0  0  0  0
   14.6574   -5.8429   46.1275 N   0  0  0  0  0  0  0  0  0  0  0  0
   21.5933   -2.0691   47.9918 N   0  0  0  0  0  0  0  0  0  0  0  0
   16.4217   -4.2717   44.3494 O   0  0  0  0  0  0  0  0  0  0  0  0
   18.3600   -5.0171   45.4813 O   0  0  0  0  0  0  0  0  0  0  0  0
   17.8060   -2.8132   48.4757 O   0  0  0  0  0  0  0  0  0  0  0  0
   20.5035   -4.7975   47.3002 O   0  0  0  0  0  0  0  0  0  0  0  0
   19.2718   -1.4020   49.6109 O   0  0  0  0  0  0  0  0  0  0  0  0
   18.9908   -1.6513   50.9986 C   0  0  2  0  0  0  0  0  0  0  0  0
   18.9916   -0.3231   51.7934 C   0  0  1  0  0  0  0  0  0  0  0  0
   20.4090    0.3259   51.8359 C   0  0  2  0  0  0  0  0  0  0  0  0
   21.4136   -0.6733   52.4821 C   0  0  1  0  0  0  0  0  0  0  0  0
   21.4199   -1.9727   51.5739 C   0  0  1  0  0  0  0  0  0  0  0  0
   22.3623   -3.0438   52.1155 C   0  0  0  0  0  0  0  0  0  0  0  0
   22.7695   -0.0550   52.5241 N   0  0  0  0  0  0  0  0  0  0  0  0
   20.0314   -2.5551   51.5542 O   0  0  0  0  0  0  0  0  0  0  0  0
   18.0199    0.5436   51.1773 O   0  0  0  0  0  0  0  0  0  0  0  0
   20.3377    1.5013   52.6155 O   0  0  0  0  0  0  0  0  0  0  0  0
   22.0788   -3.2739   53.4704 O   0  0  0  0  0  0  0  0  0  0  0  0
   16.8884   -4.3044   43.0164 C   0  0  1  0  0  0  0  0  0  0  0  0
   15.8856   -5.1532   42.1704 C   0  0  1  0  0  0  0  0  0  0  0  0
   16.4047   -5.2240   40.7046 C   0  0  2  0  0  0  0  0  0  0  0  0
   16.5390   -3.7945   40.0945 C   0  0  1  0  0  0  0  0  0  0  0  0
   17.5406   -2.9269   40.9483 C   0  0  0  0  0  0  0  0  0  0  0  0
   17.0052   -2.8522   42.4382 C   0  0  2  0  0  0  0  0  0  0  0  0
   17.0417   -3.8886   38.6959 N   0  0  0  0  0  0  0  0  0  0  0  0
   17.9490   -2.0330   43.2316 N   0  0  0  0  0  0  0  0  0  0  0  0
   15.7892   -6.4885   42.7004 O   0  0  0  0  0  0  0  0  0  0  0  0
   15.4749   -5.9922   39.9589 O   0  0  0  0  0  0  0  0  0  0  0  0
  1  2  1  0  0  0  0
  1 12  1  1  0  0  0
  1 13  1  0  0  0  0
  2  3  1  0  0  0  0
  2 10  1  6  0  0  0
  4  3  1  6  0  0  0
  4  5  1  0  0  0  0
  4 14  1  0  0  0  0
  5  6  1  0  0  0  0
  5 13  1  6  0  0  0
  6  7  1  0  0  0  0
  6 15  1  1  0  0  0
  7  8  1  0  0  0  0
  7 11  1  1  0  0  0
  8 14  1  0  0  0  0
  8 16  1  1  0  0  0
  9 11  1  0  0  0  0
 17 16  1  6  0  0  0
 17 18  1  0  0  0  0
 17 24  1  0  0  0  0
 18 19  1  0  0  0  0
 18 25  1  6  0  0  0
 19 20  1  0  0  0  0
 19 26  1  1  0  0  0
 20 21  1  0  0  0  0
 20 23  1  6  0  0  0
 21 22  1  1  0  0  0
 21 24  1  0  0  0  0
 22 27  1  0  0  0  0
 28 12  1  1  0  0  0
 28 29  1  0  0  0  0
 28 33  1  0  0  0  0
 29 30  1  0  0  0  0
 29 36  1  1  0  0  0
 30 31  1  0  0  0  0
 30 37  1  6  0  0  0
 31 32  1  0  0  0  0
 31 34  1  6  0  0  0
 32 33  1  0  0  0  0
 33 35  1  1  0  0  0
M  END
>  <CHROM.1>
-162.50065235,68.66169175,-154.01456326,-177.38049950,51.50139791,90.74024819
18.64237417,-3.05561289,47.02652104,2.10200720,-0.70985122,-1.55591015

>  <Name>
2oe8_lig

>  <RI>
0

>  <Rbt.Current_Directory>
/home/itssahil/PROJECTS/Mol_Feturizer/New_Systems/rnas/2oe8

>  <Rbt.Executable>
rbdock ($Id: //depot/dev/client3/rdock/2013.1/src/exe/rbdock.cxx#4 $)

>  <Rbt.Library>
libRbt.so (2013.1, Build901 2013/11/27)

>  <Rbt.Parameter_File>
/export/apps/rDock/src/rDock_2013.1_src/data/scripts/dock_solv.prm

>  <Rbt.Receptor>
prm/pocket_docking_8.prm

>  <SCORE>
-29.4194

>  <SCORE.INTER>
-25.1755

>  <SCORE.INTER.CONST>
1

>  <SCORE.INTER.POLAR>
-3.48733

>  <SCORE.INTER.ROT>
6

>  <SCORE.INTER.SOLV>
19.2637

>  <SCORE.INTER.VDW>
-19.1805

>  <SCORE.INTER.norm>
-0.68042

>  <SCORE.INTRA>
-4.24387

>  <SCORE.INTRA.DIHEDRAL>
-8.02845

>  <SCORE.INTRA.DIHEDRAL.0>
16.4056

>  <SCORE.INTRA.POLAR>
0

>  <SCORE.INTRA.POLAR.0>
0

>  <SCORE.INTRA.REPUL>
0

>  <SCORE.INTRA.REPUL.0>
0

>  <SCORE.INTRA.SOLV>
-0.453246

>  <SCORE.INTRA.SOLV.lig_0>
-90.9627

>  <SCORE.INTRA.VDW>
-0.00302667

>  <SCORE.INTRA.VDW.0>
-3.28744

>  <SCORE.INTRA.norm>
-0.114699

>  <SCORE.RESTR>
0

>  <SCORE.RESTR.CAVITY>
0

>  <SCORE.RESTR.norm>
0

>  <SCORE.SYSTEM>
0

>  <SCORE.SYSTEM.CONST>
0

>  <SCORE.SYSTEM.DIHEDRAL>
0

>  <SCORE.SYSTEM.SOLV>
0

>  <SCORE.SYSTEM.norm>
0

>  <SCORE.heavy>
37

>  <SCORE.norm>
-0.795119

>  <RMSD>
10.985

$$$$
2oe8_lig
 OpenBabel11021811463D
libRbt.so/2013.1/901 2013/11/27
 37 40  0  0  0  0  0  0  0  0999 V2000
   16.0790   -4.8795   45.4651 C   0  0  1  0  0  0  0  0  0  0  0  0
   16.0085   -3.3069   45.3914 C   0  0  1  0  0  0  0  0  0  0  0  0
   17.3989   -2.7180   45.7085 C   0  0  0  0  0  0  0  0  0  0  0  0
   17.7564   -3.2032   47.1482 C   0  0  1  0  0  0  0  0  0  0  0  0
   17.8120   -4.8137   47.2443 C   0  0  1  0  0  0  0  0  0  0  0  0
   18.1493   -5.3065   48.6821 C   0  0  1  0  0  0  0  0  0  0  0  0
   19.5423   -4.6700   49.0838 C   0  0  1  0  0  0  0  0  0  0  0  0
   19.4506   -3.1118   48.9303 C   0  0  2  0  0  0  0  0  0  0  0  0
   20.0902   -6.5150   50.8705 C   0  0  0  0  0  0  0  0  0  0  0  0
   15.5733   -2.8642   44.0287 N   0  0  0  0  0  0  0  0  0  0  0  0
   19.9391   -5.0599   50.5051 N   0  0  0  0  0  0  0  0  0  0  0  0
   16.9935   -5.4145   44.5000 O   0  0  0  0  0  0  0  0  0  0  0  0
   16.5120   -5.3475   46.8146 O   0  0  0  0  0  0  0  0  0  0  0  0
   19.0553   -2.6809   47.5570 O   0  0  0  0  0  0  0  0  0  0  0  0
   17.0872   -4.8747   49.5343 O   0  0  0  0  0  0  0  0  0  0  0  0
   20.6826   -2.5595   49.2202 O   0  0  0  0  0  0  0  0  0  0  0  0
   20.7385   -1.1411   48.9920 C   0  0  2  0  0  0  0  0  0  0  0  0
   22.1208   -0.5843   49.4101 C   0  0  1  0  0  0  0  0  0  0  0  0
   22.3507   -0.6992   50.9483 C   0  0  2  0  0  0  0  0  0  0  0  0
   21.2250    0.0743   51.6963 C   0  0  1  0  0  0  0  0  0  0  0  0
   19.8504   -0.5994   51.2839 C   0  0  1  0  0  0  0  0  0  0  0  0
   18.6575    0.0855   51.9448 C   0  0  0  0  0  0  0  0  0  0  0  0
   21.4427   -0.0339   53.1672 N   0  0  0  0  0  0  0  0  0  0  0  0
   19.6792   -0.4743   49.7931 O   0  0  0  0  0  0  0  0  0  0  0  0
   23.1165   -1.3067   48.6606 O   0  0  0  0  0  0  0  0  0  0  0  0
   23.6058   -0.1290   51.2550 O   0  0  0  0  0  0  0  0  0  0  0  0
   18.6096    1.4295   51.5444 O   0  0  0  0  0  0  0  0  0  0  0  0
   16.6115   -5.1707   43.1619 C   0  0  1  0  0  0  0  0  0  0  0  0
   17.8339   -4.5501   42.4122 C   0  0  1  0  0  0  0  0  0  0  0  0
   17.4170   -4.2468   40.9435 C   0  0  2  0  0  0  0  0  0  0  0  0
   16.9530   -5.5482   40.2191 C   0  0  1  0  0  0  0  0  0  0  0  0
   15.7265   -6.1877   40.9751 C   0  0  0  0  0  0  0  0  0  0  0  0
   16.1571   -6.5006   42.4680 C   0  0  2  0  0  0  0  0  0  0  0  0
   16.5547   -5.2314   38.8195 N   0  0  0  0  0  0  0  0  0  0  0  0
   15.0015   -7.1041   43.1692 N   0  0  0  0  0  0  0  0  0  0  0  0
   18.2413   -3.3243   43.0483 O   0  0  0  0  0  0  0  0  0  0  0  0
   18.5440   -3.6922   40.2854 O   0  0  0  0  0  0  0  0  0  0  0  0
  1  2  1  0  0  0  0
  1 12  1  6  0  0  0
  1 13  1  0  0  0  0
  2  3  1  0  0  0  0
  2 10  1  6  0  0  0
  4  3  1  6  0  0  0
  4  5  1  0  0  0  0
  4 14  1  0  0  0  0
  5  6  1  0  0  0  0
  5 13  1  1  0  0  0
  6  7  1  0  0  0  0
  6 15  1  1  0  0  0
  7  8  1  0  0  0  0
  7 11  1  1  0  0  0
  8 14  1  0  0  0  0
  8 16  1  6  0  0  0
  9 11  1  0  0  0  0
 17 16  1  1  0  0  0
 17 18  1  0  0  0  0
 17 24  1  0  0  0  0
 18 19  1  0  0  0  0
 18 25  1  6  0  0  0
 19 20  1  0  0  0  0
 19 26  1  6  0  0  0
 20 21  1  0  0  0  0
 20 23  1  1  0  0  0
 21 22  1  1  0  0  0
 21 24  1  0  0  0  0
 22 27  1  0  0  0  0
 28 12  1  1  0  0  0
 28 29  1  0  0  0  0
 28 33  1  0  0  0  0
 29 30  1  0  0  0  0
 29 36  1  1  0  0  0
 30 31  1  0  0  0  0
 30 37  1  6  0  0  0
 31 32  1  0  0  0  0
 31 34  1  6  0  0  0
 32 33  1  0  0  0  0
 33 35  1  1  0  0  0
M  END
>  <CHROM.1>
-63.72801506,58.78924392,174.71519953,176.95516929,60.69929495,129.11099936
18.64145356,-3.27636712,46.92772573,2.27894240,-0.91804824,-1.40815886

>  <Name>
2oe8_lig

>  <RI>
0

>  <Rbt.Current_Directory>
/home/itssahil/PROJECTS/Mol_Feturizer/New_Systems/rnas/2oe8

>  <Rbt.Executable>
rbdock ($Id: //depot/dev/client3/rdock/2013.1/src/exe/rbdock.cxx#4 $)

>  <Rbt.Library>
libRbt.so (2013.1, Build901 2013/11/27)

>  <Rbt.Parameter_File>
/export/apps/rDock/src/rDock_2013.1_src/data/scripts/dock_solv.prm

>  <Rbt.Receptor>
prm/blind_docking_80.prm

>  <SCORE>
-21.7293

>  <SCORE.INTER>
-19.8604

>  <SCORE.INTER.CONST>
1

>  <SCORE.INTER.POLAR>
-1.91758

>  <SCORE.INTER.ROT>
6

>  <SCORE.INTER.SOLV>
15.3971

>  <SCORE.INTER.VDW>
-19.5807

>  <SCORE.INTER.norm>
-0.536768

>  <SCORE.INTRA>
-1.86892

>  <SCORE.INTRA.DIHEDRAL>
-9.29081

>  <SCORE.INTRA.DIHEDRAL.0>
16.4056

>  <SCORE.INTRA.POLAR>
0

>  <SCORE.INTRA.POLAR.0>
0

>  <SCORE.INTRA.REPUL>
0

>  <SCORE.INTRA.REPUL.0>
0

>  <SCORE.INTRA.SOLV>
1.32507

>  <SCORE.INTRA.SOLV.lig_0>
-90.9627

>  <SCORE.INTRA.VDW>
2.11395

>  <SCORE.INTRA.VDW.0>
-3.28744

>  <SCORE.INTRA.norm>
-0.0505115

>  <SCORE.RESTR>
0

>  <SCORE.RESTR.CAVITY>
0

>  <SCORE.RESTR.norm>
0

>  <SCORE.SYSTEM>
0

>  <SCORE.SYSTEM.CONST>
0

>  <SCORE.SYSTEM.DIHEDRAL>
0

>  <SCORE.SYSTEM.SOLV>
0

>  <SCORE.SYSTEM.norm>
0

>  <SCORE.heavy>
37

>  <SCORE.norm>
-0.587279

>  <RMSD>
10.999

$$$$
2oe8_lig
 OpenBabel11021811463D
libRbt.so/2013.1/901 2013/11/27
 37 40  0  0  0  0  0  0  0  0999 V2000
   16.0736   -4.8813   45.4842 C   0  0  1  0  0  0  0  0  0  0  0  0
   16.0165   -3.3084   45.4061 C   0  0  1  0  0  0  0  0  0  0  0  0
   17.4105   -2.7302   45.7272 C   0  0  0  0  0  0  0  0  0  0  0  0
   17.7584   -3.2146   47.1695 C   0  0  1  0  0  0  0  0  0  0  0  0
   17.8003   -4.8252   47.2699 C   0  0  1  0  0  0  0  0  0  0  0  0
   18.1279   -5.3170   48.7103 C   0  0  1  0  0  0  0  0  0  0  0  0
   19.5245   -4.6910   49.1158 C   0  0  1  0  0  0  0  0  0  0  0  0
   19.4463   -3.1325   48.9579 C   0  0  2  0  0  0  0  0  0  0  0  0
   20.0840   -6.5345   50.9005 C   0  0  0  0  0  0  0  0  0  0  0  0
   15.5902   -2.8656   44.0406 N   0  0  0  0  0  0  0  0  0  0  0  0
   19.9125   -5.0805   50.5396 N   0  0  0  0  0  0  0  0  0  0  0  0
   16.9873   -5.4264   44.5240 O   0  0  0  0  0  0  0  0  0  0  0  0
   16.4975   -5.3493   46.8366 O   0  0  0  0  0  0  0  0  0  0  0  0
   19.0600   -2.7020   47.5820 O   0  0  0  0  0  0  0  0  0  0  0  0
   17.0661   -4.8742   49.5572 O   0  0  0  0  0  0  0  0  0  0  0  0
   20.6818   -2.5897   49.2511 O   0  0  0  0  0  0  0  0  0  0  0  0
   20.7435   -1.1687   49.0415 C   0  0  2  0  0  0  0  0  0  0  0  0
   22.1329   -0.6252   49.4534 C   0  0  1  0  0  0  0  0  0  0  0  0
   22.3772   -0.7622   50.9876 C   0  0  2  0  0  0  0  0  0  0  0  0
   21.2631    0.0074   51.7570 C   0  0  1  0  0  0  0  0  0  0  0  0
   19.8809   -0.6530   51.3491 C   0  0  1  0  0  0  0  0  0  0  0  0
   18.6983    0.0294   52.0308 C   0  0  0  0  0  0  0  0  0  0  0  0
   21.4946   -0.1219   53.2241 N   0  0  0  0  0  0  0  0  0  0  0  0
   19.6958   -0.5069   49.8618 O   0  0  0  0  0  0  0  0  0  0  0  0
   23.1171   -1.3430   48.6846 O   0  0  0  0  0  0  0  0  0  0  0  0
   23.6383   -0.2031   51.2897 O   0  0  0  0  0  0  0  0  0  0  0  0
   18.6761    1.3875   51.6787 O   0  0  0  0  0  0  0  0  0  0  0  0
   16.6117   -5.1844   43.1839 C   0  0  1  0  0  0  0  0  0  0  0  0
   17.8596   -4.6356   42.4202 C   0  0  1  0  0  0  0  0  0  0  0  0
   17.4513   -4.3345   40.9486 C   0  0  2  0  0  0  0  0  0  0  0  0
   16.9211   -5.6224   40.2458 C   0  0  1  0  0  0  0  0  0  0  0  0
   15.6683   -6.1898   41.0161 C   0  0  0  0  0  0  0  0  0  0  0  0
   16.0898   -6.5009   42.5121 C   0  0  2  0  0  0  0  0  0  0  0  0
   16.5324   -5.3076   38.8432 N   0  0  0  0  0  0  0  0  0  0  0  0
   14.9094   -7.0365   43.2267 N   0  0  0  0  0  0  0  0  0  0  0  0
   18.3290   -3.4217   43.0360 O   0  0  0  0  0  0  0  0  0  0  0  0
   18.6011   -3.8455   40.2779 O   0  0  0  0  0  0  0  0  0  0  0  0
  1  2  1  0  0  0  0
  1 12  1  6  0  0  0
  1 13  1  0  0  0  0
  2  3  1  0  0  0  0
  2 10  1  6  0  0  0
  4  3  1  6  0  0  0
  4  5  1  0  0  0  0
  4 14  1  0  0  0  0
  5  6  1  0  0  0  0
  5 13  1  1  0  0  0
  6  7  1  0  0  0  0
  6 15  1  1  0  0  0
  7  8  1  0  0  0  0
  7 11  1  1  0  0  0
  8 14  1  0  0  0  0
  8 16  1  6  0  0  0
  9 11  1  0  0  0  0
 17 16  1  1  0  0  0
 17 18  1  0  0  0  0
 17 24  1  0  0  0  0
 18 19  1  0  0  0  0
 18 25  1  6  0  0  0
 19 20  1  0  0  0  0
 19 26  1  6  0  0  0
 20 21  1  0  0  0  0
 20 23  1  1  0  0  0
 21 22  1  1  0  0  0
 21 24  1  0  0  0  0
 22 27  1  0  0  0  0
 28 12  1  1  0  0  0
 28 29  1  0  0  0  0
 28 33  1  0  0  0  0
 29 30  1  0  0  0  0
 29 36  1  1  0  0  0
 30 31  1  0  0  0  0
 30 37  1  6  0  0  0
 31 32  1  0  0  0  0
 31 34  1  6  0  0  0
 32 33  1  0  0  0  0
 33 35  1  1  0  0  0
M  END
>  <CHROM.1>
-63.80337065,60.32257212,175.72912381,177.34022373,59.05984726,131.61400232
18.64656240,-3.31192095,46.96181259,2.24779983,-0.88674082,-1.44614216

>  <Name>
2oe8_lig

>  <RI>
0

>  <Rbt.Current_Directory>
/home/itssahil/PROJECTS/Mol_Feturizer/New_Systems/rnas/2oe8

>  <Rbt.Executable>
rbdock ($Id: //depot/dev/client3/rdock/2013.1/src/exe/rbdock.cxx#4 $)

>  <Rbt.Library>
libRbt.so (2013.1, Build901 2013/11/27)

>  <Rbt.Parameter_File>
/export/apps/rDock/src/rDock_2013.1_src/data/scripts/dock_solv.prm

>  <Rbt.Receptor>
prm/blind_docking_60.prm

>  <SCORE>
-21.747

>  <SCORE.INTER>
-19.5099

>  <SCORE.INTER.CONST>
1

>  <SCORE.INTER.POLAR>
-1.92366

>  <SCORE.INTER.ROT>
6

>  <SCORE.INTER.SOLV>
15.1994

>  <SCORE.INTER.VDW>
-19.2609

>  <SCORE.INTER.norm>
-0.527295

>  <SCORE.INTRA>
-2.23707

>  <SCORE.INTRA.DIHEDRAL>
-9.58817

>  <SCORE.INTRA.DIHEDRAL.0>
16.4056

>  <SCORE.INTRA.POLAR>
0

>  <SCORE.INTRA.POLAR.0>
0

>  <SCORE.INTRA.REPUL>
0

>  <SCORE.INTRA.REPUL.0>
0

>  <SCORE.INTRA.SOLV>
1.37703

>  <SCORE.INTRA.SOLV.lig_0>
-90.9627

>  <SCORE.INTRA.VDW>
1.86849

>  <SCORE.INTRA.VDW.0>
-3.28744

>  <SCORE.INTRA.norm>
-0.0604615

>  <SCORE.RESTR>
0

>  <SCORE.RESTR.CAVITY>
0

>  <SCORE.RESTR.norm>
0

>  <SCORE.SYSTEM>
0

>  <SCORE.SYSTEM.CONST>
0

>  <SCORE.SYSTEM.DIHEDRAL>
0

>  <SCORE.SYSTEM.SOLV>
0

>  <SCORE.SYSTEM.norm>
0

>  <SCORE.heavy>
37

>  <SCORE.norm>
-0.587757

>  <RMSD>
11.003

$$$$
2oe8_lig
 OpenBabel11021811463D
libRbt.so/2013.1/901 2013/11/27
 37 40  0  0  0  0  0  0  0  0999 V2000
   16.7919   -5.3866   45.0955 C   0  0  1  0  0  0  0  0  0  0  0  0
   15.9327   -5.5494   46.4065 C   0  0  1  0  0  0  0  0  0  0  0  0
   16.0268   -4.2561   47.2426 C   0  0  0  0  0  0  0  0  0  0  0  0
   17.5396   -4.0650   47.5755 C   0  0  1  0  0  0  0  0  0  0  0  0
   18.4358   -3.9174   46.2409 C   0  0  1  0  0  0  0  0  0  0  0  0
   19.9491   -3.7455   46.5639 C   0  0  1  0  0  0  0  0  0  0  0  0
   20.0923   -2.4642   47.4829 C   0  0  1  0  0  0  0  0  0  0  0  0
   19.1699   -2.6363   48.7397 C   0  0  2  0  0  0  0  0  0  0  0  0
   22.5322   -1.6920   46.8936 C   0  0  0  0  0  0  0  0  0  0  0  0
   14.5010   -5.8249   46.0651 N   0  0  0  0  0  0  0  0  0  0  0  0
   21.5447   -2.2380   47.8938 N   0  0  0  0  0  0  0  0  0  0  0  0
   16.3068   -4.3172   44.2737 O   0  0  0  0  0  0  0  0  0  0  0  0
   18.2248   -5.1098   45.4084 O   0  0  0  0  0  0  0  0  0  0  0  0
   17.7384   -2.8701   48.3878 O   0  0  0  0  0  0  0  0  0  0  0  0
   20.3763   -4.9389   47.2228 O   0  0  0  0  0  0  0  0  0  0  0  0
   19.2457   -1.4934   49.5112 O   0  0  0  0  0  0  0  0  0  0  0  0
   18.8030   -1.6901   50.8648 C   0  0  2  0  0  0  0  0  0  0  0  0
   18.8810   -0.3606   51.6535 C   0  0  1  0  0  0  0  0  0  0  0  0
   20.3534    0.1202   51.8346 C   0  0  2  0  0  0  0  0  0  0  0  0
   21.1664   -0.9801   52.5786 C   0  0  1  0  0  0  0  0  0  0  0  0
   21.1100   -2.2833   51.6777 C   0  0  1  0  0  0  0  0  0  0  0  0
   21.8633   -3.4493   52.3116 C   0  0  0  0  0  0  0  0  0  0  0  0
   22.5746   -0.5227   52.7532 N   0  0  0  0  0  0  0  0  0  0  0  0
   19.6716   -2.7010   51.5220 O   0  0  0  0  0  0  0  0  0  0  0  0
   18.0821    0.6048   50.9430 O   0  0  0  0  0  0  0  0  0  0  0  0
   20.3438    1.3062   52.6014 O   0  0  0  0  0  0  0  0  0  0  0  0
   23.2347   -3.1541   52.3495 O   0  0  0  0  0  0  0  0  0  0  0  0
   16.8139   -4.3413   42.9554 C   0  0  1  0  0  0  0  0  0  0  0  0
   15.8220   -5.1594   42.0674 C   0  0  1  0  0  0  0  0  0  0  0  0
   16.3848   -5.2208   40.6174 C   0  0  2  0  0  0  0  0  0  0  0  0
   16.5649   -3.7863   40.0314 C   0  0  1  0  0  0  0  0  0  0  0  0
   17.5557   -2.9496   40.9274 C   0  0  0  0  0  0  0  0  0  0  0  0
   16.9760   -2.8842   42.4011 C   0  0  2  0  0  0  0  0  0  0  0  0
   17.1088   -3.8716   38.6478 N   0  0  0  0  0  0  0  0  0  0  0  0
   17.9100   -2.0939   43.2344 N   0  0  0  0  0  0  0  0  0  0  0  0
   15.6840   -6.4995   42.5757 O   0  0  0  0  0  0  0  0  0  0  0  0
   15.4642   -5.9611   39.8329 O   0  0  0  0  0  0  0  0  0  0  0  0
  1  2  1  0  0  0  0
  1 12  1  6  0  0  0
  1 13  1  0  0  0  0
  2  3  1  0  0  0  0
  2 10  1  6  0  0  0
  4  3  1  6  0  0  0
  4  5  1  0  0  0  0
  4 14  1  0  0  0  0
  5  6  1  0  0  0  0
  5 13  1  6  0  0  0
  6  7  1  0  0  0  0
  6 15  1  1  0  0  0
  7  8  1  0  0  0  0
  7 11  1  1  0  0  0
  8 14  1  0  0  0  0
  8 16  1  1  0  0  0
  9 11  1  0  0  0  0
 17 16  1  6  0  0  0
 17 18  1  0  0  0  0
 17 24  1  0  0  0  0
 18 19  1  0  0  0  0
 18 25  1  6  0  0  0
 19 20  1  0  0  0  0
 19 26  1  1  0  0  0
 20 21  1  0  0  0  0
 20 23  1  6  0  0  0
 21 22  1  1  0  0  0
 21 24  1  0  0  0  0
 22 27  1  0  0  0  0
 28 12  1  1  0  0  0
 28 29  1  0  0  0  0
 28 33  1  0  0  0  0
 29 30  1  0  0  0  0
 29 36  1  1  0  0  0
 30 31  1  0  0  0  0
 30 37  1  6  0  0  0
 31 32  1  0  0  0  0
 31 34  1  6  0  0  0
 32 33  1  0  0  0  0
 33 35  1  1  0  0  0
M  END
>  <CHROM.1>
-164.96275720,74.70175691,-161.16103322,-178.47026151,-66.56209867,91.65772250
18.57900130,-3.14304169,46.94014624,2.05127861,-0.57373155,-1.63411762

>  <Name>
2oe8_lig

>  <RI>
0

>  <Rbt.Current_Directory>
/home/itssahil/PROJECTS/Mol_Feturizer/New_Systems/rnas/2oe8

>  <Rbt.Executable>
rbdock ($Id: //depot/dev/client3/rdock/2013.1/src/exe/rbdock.cxx#4 $)

>  <Rbt.Library>
libRbt.so (2013.1, Build901 2013/11/27)

>  <Rbt.Parameter_File>
/export/apps/rDock/src/rDock_2013.1_src/data/scripts/dock_solv.prm

>  <Rbt.Receptor>
prm/blind_docking_100.prm

>  <SCORE>
-30.0085

>  <SCORE.INTER>
-25.1803

>  <SCORE.INTER.CONST>
1

>  <SCORE.INTER.POLAR>
-3.47165

>  <SCORE.INTER.ROT>
6

>  <SCORE.INTER.SOLV>
19.3801

>  <SCORE.INTER.VDW>
-19.2748

>  <SCORE.INTER.norm>
-0.680549

>  <SCORE.INTRA>
-4.82958

>  <SCORE.INTRA.DIHEDRAL>
-9.44126

>  <SCORE.INTRA.DIHEDRAL.0>
16.4056

>  <SCORE.INTRA.POLAR>
0

>  <SCORE.INTRA.POLAR.0>
0

>  <SCORE.INTRA.REPUL>
0

>  <SCORE.INTRA.REPUL.0>
0

>  <SCORE.INTRA.SOLV>
-0.442482

>  <SCORE.INTRA.SOLV.lig_0>
-90.9627

>  <SCORE.INTRA.VDW>
0.112284

>  <SCORE.INTRA.VDW.0>
-3.28744

>  <SCORE.INTRA.norm>
-0.130529

>  <SCORE.RESTR>
0.00136475

>  <SCORE.RESTR.CAVITY>
0.00136475

>  <SCORE.RESTR.norm>
3.6885e-05

>  <SCORE.SYSTEM>
0

>  <SCORE.SYSTEM.CONST>
0

>  <SCORE.SYSTEM.DIHEDRAL>
0

>  <SCORE.SYSTEM.SOLV>
0

>  <SCORE.SYSTEM.norm>
0

>  <SCORE.heavy>
37

>  <SCORE.norm>
-0.811042

>  <RMSD>
11.004

$$$$
2oe8_lig
 OpenBabel11021811463D
libRbt.so/2013.1/901 2013/11/27
 37 40  0  0  0  0  0  0  0  0999 V2000
   17.3191   -5.0894   45.1070 C   0  0  1  0  0  0  0  0  0  0  0  0
   16.4459   -5.2140   46.4129 C   0  0  1  0  0  0  0  0  0  0  0  0
   16.5228   -3.8930   47.2065 C   0  0  0  0  0  0  0  0  0  0  0  0
   18.0305   -3.6813   47.5499 C   0  0  1  0  0  0  0  0  0  0  0  0
   18.9410   -3.5726   46.2213 C   0  0  1  0  0  0  0  0  0  0  0  0
   20.4495   -3.3805   46.5554 C   0  0  1  0  0  0  0  0  0  0  0  0
   20.5745   -2.0684   47.4327 C   0  0  1  0  0  0  0  0  0  0  0  0
   19.6388   -2.2044   48.6840 C   0  0  2  0  0  0  0  0  0  0  0  0
   23.0196   -1.3141   46.8420 C   0  0  0  0  0  0  0  0  0  0  0  0
   15.0198   -5.5097   46.0648 N   0  0  0  0  0  0  0  0  0  0  0  0
   22.0207   -1.8195   47.8522 N   0  0  0  0  0  0  0  0  0  0  0  0
   16.8371   -4.0511   44.2447 O   0  0  0  0  0  0  0  0  0  0  0  0
   18.7466   -4.7934   45.4266 O   0  0  0  0  0  0  0  0  0  0  0  0
   18.2128   -2.4589   48.3241 O   0  0  0  0  0  0  0  0  0  0  0  0
   20.8762   -4.5485   47.2585 O   0  0  0  0  0  0  0  0  0  0  0  0
   19.6989   -1.0361   49.4178 O   0  0  0  0  0  0  0  0  0  0  0  0
   19.8565   -1.2580   50.8295 C   0  0  2  0  0  0  0  0  0  0  0  0
   18.6644   -0.6472   51.6052 C   0  0  1  0  0  0  0  0  0  0  0  0
   18.6390    0.9084   51.4975 C   0  0  2  0  0  0  0  0  0  0  0  0
   19.9759    1.4846   52.0506 C   0  0  1  0  0  0  0  0  0  0  0  0
   21.1411    0.8809   51.1610 C   0  0  1  0  0  0  0  0  0  0  0  0
   22.5158    1.3615   51.6171 C   0  0  0  0  0  0  0  0  0  0  0  0
   19.9540    2.9718   51.9490 N   0  0  0  0  0  0  0  0  0  0  0  0
   21.1177   -0.6194   51.2877 O   0  0  0  0  0  0  0  0  0  0  0  0
   17.4630   -1.2437   51.0802 O   0  0  0  0  0  0  0  0  0  0  0  0
   17.5576    1.3906   52.2671 O   0  0  0  0  0  0  0  0  0  0  0  0
   23.5039    0.7992   50.7945 O   0  0  0  0  0  0  0  0  0  0  0  0
   17.1686   -4.2447   42.8851 C   0  0  1  0  0  0  0  0  0  0  0  0
   15.9020   -4.7868   42.1478 C   0  0  1  0  0  0  0  0  0  0  0  0
   16.2621   -5.0347   40.6539 C   0  0  2  0  0  0  0  0  0  0  0  0
   16.7501   -3.7176   39.9754 C   0  0  1  0  0  0  0  0  0  0  0  0
   18.0216   -3.1571   40.7197 C   0  0  0  0  0  0  0  0  0  0  0  0
   17.6489   -2.9001   42.2386 C   0  0  2  0  0  0  0  0  0  0  0  0
   17.0933   -3.9817   38.5505 N   0  0  0  0  0  0  0  0  0  0  0  0
   18.8466   -2.3706   42.9288 N   0  0  0  0  0  0  0  0  0  0  0  0
   15.4706   -6.0264   42.7399 O   0  0  0  0  0  0  0  0  0  0  0  0
   15.0960   -5.5185   40.0081 O   0  0  0  0  0  0  0  0  0  0  0  0
  1  2  1  0  0  0  0
  1 12  1  6  0  0  0
  1 13  1  0  0  0  0
  2  3  1  0  0  0  0
  2 10  1  6  0  0  0
  4  3  1  6  0  0  0
  4  5  1  0  0  0  0
  4 14  1  0  0  0  0
  5  6  1  0  0  0  0
  5 13  1  1  0  0  0
  6  7  1  0  0  0  0
  6 15  1  1  0  0  0
  7  8  1  0  0  0  0
  7 11  1  1  0  0  0
  8 14  1  0  0  0  0
  8 16  1  6  0  0  0
  9 11  1  0  0  0  0
 17 16  1  6  0  0  0
 17 18  1  0  0  0  0
 17 24  1  0  0  0  0
 18 19  1  0  0  0  0
 18 25  1  6  0  0  0
 19 20  1  0  0  0  0
 19 26  1  1  0  0  0
 20 21  1  0  0  0  0
 20 23  1  6  0  0  0
 21 22  1  1  0  0  0
 21 24  1  0  0  0  0
 22 27  1  0  0  0  0
 28 12  1  1  0  0  0
 28 29  1  0  0  0  0
 28 33  1  0  0  0  0
 29 30  1  0  0  0  0
 29 36  1  1  0  0  0
 30 31  1  0  0  0  0
 30 37  1  6  0  0  0
 31 32  1  0  0  0  0
 31 34  1  6  0  0  0
 32 33  1  0  0  0  0
 33 35  1  1  0  0  0
M  END
>  <CHROM.1>
-154.52954170,74.08502283,-133.95867250,-119.89852089,-179.87305754,101.95316006
18.68874437,-2.43852957,46.78177581,1.94820085,-0.41405646,-1.90325455

>  <Name>
2oe8_lig

>  <RI>
0

>  <Rbt.Current_Directory>
/home/itssahil/PROJECTS/Mol_Feturizer/New_Systems/rnas/2oe8

>  <Rbt.Executable>
rbdock ($Id: //depot/dev/client3/rdock/2013.1/src/exe/rbdock.cxx#4 $)

>  <Rbt.Library>
libRbt.so (2013.1, Build901 2013/11/27)

>  <Rbt.Parameter_File>
/export/apps/rDock/src/rDock_2013.1_src/data/scripts/dock_solv.prm

>  <Rbt.Receptor>
prm/blind_docking_100.prm

>  <SCORE>
-18.8609

>  <SCORE.INTER>
-20.6753

>  <SCORE.INTER.CONST>
1

>  <SCORE.INTER.POLAR>
-2.93286

>  <SCORE.INTER.ROT>
6

>  <SCORE.INTER.SOLV>
25.0724

>  <SCORE.INTER.VDW>
-19.9648

>  <SCORE.INTER.norm>
-0.558793

>  <SCORE.INTRA>
1.8144

>  <SCORE.INTRA.DIHEDRAL>
5.67157

>  <SCORE.INTRA.DIHEDRAL.0>
16.4056

>  <SCORE.INTRA.POLAR>
0

>  <SCORE.INTRA.POLAR.0>
0

>  <SCORE.INTRA.REPUL>
0

>  <SCORE.INTRA.REPUL.0>
0

>  <SCORE.INTRA.SOLV>
-0.497308

>  <SCORE.INTRA.SOLV.lig_0>
-90.9627

>  <SCORE.INTRA.VDW>
-0.772732

>  <SCORE.INTRA.VDW.0>
-3.28744

>  <SCORE.INTRA.norm>
0.0490378

>  <SCORE.RESTR>
0

>  <SCORE.RESTR.CAVITY>
0

>  <SCORE.RESTR.norm>
0

>  <SCORE.SYSTEM>
0

>  <SCORE.SYSTEM.CONST>
0

>  <SCORE.SYSTEM.DIHEDRAL>
0

>  <SCORE.SYSTEM.SOLV>
0

>  <SCORE.SYSTEM.norm>
0

>  <SCORE.heavy>
37

>  <SCORE.norm>
-0.509755

>  <RMSD>
11.006

$$$$
2oe8_lig
 OpenBabel11021811463D
libRbt.so/2013.1/901 2013/11/27
 37 40  0  0  0  0  0  0  0  0999 V2000
   16.9549   -5.3342   45.0086 C   0  0  1  0  0  0  0  0  0  0  0  0
   16.0458   -5.5290   46.2809 C   0  0  1  0  0  0  0  0  0  0  0  0
   16.0901   -4.2488   47.1410 C   0  0  0  0  0  0  0  0  0  0  0  0
   17.5858   -4.0455   47.5379 C   0  0  1  0  0  0  0  0  0  0  0  0
   18.5330   -3.8651   46.2433 C   0  0  1  0  0  0  0  0  0  0  0  0
   20.0298   -3.6808   46.6299 C   0  0  1  0  0  0  0  0  0  0  0  0
   20.1200   -2.4134   47.5746 C   0  0  1  0  0  0  0  0  0  0  0  0
   19.1500   -2.6173   48.7901 C   0  0  2  0  0  0  0  0  0  0  0  0
   22.5866   -1.6594   47.0807 C   0  0  0  0  0  0  0  0  0  0  0  0
   14.6325   -5.8156   45.8775 N   0  0  0  0  0  0  0  0  0  0  0  0
   21.5517   -2.1770   48.0476 N   0  0  0  0  0  0  0  0  0  0  0  0
   16.4901   -4.2571   44.1854 O   0  0  0  0  0  0  0  0  0  0  0  0
   18.3705   -5.0458   45.3836 O   0  0  0  0  0  0  0  0  0  0  0  0
   17.7368   -2.8621   48.3769 O   0  0  0  0  0  0  0  0  0  0  0  0
   20.4450   -4.8799   47.2861 O   0  0  0  0  0  0  0  0  0  0  0  0
   19.1804   -1.4867   49.5825 O   0  0  0  0  0  0  0  0  0  0  0  0
   18.8172   -1.7403   50.9502 C   0  0  2  0  0  0  0  0  0  0  0  0
   18.8655   -0.4285   51.7704 C   0  0  1  0  0  0  0  0  0  0  0  0
   20.3182    0.1254   51.8924 C   0  0  2  0  0  0  0  0  0  0  0  0
   21.2237   -0.9482   52.5652 C   0  0  1  0  0  0  0  0  0  0  0  0
   21.1898   -2.2298   51.6327 C   0  0  1  0  0  0  0  0  0  0  0  0
   22.0337   -3.3694   52.1968 C   0  0  0  0  0  0  0  0  0  0  0  0
   22.6132   -0.4209   52.6833 N   0  0  0  0  0  0  0  0  0  0  0  0
   19.7691   -2.7195   51.5361 O   0  0  0  0  0  0  0  0  0  0  0  0
   17.9828    0.5103   51.1265 O   0  0  0  0  0  0  0  0  0  0  0  0
   20.2855    1.2897   52.6910 O   0  0  0  0  0  0  0  0  0  0  0  0
   22.1348   -4.3928   51.2420 O   0  0  0  0  0  0  0  0  0  0  0  0
   16.9348   -4.3347   42.8467 C   0  0  1  0  0  0  0  0  0  0  0  0
   15.8597   -5.1120   42.0211 C   0  0  1  0  0  0  0  0  0  0  0  0
   16.3520   -5.2326   40.5493 C   0  0  2  0  0  0  0  0  0  0  0  0
   16.5849   -3.8219   39.9254 C   0  0  1  0  0  0  0  0  0  0  0  0
   17.6603   -3.0257   40.7587 C   0  0  0  0  0  0  0  0  0  0  0  0
   17.1524   -2.8998   42.2548 C   0  0  2  0  0  0  0  0  0  0  0  0
   17.0600   -3.9640   38.5212 N   0  0  0  0  0  0  0  0  0  0  0  0
   18.1658   -2.1480   43.0288 N   0  0  0  0  0  0  0  0  0  0  0  0
   15.6704   -6.4323   42.5636 O   0  0  0  0  0  0  0  0  0  0  0  0
   15.3570   -5.9343   39.8223 O   0  0  0  0  0  0  0  0  0  0  0  0
  1  2  1  0  0  0  0
  1 12  1  1  0  0  0
  1 13  1  0  0  0  0
  2  3  1  0  0  0  0
  2 10  1  6  0  0  0
  4  3  1  6  0  0  0
  4  5  1  0  0  0  0
  4 14  1  0  0  0  0
  5  6  1  0  0  0  0
  5 13  1  6  0  0  0
  6  7  1  0  0  0  0
  6 15  1  1  0  0  0
  7  8  1  0  0  0  0
  7 11  1  1  0  0  0
  8 14  1  0  0  0  0
  8 16  1  1  0  0  0
  9 11  1  0  0  0  0
 17 16  1  6  0  0  0
 17 18  1  0  0  0  0
 17 24  1  0  0  0  0
 18 19  1  0  0  0  0
 18 25  1  6  0  0  0
 19 20  1  0  0  0  0
 19 26  1  1  0  0  0
 20 21  1  0  0  0  0
 20 23  1  6  0  0  0
 21 22  1  1  0  0  0
 21 24  1  0  0  0  0
 22 27  1  0  0  0  0
 28 12  1  1  0  0  0
 28 29  1  0  0  0  0
 28 33  1  0  0  0  0
 29 30  1  0  0  0  0
 29 36  1  1  0  0  0
 30 31  1  0  0  0  0
 30 37  1  6  0  0  0
 31 32  1  0  0  0  0
 31 34  1  6  0  0  0
 32 33  1  0  0  0  0
 33 35  1  1  0  0  0
M  END
>  <CHROM.1>
-158.44197802,72.04113411,-155.12052463,-179.62904022,-171.00005251,91.83851322
18.59398182,-3.16795587,46.89039786,2.04575771,-0.61562838,-1.61645828

>  <Name>
2oe8_lig

>  <RI>
0

>  <Rbt.Current_Directory>
/home/itssahil/PROJECTS/Mol_Feturizer/New_Systems/rnas/2oe8

>  <Rbt.Executable>
rbdock ($Id: //depot/dev/client3/rdock/2013.1/src/exe/rbdock.cxx#4 $)

>  <Rbt.Library>
libRbt.so (2013.1, Build901 2013/11/27)

>  <Rbt.Parameter_File>
/export/apps/rDock/src/rDock_2013.1_src/data/scripts/dock_solv.prm

>  <Rbt.Receptor>
prm/blind_docking_80.prm

>  <SCORE>
-30.118

>  <SCORE.INTER>
-25.6474

>  <SCORE.INTER.CONST>
1

>  <SCORE.INTER.POLAR>
-3.413

>  <SCORE.INTER.ROT>
6

>  <SCORE.INTER.SOLV>
18.6953

>  <SCORE.INTER.VDW>
-19.5534

>  <SCORE.INTER.norm>
-0.693174

>  <SCORE.INTRA>
-4.47061

>  <SCORE.INTRA.DIHEDRAL>
-7.32733

>  <SCORE.INTRA.DIHEDRAL.0>
16.4056

>  <SCORE.INTRA.POLAR>
0

>  <SCORE.INTRA.POLAR.0>
0

>  <SCORE.INTRA.REPUL>
0

>  <SCORE.INTRA.REPUL.0>
0

>  <SCORE.INTRA.SOLV>
-0.927691

>  <SCORE.INTRA.SOLV.lig_0>
-90.9627

>  <SCORE.INTRA.VDW>
-0.343103

>  <SCORE.INTRA.VDW.0>
-3.28744

>  <SCORE.INTRA.norm>
-0.120827

>  <SCORE.RESTR>
0

>  <SCORE.RESTR.CAVITY>
0

>  <SCORE.RESTR.norm>
0

>  <SCORE.SYSTEM>
0

>  <SCORE.SYSTEM.CONST>
0

>  <SCORE.SYSTEM.DIHEDRAL>
0

>  <SCORE.SYSTEM.SOLV>
0

>  <SCORE.SYSTEM.norm>
0

>  <SCORE.heavy>
37

>  <SCORE.norm>
-0.814001

>  <RMSD>
11.006

$$$$
2oe8_lig
 OpenBabel11021811463D
libRbt.so/2013.1/901 2013/11/27
 37 40  0  0  0  0  0  0  0  0999 V2000
   16.9194   -4.7978   44.3850 C   0  0  1  0  0  0  0  0  0  0  0  0
   16.3366   -5.0678   45.8240 C   0  0  1  0  0  0  0  0  0  0  0  0
   16.7186   -3.8999   46.7571 C   0  0  0  0  0  0  0  0  0  0  0  0
   18.2786   -3.8535   46.7761 C   0  0  1  0  0  0  0  0  0  0  0  0
   18.8912   -3.5980   45.3045 C   0  0  1  0  0  0  0  0  0  0  0  0
   20.4478   -3.5693   45.3116 C   0  0  1  0  0  0  0  0  0  0  0  0
   20.8936   -2.4270   46.3133 C   0  0  1  0  0  0  0  0  0  0  0  0
   20.2373   -2.6952   47.7122 C   0  0  2  0  0  0  0  0  0  0  0  0
   23.0539   -1.2613   47.2464 C   0  0  0  0  0  0  0  0  0  0  0  0
   14.8462   -5.2022   45.7702 N   0  0  0  0  0  0  0  0  0  0  0  0
   22.4139   -2.3517   46.4247 N   0  0  0  0  0  0  0  0  0  0  0  0
   16.3760   -3.6031   43.8092 O   0  0  0  0  0  0  0  0  0  0  0  0
   18.4052   -4.6586   44.4111 O   0  0  0  0  0  0  0  0  0  0  0  0
   18.7487   -2.7870   47.6528 O   0  0  0  0  0  0  0  0  0  0  0  0
   20.8900   -4.8622   45.7282 O   0  0  0  0  0  0  0  0  0  0  0  0
   20.5743   -1.6669   48.5701 O   0  0  0  0  0  0  0  0  0  0  0  0
   20.1382   -1.8874   49.9222 C   0  0  2  0  0  0  0  0  0  0  0  0
   20.2800   -0.5877   50.7506 C   0  0  1  0  0  0  0  0  0  0  0  0
   21.7731   -0.1743   50.9291 C   0  0  2  0  0  0  0  0  0  0  0  0
   22.5472   -1.3302   51.6289 C   0  0  1  0  0  0  0  0  0  0  0  0
   22.4267   -2.6011   50.6889 C   0  0  1  0  0  0  0  0  0  0  0  0
   23.1374   -3.8166   51.2774 C   0  0  0  0  0  0  0  0  0  0  0  0
   23.9750   -0.9373   51.8009 N   0  0  0  0  0  0  0  0  0  0  0  0
   20.9706   -2.9537   50.5374 O   0  0  0  0  0  0  0  0  0  0  0  0
   19.5147    0.4317   50.0798 O   0  0  0  0  0  0  0  0  0  0  0  0
   21.8211    0.9863   51.7322 O   0  0  0  0  0  0  0  0  0  0  0  0
   22.5682   -4.1342   52.5201 O   0  0  0  0  0  0  0  0  0  0  0  0
   16.1604   -3.6933   42.4159 C   0  0  1  0  0  0  0  0  0  0  0  0
   15.1246   -2.5955   42.0116 C   0  0  1  0  0  0  0  0  0  0  0  0
   14.8537   -2.7040   40.4827 C   0  0  2  0  0  0  0  0  0  0  0  0
   16.1727   -2.5160   39.6712 C   0  0  1  0  0  0  0  0  0  0  0  0
   17.2281   -3.6128   40.0807 C   0  0  0  0  0  0  0  0  0  0  0  0
   17.5058   -3.4948   41.6367 C   0  0  2  0  0  0  0  0  0  0  0  0
   15.8884   -2.6295   38.2138 N   0  0  0  0  0  0  0  0  0  0  0  0
   18.5003   -4.5252   42.0117 N   0  0  0  0  0  0  0  0  0  0  0  0
   13.8880   -2.7880   42.7235 O   0  0  0  0  0  0  0  0  0  0  0  0
   13.9179   -1.6944   40.1420 O   0  0  0  0  0  0  0  0  0  0  0  0
  1  2  1  0  0  0  0
  1 12  1  1  0  0  0
  1 13  1  0  0  0  0
  2  3  1  0  0  0  0
  2 10  1  6  0  0  0
  4  3  1  6  0  0  0
  4  5  1  0  0  0  0
  4 14  1  0  0  0  0
  5  6  1  0  0  0  0
  5 13  1  6  0  0  0
  6  7  1  0  0  0  0
  6 15  1  1  0  0  0
  7  8  1  0  0  0  0
  7 11  1  1  0  0  0
  8 14  1  0  0  0  0
  8 16  1  1  0  0  0
  9 11  1  0  0  0  0
 17 16  1  6  0  0  0
 17 18  1  0  0  0  0
 17 24  1  0  0  0  0
 18 19  1  0  0  0  0
 18 25  1  6  0  0  0
 19 20  1  0  0  0  0
 19 26  1  1  0  0  0
 20 21  1  0  0  0  0
 20 23  1  6  0  0  0
 21 22  1  1  0  0  0
 21 24  1  0  0  0  0
 22 27  1  0  0  0  0
 28 12  1  1  0  0  0
 28 29  1  0  0  0  0
 28 33  1  0  0  0  0
 29 30  1  0  0  0  0
 29 36  1  1  0  0  0
 30 31  1  0  0  0  0
 30 37  1  6  0  0  0
 31 32  1  0  0  0  0
 31 34  1  6  0  0  0
 32 33  1  0  0  0  0
 33 35  1  1  0  0  0
M  END
>  <CHROM.1>
-143.58565937,175.31908022,-173.83123632,-168.12517281,59.97152889,159.62072641
18.99506199,-2.78436649,46.24186202,2.15050224,0.03745923,-1.76294983

>  <Name>
2oe8_lig

>  <RI>
0

>  <Rbt.Current_Directory>
/home/itssahil/PROJECTS/Mol_Feturizer/New_Systems/rnas/2oe8

>  <Rbt.Executable>
rbdock ($Id: //depot/dev/client3/rdock/2013.1/src/exe/rbdock.cxx#4 $)

>  <Rbt.Library>
libRbt.so (2013.1, Build901 2013/11/27)

>  <Rbt.Parameter_File>
/export/apps/rDock/src/rDock_2013.1_src/data/scripts/dock_solv.prm

>  <Rbt.Receptor>
prm/blind_docking_60.prm

>  <SCORE>
-20.0937

>  <SCORE.INTER>
-17.7524

>  <SCORE.INTER.CONST>
1

>  <SCORE.INTER.POLAR>
-1.6245

>  <SCORE.INTER.ROT>
6

>  <SCORE.INTER.SOLV>
14.8248

>  <SCORE.INTER.VDW>
-18.9615

>  <SCORE.INTER.norm>
-0.479794

>  <SCORE.INTRA>
-2.3413

>  <SCORE.INTRA.DIHEDRAL>
-8.84867

>  <SCORE.INTRA.DIHEDRAL.0>
16.4056

>  <SCORE.INTRA.POLAR>
0

>  <SCORE.INTRA.POLAR.0>
0

>  <SCORE.INTRA.REPUL>
0

>  <SCORE.INTRA.REPUL.0>
0

>  <SCORE.INTRA.SOLV>
0.409817

>  <SCORE.INTRA.SOLV.lig_0>
-90.9627

>  <SCORE.INTRA.VDW>
1.87813

>  <SCORE.INTRA.VDW.0>
-3.28744

>  <SCORE.INTRA.norm>
-0.0632782

>  <SCORE.RESTR>
0

>  <SCORE.RESTR.CAVITY>
0

>  <SCORE.RESTR.norm>
0

>  <SCORE.SYSTEM>
0

>  <SCORE.SYSTEM.CONST>
0

>  <SCORE.SYSTEM.DIHEDRAL>
0

>  <SCORE.SYSTEM.SOLV>
0

>  <SCORE.SYSTEM.norm>
0

>  <SCORE.heavy>
37

>  <SCORE.norm>
-0.543072

>  <RMSD>
11.012

$$$$
2oe8_lig
 OpenBabel11021811463D
libRbt.so/2013.1/901 2013/11/27
 37 40  0  0  0  0  0  0  0  0999 V2000
   16.7465   -5.3810   45.0537 C   0  0  1  0  0  0  0  0  0  0  0  0
   15.8806   -5.5367   46.3611 C   0  0  1  0  0  0  0  0  0  0  0  0
   15.9856   -4.2459   47.1999 C   0  0  0  0  0  0  0  0  0  0  0  0
   17.4990   -4.0717   47.5388 C   0  0  1  0  0  0  0  0  0  0  0  0
   18.4018   -3.9315   46.2079 C   0  0  1  0  0  0  0  0  0  0  0  0
   19.9156   -3.7765   46.5368 C   0  0  1  0  0  0  0  0  0  0  0  0
   20.0691   -2.4983   47.4586 C   0  0  1  0  0  0  0  0  0  0  0  0
   19.1403   -2.6626   48.7116 C   0  0  2  0  0  0  0  0  0  0  0  0
   21.8925   -1.1128   48.7439 C   0  0  0  0  0  0  0  0  0  0  0  0
   14.4473   -5.7962   46.0139 N   0  0  0  0  0  0  0  0  0  0  0  0
   21.5223   -2.2886   47.8754 N   0  0  0  0  0  0  0  0  0  0  0  0
   16.2761   -4.3050   44.2320 O   0  0  0  0  0  0  0  0  0  0  0  0
   18.1811   -5.1202   45.3724 O   0  0  0  0  0  0  0  0  0  0  0  0
   17.7076   -2.8804   48.3540 O   0  0  0  0  0  0  0  0  0  0  0  0
   20.3275   -4.9755   47.1952 O   0  0  0  0  0  0  0  0  0  0  0  0
   19.2254   -1.5220   49.4854 O   0  0  0  0  0  0  0  0  0  0  0  0
   18.7743   -1.7158   50.8366 C   0  0  2  0  0  0  0  0  0  0  0  0
   18.8828   -0.3934   51.6336 C   0  0  1  0  0  0  0  0  0  0  0  0
   20.3661    0.0498   51.8215 C   0  0  2  0  0  0  0  0  0  0  0  0
   21.1497   -1.0747   52.5609 C   0  0  1  0  0  0  0  0  0  0  0  0
   21.0636   -2.3707   51.6519 C   0  0  1  0  0  0  0  0  0  0  0  0
   21.7863   -3.5586   52.2807 C   0  0  0  0  0  0  0  0  0  0  0  0
   22.5682   -0.6531   52.7420 N   0  0  0  0  0  0  0  0  0  0  0  0
   19.6159   -2.7518   51.4899 O   0  0  0  0  0  0  0  0  0  0  0  0
   18.1099    0.5956   50.9268 O   0  0  0  0  0  0  0  0  0  0  0  0
   20.3835    1.2310   52.5954 O   0  0  0  0  0  0  0  0  0  0  0  0
   23.1579   -3.2764   52.3715 O   0  0  0  0  0  0  0  0  0  0  0  0
   16.7788   -4.3388   42.9122 C   0  0  1  0  0  0  0  0  0  0  0  0
   15.7853   -5.1655   42.0340 C   0  0  1  0  0  0  0  0  0  0  0  0
   16.3434   -5.2376   40.5827 C   0  0  2  0  0  0  0  0  0  0  0  0
   16.5192   -3.8075   39.9848 C   0  0  1  0  0  0  0  0  0  0  0  0
   17.5116   -2.9621   40.8708 C   0  0  0  0  0  0  0  0  0  0  0  0
   16.9366   -2.8859   42.3458 C   0  0  2  0  0  0  0  0  0  0  0  0
   17.0586   -3.9030   38.6000 N   0  0  0  0  0  0  0  0  0  0  0  0
   17.8722   -2.0875   43.1696 N   0  0  0  0  0  0  0  0  0  0  0  0
   15.6511   -6.5017   42.5535 O   0  0  0  0  0  0  0  0  0  0  0  0
   15.4214   -5.9856   39.8072 O   0  0  0  0  0  0  0  0  0  0  0  0
  1  2  1  0  0  0  0
  1 12  1  6  0  0  0
  1 13  1  0  0  0  0
  2  3  1  0  0  0  0
  2 10  1  6  0  0  0
  4  3  1  6  0  0  0
  4  5  1  0  0  0  0
  4 14  1  0  0  0  0
  5  6  1  0  0  0  0
  5 13  1  6  0  0  0
  6  7  1  0  0  0  0
  6 15  1  1  0  0  0
  7  8  1  0  0  0  0
  7 11  1  1  0  0  0
  8 14  1  0  0  0  0
  8 16  1  1  0  0  0
  9 11  1  0  0  0  0
 17 16  1  6  0  0  0
 17 18  1  0  0  0  0
 17 24  1  0  0  0  0
 18 19  1  0  0  0  0
 18 25  1  6  0  0  0
 19 20  1  0  0  0  0
 19 26  1  1  0  0  0
 20 21  1  0  0  0  0
 20 23  1  6  0  0  0
 21 22  1  1  0  0  0
 21 24  1  0  0  0  0
 22 27  1  0  0  0  0
 28 12  1  1  0  0  0
 28 29  1  0  0  0  0
 28 33  1  0  0  0  0
 29 30  1  0  0  0  0
 29 36  1  1  0  0  0
 30 31  1  0  0  0  0
 30 37  1  6  0  0  0
 31 32  1  0  0  0  0
 31 34  1  6  0  0  0
 32 33  1  0  0  0  0
 33 35  1  1  0  0  0
M  END
>  <CHROM.1>
-164.44939549,179.22040356,-161.22008880,-179.27978114,-64.29078429,90.58337163
18.52890039,-3.15621068,46.96329353,2.13459967,-0.75115669,-1.49856480

>  <Name>
2oe8_lig

>  <RI>
0

>  <Rbt.Current_Directory>
/home/itssahil/PROJECTS/Mol_Feturizer/New_Systems/rnas/2oe8

>  <Rbt.Executable>
rbdock ($Id: //depot/dev/client3/rdock/2013.1/src/exe/rbdock.cxx#4 $)

>  <Rbt.Library>
libRbt.so (2013.1, Build901 2013/11/27)

>  <Rbt.Parameter_File>
/export/apps/rDock/src/rDock_2013.1_src/data/scripts/dock_solv.prm

>  <Rbt.Receptor>
prm/blind_docking_100.prm

>  <SCORE>
-28.9362

>  <SCORE.INTER>
-24.9969

>  <SCORE.INTER.CONST>
1

>  <SCORE.INTER.POLAR>
-3.45911

>  <SCORE.INTER.ROT>
6

>  <SCORE.INTER.SOLV>
18.8114

>  <SCORE.INTER.VDW>
-19.0047

>  <SCORE.INTER.norm>
-0.675591

>  <SCORE.INTRA>
-3.93932

>  <SCORE.INTRA.DIHEDRAL>
-9.84908

>  <SCORE.INTRA.DIHEDRAL.0>
16.4056

>  <SCORE.INTRA.POLAR>
0

>  <SCORE.INTRA.POLAR.0>
0

>  <SCORE.INTRA.REPUL>
0

>  <SCORE.INTRA.REPUL.0>
0

>  <SCORE.INTRA.SOLV>
0.175192

>  <SCORE.INTRA.SOLV.lig_0>
-90.9627

>  <SCORE.INTRA.VDW>
0.897627

>  <SCORE.INTRA.VDW.0>
-3.28744

>  <SCORE.INTRA.norm>
-0.106468

>  <SCORE.RESTR>
0

>  <SCORE.RESTR.CAVITY>
0

>  <SCORE.RESTR.norm>
0

>  <SCORE.SYSTEM>
0

>  <SCORE.SYSTEM.CONST>
0

>  <SCORE.SYSTEM.DIHEDRAL>
0

>  <SCORE.SYSTEM.SOLV>
0

>  <SCORE.SYSTEM.norm>
0

>  <SCORE.heavy>
37

>  <SCORE.norm>
-0.782059

>  <RMSD>
11.021

$$$$
2oe8_lig
 OpenBabel11021811463D
libRbt.so/2013.1/901 2013/11/27
 37 40  0  0  0  0  0  0  0  0999 V2000
   15.2340   -5.3166   44.3148 C   0  0  1  0  0  0  0  0  0  0  0  0
   14.7429   -5.6535   45.7738 C   0  0  1  0  0  0  0  0  0  0  0  0
   15.2590   -4.5743   46.7482 C   0  0  0  0  0  0  0  0  0  0  0  0
   16.8162   -4.6120   46.6507 C   0  0  1  0  0  0  0  0  0  0  0  0
   17.3339   -4.2890   45.1561 C   0  0  1  0  0  0  0  0  0  0  0  0
   18.8859   -4.3435   45.0458 C   0  0  1  0  0  0  0  0  0  0  0  0
   19.4690   -3.2979   46.0820 C   0  0  1  0  0  0  0  0  0  0  0  0
   18.9018   -3.6262   47.5069 C   0  0  2  0  0  0  0  0  0  0  0  0
   21.7562   -2.2196   46.7908 C   0  0  0  0  0  0  0  0  0  0  0  0
   13.2472   -5.7046   45.8256 N   0  0  0  0  0  0  0  0  0  0  0  0
   20.9952   -3.3111   46.0814 N   0  0  0  0  0  0  0  0  0  0  0  0
   14.7204   -4.0582   43.8603 O   0  0  0  0  0  0  0  0  0  0  0  0
   16.7234   -5.2587   44.2360 O   0  0  0  0  0  0  0  0  0  0  0  0
   17.4100   -3.6346   47.5557 O   0  0  0  0  0  0  0  0  0  0  0  0
   19.2815   -5.6836   45.3433 O   0  0  0  0  0  0  0  0  0  0  0  0
   19.3595   -2.6784   48.4009 O   0  0  0  0  0  0  0  0  0  0  0  0
   18.7615   -2.7890   49.7036 C   0  0  2  0  0  0  0  0  0  0  0  0
   19.4241   -1.7921   50.6848 C   0  0  1  0  0  0  0  0  0  0  0  0
   20.9174   -2.1512   50.9552 C   0  0  2  0  0  0  0  0  0  0  0  0
   21.0031   -3.5941   51.5349 C   0  0  1  0  0  0  0  0  0  0  0  0
   20.3819   -4.5656   50.4471 C   0  0  1  0  0  0  0  0  0  0  0  0
   20.3930   -6.0205   50.9074 C   0  0  0  0  0  0  0  0  0  0  0  0
   22.4299   -3.9397   51.7946 N   0  0  0  0  0  0  0  0  0  0  0  0
   18.9473   -4.1731   50.2118 O   0  0  0  0  0  0  0  0  0  0  0  0
   19.2803   -0.4757   50.1179 O   0  0  0  0  0  0  0  0  0  0  0  0
   21.4348   -1.2296   51.8919 O   0  0  0  0  0  0  0  0  0  0  0  0
   19.9974   -6.8493   49.8463 O   0  0  0  0  0  0  0  0  0  0  0  0
   15.0085   -3.7853   42.5045 C   0  0  1  0  0  0  0  0  0  0  0  0
   16.5083   -3.3592   42.4018 C   0  0  1  0  0  0  0  0  0  0  0  0
   16.8314   -3.0248   40.9163 C   0  0  2  0  0  0  0  0  0  0  0  0
   16.5646   -4.2585   39.9997 C   0  0  1  0  0  0  0  0  0  0  0  0
   15.0558   -4.7026   40.1053 C   0  0  0  0  0  0  0  0  0  0  0  0
   14.7327   -5.0481   41.6181 C   0  0  2  0  0  0  0  0  0  0  0  0
   16.8754   -3.9121   38.5851 N   0  0  0  0  0  0  0  0  0  0  0  0
   13.3159   -5.4676   41.7076 N   0  0  0  0  0  0  0  0  0  0  0  0
   16.7539   -2.1936   43.2107 O   0  0  0  0  0  0  0  0  0  0  0  0
   18.1972   -2.6488   40.8505 O   0  0  0  0  0  0  0  0  0  0  0  0
  1  2  1  0  0  0  0
  1 12  1  1  0  0  0
  1 13  1  0  0  0  0
  2  3  1  0  0  0  0
  2 10  1  6  0  0  0
  4  3  1  6  0  0  0
  4  5  1  0  0  0  0
  4 14  1  0  0  0  0
  5  6  1  0  0  0  0
  5 13  1  6  0  0  0
  6  7  1  0  0  0  0
  6 15  1  1  0  0  0
  7  8  1  0  0  0  0
  7 11  1  1  0  0  0
  8 14  1  0  0  0  0
  8 16  1  1  0  0  0
  9 11  1  0  0  0  0
 17 16  1  6  0  0  0
 17 18  1  0  0  0  0
 17 24  1  0  0  0  0
 18 19  1  0  0  0  0
 18 25  1  6  0  0  0
 19 20  1  0  0  0  0
 19 26  1  1  0  0  0
 20 21  1  0  0  0  0
 20 23  1  6  0  0  0
 21 22  1  1  0  0  0
 21 24  1  0  0  0  0
 22 27  1  0  0  0  0
 28 12  1  1  0  0  0
 28 29  1  0  0  0  0
 28 33  1  0  0  0  0
 29 30  1  0  0  0  0
 29 36  1  1  0  0  0
 30 31  1  0  0  0  0
 30 37  1  1  0  0  0
 31 32  1  0  0  0  0
 31 34  1  6  0  0  0
 32 33  1  0  0  0  0
 33 35  1  6  0  0  0
M  END
>  <CHROM.1>
-173.18324048,168.26526475,172.55165153,174.30398852,-172.36392961,-76.13643047
17.94983356,-3.88153762,46.12899614,2.16650048,-0.54344133,-1.35107005

>  <Name>
2oe8_lig

>  <RI>
0

>  <Rbt.Current_Directory>
/home/itssahil/PROJECTS/Mol_Feturizer/New_Systems/rnas/2oe8

>  <Rbt.Executable>
rbdock ($Id: //depot/dev/client3/rdock/2013.1/src/exe/rbdock.cxx#4 $)

>  <Rbt.Library>
libRbt.so (2013.1, Build901 2013/11/27)

>  <Rbt.Parameter_File>
/export/apps/rDock/src/rDock_2013.1_src/data/scripts/dock_solv.prm

>  <Rbt.Receptor>
prm/blind_docking_100.prm

>  <SCORE>
-24.8827

>  <SCORE.INTER>
-20.3529

>  <SCORE.INTER.CONST>
1

>  <SCORE.INTER.POLAR>
-2.3396

>  <SCORE.INTER.ROT>
6

>  <SCORE.INTER.SOLV>
17.1722

>  <SCORE.INTER.VDW>
-19.0941

>  <SCORE.INTER.norm>
-0.55008

>  <SCORE.INTRA>
-4.52974

>  <SCORE.INTRA.DIHEDRAL>
-14.1554

>  <SCORE.INTRA.DIHEDRAL.0>
16.4056

>  <SCORE.INTRA.POLAR>
0

>  <SCORE.INTRA.POLAR.0>
0

>  <SCORE.INTRA.REPUL>
0

>  <SCORE.INTRA.REPUL.0>
0

>  <SCORE.INTRA.SOLV>
-1.76667

>  <SCORE.INTRA.SOLV.lig_0>
-90.9627

>  <SCORE.INTRA.VDW>
3.43131

>  <SCORE.INTRA.VDW.0>
-3.28744

>  <SCORE.INTRA.norm>
-0.122425

>  <SCORE.RESTR>
0

>  <SCORE.RESTR.CAVITY>
0

>  <SCORE.RESTR.norm>
0

>  <SCORE.SYSTEM>
0

>  <SCORE.SYSTEM.CONST>
0

>  <SCORE.SYSTEM.DIHEDRAL>
0

>  <SCORE.SYSTEM.SOLV>
0

>  <SCORE.SYSTEM.norm>
0

>  <SCORE.heavy>
37

>  <SCORE.norm>
-0.672505

>  <RMSD>
11.032

$$$$
2oe8_lig
 OpenBabel11021811463D
libRbt.so/2013.1/901 2013/11/27
 37 40  0  0  0  0  0  0  0  0999 V2000
   17.1227   -3.9577   43.5073 C   0  0  1  0  0  0  0  0  0  0  0  0
   16.4592   -4.9899   44.4962 C   0  0  1  0  0  0  0  0  0  0  0  0
   16.5990   -4.4729   45.9432 C   0  0  0  0  0  0  0  0  0  0  0  0
   18.1310   -4.3371   46.2083 C   0  0  1  0  0  0  0  0  0  0  0  0
   18.8286   -3.2979   45.1888 C   0  0  1  0  0  0  0  0  0  0  0  0
   20.3608   -3.1710   45.4342 C   0  0  1  0  0  0  0  0  0  0  0  0
   20.5609   -2.7077   46.9350 C   0  0  1  0  0  0  0  0  0  0  0  0
   19.8281   -3.7221   47.8805 C   0  0  2  0  0  0  0  0  0  0  0  0
   22.5107   -1.5311   48.2428 C   0  0  0  0  0  0  0  0  0  0  0  0
   15.0106   -5.1767   44.1661 N   0  0  0  0  0  0  0  0  0  0  0  0
   22.0420   -2.5994   47.2874 N   0  0  0  0  0  0  0  0  0  0  0  0
   16.4756   -2.6801   43.5627 O   0  0  0  0  0  0  0  0  0  0  0  0
   18.5685   -3.7525   43.8158 O   0  0  0  0  0  0  0  0  0  0  0  0
   18.3761   -3.8698   47.5680 O   0  0  0  0  0  0  0  0  0  0  0  0
   20.9349   -4.4540   45.1791 O   0  0  0  0  0  0  0  0  0  0  0  0
   19.9486   -3.2861   49.1853 O   0  0  0  0  0  0  0  0  0  0  0  0
   20.0971   -4.3577   50.1321 C   0  0  2  0  0  0  0  0  0  0  0  0
   20.0736   -3.8041   51.5773 C   0  0  1  0  0  0  0  0  0  0  0  0
   21.3121   -2.9035   51.8730 C   0  0  2  0  0  0  0  0  0  0  0  0
   22.6138   -3.7281   51.6476 C   0  0  1  0  0  0  0  0  0  0  0  0
   22.6086   -4.1926   50.1319 C   0  0  1  0  0  0  0  0  0  0  0  0
   23.8363   -5.0308   49.7868 C   0  0  0  0  0  0  0  0  0  0  0  0
   23.7993   -2.8694   51.9299 N   0  0  0  0  0  0  0  0  0  0  0  0
   21.3918   -5.0468   49.8925 O   0  0  0  0  0  0  0  0  0  0  0  0
   18.8347   -3.0874   51.7399 O   0  0  0  0  0  0  0  0  0  0  0  0
   21.2434   -2.4793   53.2182 O   0  0  0  0  0  0  0  0  0  0  0  0
   23.7779   -5.4114   48.4375 O   0  0  0  0  0  0  0  0  0  0  0  0
   15.8078   -2.3312   42.3677 C   0  0  1  0  0  0  0  0  0  0  0  0
   16.6967   -2.7815   41.1641 C   0  0  1  0  0  0  0  0  0  0  0  0
   15.9869   -2.3746   39.8399 C   0  0  2  0  0  0  0  0  0  0  0  0
   14.5787   -3.0383   39.7392 C   0  0  1  0  0  0  0  0  0  0  0  0
   13.6782   -2.5984   40.9559 C   0  0  0  0  0  0  0  0  0  0  0  0
   14.4014   -3.0200   42.3018 C   0  0  2  0  0  0  0  0  0  0  0  0
   13.9186   -2.6298   38.4683 N   0  0  0  0  0  0  0  0  0  0  0  0
   13.5477   -2.6069   43.4384 N   0  0  0  0  0  0  0  0  0  0  0  0
   17.9838   -2.1389   41.2248 O   0  0  0  0  0  0  0  0  0  0  0  0
   16.8096   -2.8001   38.7661 O   0  0  0  0  0  0  0  0  0  0  0  0
  1  2  1  0  0  0  0
  1 12  1  1  0  0  0
  1 13  1  0  0  0  0
  2  3  1  0  0  0  0
  2 10  1  6  0  0  0
  4  3  1  6  0  0  0
  4  5  1  0  0  0  0
  4 14  1  0  0  0  0
  5  6  1  0  0  0  0
  5 13  1  6  0  0  0
  6  7  1  0  0  0  0
  6 15  1  1  0  0  0
  7  8  1  0  0  0  0
  7 11  1  1  0  0  0
  8 14  1  0  0  0  0
  8 16  1  1  0  0  0
  9 11  1  0  0  0  0
 17 16  1  6  0  0  0
 17 18  1  0  0  0  0
 17 24  1  0  0  0  0
 18 19  1  0  0  0  0
 18 25  1  6  0  0  0
 19 20  1  0  0  0  0
 19 26  1  1  0  0  0
 20 21  1  0  0  0  0
 20 23  1  6  0  0  0
 21 22  1  1  0  0  0
 21 24  1  0  0  0  0
 22 27  1  0  0  0  0
 28 12  1  1  0  0  0
 28 29  1  0  0  0  0
 28 33  1  0  0  0  0
 29 30  1  0  0  0  0
 29 36  1  1  0  0  0
 30 31  1  0  0  0  0
 30 37  1  6  0  0  0
 31 32  1  0  0  0  0
 31 34  1  6  0  0  0
 32 33  1  0  0  0  0
 33 35  1  1  0  0  0
M  END
>  <CHROM.1>
-113.93698515,145.58131914,-143.95833503,-173.95873882,-179.96946517,-39.84925210
18.82107828,-3.43916747,46.06529895,-2.16100814,-0.01843389,1.62904931

>  <Name>
2oe8_lig

>  <RI>
0

>  <Rbt.Current_Directory>
/home/itssahil/PROJECTS/Mol_Feturizer/New_Systems/rnas/2oe8

>  <Rbt.Executable>
rbdock ($Id: //depot/dev/client3/rdock/2013.1/src/exe/rbdock.cxx#4 $)

>  <Rbt.Library>
libRbt.so (2013.1, Build901 2013/11/27)

>  <Rbt.Parameter_File>
/export/apps/rDock/src/rDock_2013.1_src/data/scripts/dock_solv.prm

>  <Rbt.Receptor>
prm/blind_docking_80.prm

>  <SCORE>
-20.3086

>  <SCORE.INTER>
-22.2093

>  <SCORE.INTER.CONST>
1

>  <SCORE.INTER.POLAR>
-2.43012

>  <SCORE.INTER.ROT>
6

>  <SCORE.INTER.SOLV>
14.3025

>  <SCORE.INTER.VDW>
-19.0733

>  <SCORE.INTER.norm>
-0.600252

>  <SCORE.INTRA>
1.9007

>  <SCORE.INTRA.DIHEDRAL>
-1.9614

>  <SCORE.INTRA.DIHEDRAL.0>
16.4056

>  <SCORE.INTRA.POLAR>
0

>  <SCORE.INTRA.POLAR.0>
0

>  <SCORE.INTRA.REPUL>
0

>  <SCORE.INTRA.REPUL.0>
0

>  <SCORE.INTRA.SOLV>
2.65253

>  <SCORE.INTRA.SOLV.lig_0>
-90.9627

>  <SCORE.INTRA.VDW>
1.55513

>  <SCORE.INTRA.VDW.0>
-3.28744

>  <SCORE.INTRA.norm>
0.0513703

>  <SCORE.RESTR>
0

>  <SCORE.RESTR.CAVITY>
0

>  <SCORE.RESTR.norm>
0

>  <SCORE.SYSTEM>
0

>  <SCORE.SYSTEM.CONST>
0

>  <SCORE.SYSTEM.DIHEDRAL>
0

>  <SCORE.SYSTEM.SOLV>
0

>  <SCORE.SYSTEM.norm>
0

>  <SCORE.heavy>
37

>  <SCORE.norm>
-0.548882

>  <RMSD>
11.048

$$$$
2oe8_lig
 OpenBabel11021811463D
libRbt.so/2013.1/901 2013/11/27
 37 40  0  0  0  0  0  0  0  0999 V2000
   16.8311   -5.3812   45.0045 C   0  0  1  0  0  0  0  0  0  0  0  0
   15.9305   -5.5419   46.2877 C   0  0  1  0  0  0  0  0  0  0  0  0
   16.0107   -4.2532   47.1323 C   0  0  0  0  0  0  0  0  0  0  0  0
   17.5142   -4.0775   47.5125 C   0  0  1  0  0  0  0  0  0  0  0  0
   18.4523   -3.9324   46.2068 C   0  0  1  0  0  0  0  0  0  0  0  0
   19.9565   -3.7759   46.5769 C   0  0  1  0  0  0  0  0  0  0  0  0
   20.0830   -2.5000   47.5058 C   0  0  1  0  0  0  0  0  0  0  0  0
   19.1209   -2.6691   48.7329 C   0  0  2  0  0  0  0  0  0  0  0  0
   22.5377   -1.7112   47.0072 C   0  0  0  0  0  0  0  0  0  0  0  0
   14.5076   -5.8026   45.9012 N   0  0  0  0  0  0  0  0  0  0  0  0
   21.5241   -2.2891   47.9623 N   0  0  0  0  0  0  0  0  0  0  0  0
   16.3813   -4.3038   44.1733 O   0  0  0  0  0  0  0  0  0  0  0  0
   18.2561   -5.1191   45.3625 O   0  0  0  0  0  0  0  0  0  0  0  0
   17.6988   -2.8881   48.3361 O   0  0  0  0  0  0  0  0  0  0  0  0
   20.3523   -4.9761   47.2430 O   0  0  0  0  0  0  0  0  0  0  0  0
   19.1832   -1.5305   49.5117 O   0  0  0  0  0  0  0  0  0  0  0  0
   18.8010   -1.7546   50.8794 C   0  0  2  0  0  0  0  0  0  0  0  0
   18.9078   -0.4397   51.6889 C   0  0  1  0  0  0  0  0  0  0  0  0
   20.3847    0.0449   51.8148 C   0  0  2  0  0  0  0  0  0  0  0  0
   21.2341   -1.0651   52.5016 C   0  0  1  0  0  0  0  0  0  0  0  0
   21.1437   -2.3515   51.5795 C   0  0  1  0  0  0  0  0  0  0  0  0
   21.9289   -3.5253   52.1578 C   0  0  0  0  0  0  0  0  0  0  0  0
   22.6466   -0.6040   52.6233 N   0  0  0  0  0  0  0  0  0  0  0  0
   19.7017   -2.7734   51.4788 O   0  0  0  0  0  0  0  0  0  0  0  0
   18.0746    0.5347   51.0323 O   0  0  0  0  0  0  0  0  0  0  0  0
   20.4036    1.2162   52.6035 O   0  0  0  0  0  0  0  0  0  0  0  0
   23.2995   -3.2248   52.1397 O   0  0  0  0  0  0  0  0  0  0  0  0
   16.8308   -4.3939   42.8369 C   0  0  1  0  0  0  0  0  0  0  0  0
   15.7733   -5.2053   42.0215 C   0  0  1  0  0  0  0  0  0  0  0  0
   16.2715   -5.3394   40.5529 C   0  0  2  0  0  0  0  0  0  0  0  0
   16.4779   -3.9344   39.9071 C   0  0  1  0  0  0  0  0  0  0  0  0
   17.5353   -3.1040   40.7299 C   0  0  0  0  0  0  0  0  0  0  0  0
   17.0214   -2.9645   42.2228 C   0  0  2  0  0  0  0  0  0  0  0  0
   16.9592   -4.0893   38.5064 N   0  0  0  0  0  0  0  0  0  0  0  0
   18.0178   -2.1806   42.9869 N   0  0  0  0  0  0  0  0  0  0  0  0
   15.6089   -6.5203   42.5845 O   0  0  0  0  0  0  0  0  0  0  0  0
   15.2924   -6.0722   39.8350 O   0  0  0  0  0  0  0  0  0  0  0  0
  1  2  1  0  0  0  0
  1 12  1  6  0  0  0
  1 13  1  0  0  0  0
  2  3  1  0  0  0  0
  2 10  1  6  0  0  0
  4  3  1  6  0  0  0
  4  5  1  0  0  0  0
  4 14  1  0  0  0  0
  5  6  1  0  0  0  0
  5 13  1  6  0  0  0
  6  7  1  0  0  0  0
  6 15  1  1  0  0  0
  7  8  1  0  0  0  0
  7 11  1  1  0  0  0
  8 14  1  0  0  0  0
  8 16  1  1  0  0  0
  9 11  1  0  0  0  0
 17 16  1  6  0  0  0
 17 18  1  0  0  0  0
 17 24  1  0  0  0  0
 18 19  1  0  0  0  0
 18 25  1  6  0  0  0
 19 20  1  0  0  0  0
 19 26  1  1  0  0  0
 20 21  1  0  0  0  0
 20 23  1  6  0  0  0
 21 22  1  1  0  0  0
 21 24  1  0  0  0  0
 22 27  1  0  0  0  0
 28 12  1  1  0  0  0
 28 29  1  0  0  0  0
 28 33  1  0  0  0  0
 29 30  1  0  0  0  0
 29 36  1  1  0  0  0
 30 31  1  0  0  0  0
 30 37  1  6  0  0  0
 31 32  1  0  0  0  0
 31 34  1  6  0  0  0
 32 33  1  0  0  0  0
 33 35  1  1  0  0  0
M  END
>  <CHROM.1>
-159.50235803,76.43733358,-156.35681835,179.51433272,-66.64387866,89.98729995
18.57542465,-3.19982981,46.88095551,2.03344636,-0.49420337,-1.67720420

>  <Name>
2oe8_lig

>  <RI>
0

>  <Rbt.Current_Directory>
/home/itssahil/PROJECTS/Mol_Feturizer/New_Systems/rnas/2oe8

>  <Rbt.Executable>
rbdock ($Id: //depot/dev/client3/rdock/2013.1/src/exe/rbdock.cxx#4 $)

>  <Rbt.Library>
libRbt.so (2013.1, Build901 2013/11/27)

>  <Rbt.Parameter_File>
/export/apps/rDock/src/rDock_2013.1_src/data/scripts/dock_solv.prm

>  <Rbt.Receptor>
prm/blind_docking_100.prm

>  <SCORE>
-29.7646

>  <SCORE.INTER>
-25.6043

>  <SCORE.INTER.CONST>
1

>  <SCORE.INTER.POLAR>
-3.40018

>  <SCORE.INTER.ROT>
6

>  <SCORE.INTER.SOLV>
18.5354

>  <SCORE.INTER.VDW>
-19.514

>  <SCORE.INTER.norm>
-0.692008

>  <SCORE.INTRA>
-4.16378

>  <SCORE.INTRA.DIHEDRAL>
-8.10513

>  <SCORE.INTRA.DIHEDRAL.0>
16.4056

>  <SCORE.INTRA.POLAR>
0

>  <SCORE.INTRA.POLAR.0>
0

>  <SCORE.INTRA.REPUL>
0

>  <SCORE.INTRA.REPUL.0>
0

>  <SCORE.INTRA.SOLV>
-0.238014

>  <SCORE.INTRA.SOLV.lig_0>
-90.9627

>  <SCORE.INTRA.VDW>
0.00779205

>  <SCORE.INTRA.VDW.0>
-3.28744

>  <SCORE.INTRA.norm>
-0.112535

>  <SCORE.RESTR>
0.00347981

>  <SCORE.RESTR.CAVITY>
0.00347981

>  <SCORE.RESTR.norm>
9.40489e-05

>  <SCORE.SYSTEM>
0

>  <SCORE.SYSTEM.CONST>
0

>  <SCORE.SYSTEM.DIHEDRAL>
0

>  <SCORE.SYSTEM.SOLV>
0

>  <SCORE.SYSTEM.norm>
0

>  <SCORE.heavy>
37

>  <SCORE.norm>
-0.804448

>  <RMSD>
11.055

$$$$
2oe8_lig
 OpenBabel11021811463D
libRbt.so/2013.1/901 2013/11/27
 37 40  0  0  0  0  0  0  0  0999 V2000
   16.4412   -5.5237   45.0599 C   0  0  1  0  0  0  0  0  0  0  0  0
   15.6033   -5.5937   46.3928 C   0  0  1  0  0  0  0  0  0  0  0  0
   15.8730   -4.3278   47.2326 C   0  0  0  0  0  0  0  0  0  0  0  0
   17.4059   -4.3210   47.5256 C   0  0  1  0  0  0  0  0  0  0  0  0
   18.2781   -4.2703   46.1680 C   0  0  1  0  0  0  0  0  0  0  0  0
   19.8090   -4.2826   46.4509 C   0  0  1  0  0  0  0  0  0  0  0  0
   20.1281   -3.0350   47.3722 C   0  0  1  0  0  0  0  0  0  0  0  0
   19.2250   -3.1064   48.6525 C   0  0  2  0  0  0  0  0  0  0  0  0
   22.3285   -1.6634   47.7882 C   0  0  0  0  0  0  0  0  0  0  0  0
   14.1405   -5.6939   46.0888 N   0  0  0  0  0  0  0  0  0  0  0  0
   21.6073   -2.9869   47.7450 N   0  0  0  0  0  0  0  0  0  0  0  0
   16.0658   -4.3974   44.2570 O   0  0  0  0  0  0  0  0  0  0  0  0
   17.9045   -5.4221   45.3355 O   0  0  0  0  0  0  0  0  0  0  0  0
   17.7671   -3.1651   48.3383 O   0  0  0  0  0  0  0  0  0  0  0  0
   20.1079   -5.5237   47.0920 O   0  0  0  0  0  0  0  0  0  0  0  0
   19.4567   -1.9871   49.4275 O   0  0  0  0  0  0  0  0  0  0  0  0
   19.1534   -2.1853   50.8188 C   0  0  2  0  0  0  0  0  0  0  0  0
   19.1806   -0.8334   51.5719 C   0  0  1  0  0  0  0  0  0  0  0  0
   20.6142   -0.2208   51.6115 C   0  0  2  0  0  0  0  0  0  0  0  0
   21.5844   -1.2254   52.3005 C   0  0  1  0  0  0  0  0  0  0  0  0
   21.5664   -2.5523   51.4332 C   0  0  1  0  0  0  0  0  0  0  0  0
   22.4737   -3.6304   52.0193 C   0  0  0  0  0  0  0  0  0  0  0  0
   22.9558   -0.6419   52.3398 N   0  0  0  0  0  0  0  0  0  0  0  0
   20.1632   -3.0983   51.4147 O   0  0  0  0  0  0  0  0  0  0  0  0
   18.2394    0.0389   50.9174 O   0  0  0  0  0  0  0  0  0  0  0  0
   20.5654    0.9799   52.3533 O   0  0  0  0  0  0  0  0  0  0  0  0
   22.2061   -3.7722   53.3894 O   0  0  0  0  0  0  0  0  0  0  0  0
   16.5790   -4.4435   42.9416 C   0  0  1  0  0  0  0  0  0  0  0  0
   15.5712   -5.2420   42.0537 C   0  0  1  0  0  0  0  0  0  0  0  0
   16.1399   -5.3277   40.6073 C   0  0  2  0  0  0  0  0  0  0  0  0
   16.3597   -3.9023   40.0127 C   0  0  1  0  0  0  0  0  0  0  0  0
   17.3669   -3.0850   40.9085 C   0  0  0  0  0  0  0  0  0  0  0  0
   16.7812   -2.9948   42.3785 C   0  0  2  0  0  0  0  0  0  0  0  0
   16.9086   -4.0110   38.6326 N   0  0  0  0  0  0  0  0  0  0  0  0
   17.7308   -2.2229   43.2115 N   0  0  0  0  0  0  0  0  0  0  0  0
   15.3963   -6.5746   42.5703 O   0  0  0  0  0  0  0  0  0  0  0  0
   15.2048   -6.0496   39.8228 O   0  0  0  0  0  0  0  0  0  0  0  0
  1  2  1  0  0  0  0
  1 12  1  1  0  0  0
  1 13  1  0  0  0  0
  2  3  1  0  0  0  0
  2 10  1  6  0  0  0
  4  3  1  6  0  0  0
  4  5  1  0  0  0  0
  4 14  1  0  0  0  0
  5  6  1  0  0  0  0
  5 13  1  6  0  0  0
  6  7  1  0  0  0  0
  6 15  1  1  0  0  0
  7  8  1  0  0  0  0
  7 11  1  1  0  0  0
  8 14  1  0  0  0  0
  8 16  1  1  0  0  0
  9 11  1  0  0  0  0
 17 16  1  6  0  0  0
 17 18  1  0  0  0  0
 17 24  1  0  0  0  0
 18 19  1  0  0  0  0
 18 25  1  6  0  0  0
 19 20  1  0  0  0  0
 19 26  1  1  0  0  0
 20 21  1  0  0  0  0
 20 23  1  6  0  0  0
 21 22  1  1  0  0  0
 21 24  1  0  0  0  0
 22 27  1  0  0  0  0
 28 12  1  1  0  0  0
 28 29  1  0  0  0  0
 28 33  1  0  0  0  0
 29 30  1  0  0  0  0
 29 36  1  1  0  0  0
 30 31  1  0  0  0  0
 30 37  1  6  0  0  0
 31 32  1  0  0  0  0
 31 34  1  6  0  0  0
 32 33  1  0  0  0  0
 33 35  1  1  0  0  0
M  END
>  <CHROM.1>
-167.48970789,140.56587760,-155.31645617,-169.41838843,49.13386201,87.41901811
18.52381807,-3.41344246,46.91502282,2.15435636,-0.67966450,-1.49117205

>  <Name>
2oe8_lig

>  <RI>
0

>  <Rbt.Current_Directory>
/home/itssahil/PROJECTS/Mol_Feturizer/New_Systems/rnas/2oe8

>  <Rbt.Executable>
rbdock ($Id: //depot/dev/client3/rdock/2013.1/src/exe/rbdock.cxx#4 $)

>  <Rbt.Library>
libRbt.so (2013.1, Build901 2013/11/27)

>  <Rbt.Parameter_File>
/export/apps/rDock/src/rDock_2013.1_src/data/scripts/dock_solv.prm

>  <Rbt.Receptor>
prm/blind_docking_80.prm

>  <SCORE>
-25.1659

>  <SCORE.INTER>
-20.3802

>  <SCORE.INTER.CONST>
1

>  <SCORE.INTER.POLAR>
-2.75408

>  <SCORE.INTER.ROT>
6

>  <SCORE.INTER.SOLV>
17.7309

>  <SCORE.INTER.VDW>
-17.9168

>  <SCORE.INTER.norm>
-0.550816

>  <SCORE.INTRA>
-4.78574

>  <SCORE.INTRA.DIHEDRAL>
-8.05944

>  <SCORE.INTRA.DIHEDRAL.0>
16.4056

>  <SCORE.INTRA.POLAR>
0

>  <SCORE.INTRA.POLAR.0>
0

>  <SCORE.INTRA.REPUL>
0

>  <SCORE.INTRA.REPUL.0>
0

>  <SCORE.INTRA.SOLV>
-0.759552

>  <SCORE.INTRA.SOLV.lig_0>
-90.9627

>  <SCORE.INTRA.VDW>
-0.376241

>  <SCORE.INTRA.VDW.0>
-3.28744

>  <SCORE.INTRA.norm>
-0.129344

>  <SCORE.RESTR>
0

>  <SCORE.RESTR.CAVITY>
0

>  <SCORE.RESTR.norm>
0

>  <SCORE.SYSTEM>
0

>  <SCORE.SYSTEM.CONST>
0

>  <SCORE.SYSTEM.DIHEDRAL>
0

>  <SCORE.SYSTEM.SOLV>
0

>  <SCORE.SYSTEM.norm>
0

>  <SCORE.heavy>
37

>  <SCORE.norm>
-0.68016

>  <RMSD>
11.056

$$$$
2oe8_lig
 OpenBabel11021811463D
libRbt.so/2013.1/901 2013/11/27
 37 40  0  0  0  0  0  0  0  0999 V2000
   17.3894   -5.0773   44.1798 C   0  0  1  0  0  0  0  0  0  0  0  0
   16.3594   -5.2089   45.3652 C   0  0  1  0  0  0  0  0  0  0  0  0
   16.4268   -3.9419   46.2432 C   0  0  0  0  0  0  0  0  0  0  0  0
   17.8929   -3.8589   46.7718 C   0  0  1  0  0  0  0  0  0  0  0  0
   18.9616   -3.7445   45.5672 C   0  0  1  0  0  0  0  0  0  0  0  0
   20.4283   -3.6805   46.0855 C   0  0  1  0  0  0  0  0  0  0  0  0
   20.5327   -2.4304   47.0515 C   0  0  1  0  0  0  0  0  0  0  0  0
   19.4466   -2.5660   48.1749 C   0  0  2  0  0  0  0  0  0  0  0  0
   22.9327   -1.3643   47.0370 C   0  0  0  0  0  0  0  0  0  0  0  0
   14.9692   -5.3813   44.8362 N   0  0  0  0  0  0  0  0  0  0  0  0
   21.9312   -2.3100   47.6507 N   0  0  0  0  0  0  0  0  0  0  0  0
   17.0835   -3.9616   43.3338 O   0  0  0  0  0  0  0  0  0  0  0  0
   18.7845   -4.9031   44.6808 O   0  0  0  0  0  0  0  0  0  0  0  0
   18.0606   -2.6966   47.6367 O   0  0  0  0  0  0  0  0  0  0  0  0
   20.6901   -4.9128   46.7591 O   0  0  0  0  0  0  0  0  0  0  0  0
   19.4945   -1.4466   48.9822 O   0  0  0  0  0  0  0  0  0  0  0  0
   19.2698   -1.7371   50.3721 C   0  0  2  0  0  0  0  0  0  0  0  0
   19.4269   -0.4525   51.2211 C   0  0  1  0  0  0  0  0  0  0  0  0
   20.8946    0.0747   51.2081 C   0  0  2  0  0  0  0  0  0  0  0  0
   21.8445   -1.0333   51.7514 C   0  0  1  0  0  0  0  0  0  0  0  0
   21.6906   -2.2844   50.7900 C   0  0  1  0  0  0  0  0  0  0  0  0
   22.5668   -3.4540   51.2296 C   0  0  0  0  0  0  0  0  0  0  0  0
   23.2483   -0.5315   51.7401 N   0  0  0  0  0  0  0  0  0  0  0  0
   20.2587   -2.7488   50.8269 O   0  0  0  0  0  0  0  0  0  0  0  0
   18.5002    0.5195   50.7003 O   0  0  0  0  0  0  0  0  0  0  0  0
   20.9662    1.2139   52.0398 O   0  0  0  0  0  0  0  0  0  0  0  0
   22.2358   -3.8177   52.5438 O   0  0  0  0  0  0  0  0  0  0  0  0
   15.9305   -4.1520   42.5401 C   0  0  1  0  0  0  0  0  0  0  0  0
   15.4727   -2.7574   42.0043 C   0  0  1  0  0  0  0  0  0  0  0  0
   14.1836   -2.9485   41.1531 C   0  0  2  0  0  0  0  0  0  0  0  0
   14.4464   -3.9175   39.9591 C   0  0  1  0  0  0  0  0  0  0  0  0
   14.9196   -5.3243   40.4898 C   0  0  0  0  0  0  0  0  0  0  0  0
   16.2356   -5.1260   41.3506 C   0  0  2  0  0  0  0  0  0  0  0  0
   13.1986   -4.0881   39.1644 N   0  0  0  0  0  0  0  0  0  0  0  0
   16.6750   -6.4515   41.8416 N   0  0  0  0  0  0  0  0  0  0  0  0
   15.1851   -1.8698   43.1010 O   0  0  0  0  0  0  0  0  0  0  0  0
   13.7946   -1.6716   40.6745 O   0  0  0  0  0  0  0  0  0  0  0  0
  1  2  1  0  0  0  0
  1 12  1  1  0  0  0
  1 13  1  0  0  0  0
  2  3  1  0  0  0  0
  2 10  1  6  0  0  0
  4  3  1  6  0  0  0
  4  5  1  0  0  0  0
  4 14  1  0  0  0  0
  5  6  1  0  0  0  0
  5 13  1  6  0  0  0
  6  7  1  0  0  0  0
  6 15  1  1  0  0  0
  7  8  1  0  0  0  0
  7 11  1  1  0  0  0
  8 14  1  0  0  0  0
  8 16  1  1  0  0  0
  9 11  1  0  0  0  0
 17 16  1  6  0  0  0
 17 18  1  0  0  0  0
 17 24  1  0  0  0  0
 18 19  1  0  0  0  0
 18 25  1  6  0  0  0
 19 20  1  0  0  0  0
 19 26  1  1  0  0  0
 20 21  1  0  0  0  0
 20 23  1  6  0  0  0
 21 22  1  1  0  0  0
 21 24  1  0  0  0  0
 22 27  1  0  0  0  0
 28 12  1  6  0  0  0
 28 29  1  0  0  0  0
 28 33  1  0  0  0  0
 29 30  1  0  0  0  0
 29 36  1  1  0  0  0
 30 31  1  0  0  0  0
 30 37  1  6  0  0  0
 31 32  1  0  0  0  0
 31 34  1  1  0  0  0
 32 33  1  0  0  0  0
 33 35  1  1  0  0  0
M  END
>  <CHROM.1>
-71.49345008,97.83334535,-142.56521209,176.43344864,57.85717734,163.54132097
18.46424227,-2.94607451,46.45554676,-2.34744565,-0.69788240,0.72965705

>  <Name>
2oe8_lig

>  <RI>
0

>  <Rbt.Current_Directory>
/home/itssahil/PROJECTS/Mol_Feturizer/New_Systems/rnas/2oe8

>  <Rbt.Executable>
rbdock ($Id: //depot/dev/client3/rdock/2013.1/src/exe/rbdock.cxx#4 $)

>  <Rbt.Library>
libRbt.so (2013.1, Build901 2013/11/27)

>  <Rbt.Parameter_File>
/export/apps/rDock/src/rDock_2013.1_src/data/scripts/dock_solv.prm

>  <Rbt.Receptor>
prm/blind_docking_100.prm

>  <SCORE>
-22.5572

>  <SCORE.INTER>
-19.9948

>  <SCORE.INTER.CONST>
1

>  <SCORE.INTER.POLAR>
-2.35458

>  <SCORE.INTER.ROT>
6

>  <SCORE.INTER.SOLV>
10.539

>  <SCORE.INTER.VDW>
-16.5943

>  <SCORE.INTER.norm>
-0.5404

>  <SCORE.INTRA>
-2.59261

>  <SCORE.INTRA.DIHEDRAL>
-8.61867

>  <SCORE.INTRA.DIHEDRAL.0>
16.4056

>  <SCORE.INTRA.POLAR>
0

>  <SCORE.INTRA.POLAR.0>
0

>  <SCORE.INTRA.REPUL>
0

>  <SCORE.INTRA.REPUL.0>
0

>  <SCORE.INTRA.SOLV>
2.89237

>  <SCORE.INTRA.SOLV.lig_0>
-90.9627

>  <SCORE.INTRA.VDW>
0.270538

>  <SCORE.INTRA.VDW.0>
-3.28744

>  <SCORE.INTRA.norm>
-0.0700705

>  <SCORE.RESTR>
0.0301718

>  <SCORE.RESTR.CAVITY>
0.0301718

>  <SCORE.RESTR.norm>
0.000815454

>  <SCORE.SYSTEM>
0

>  <SCORE.SYSTEM.CONST>
0

>  <SCORE.SYSTEM.DIHEDRAL>
0

>  <SCORE.SYSTEM.SOLV>
0

>  <SCORE.SYSTEM.norm>
0

>  <SCORE.heavy>
37

>  <SCORE.norm>
-0.609655

>  <RMSD>
11.084

$$$$
2oe8_lig
 OpenBabel11021811463D
libRbt.so/2013.1/901 2013/11/27
 37 40  0  0  0  0  0  0  0  0999 V2000
   16.5166   -5.5919   45.0283 C   0  0  1  0  0  0  0  0  0  0  0  0
   15.8991   -5.9260   46.4392 C   0  0  1  0  0  0  0  0  0  0  0  0
   15.9632   -4.6711   47.3347 C   0  0  0  0  0  0  0  0  0  0  0  0
   17.4744   -4.2986   47.4504 C   0  0  1  0  0  0  0  0  0  0  0  0
   18.1263   -3.9737   46.0098 C   0  0  1  0  0  0  0  0  0  0  0  0
   19.6388   -3.6197   46.1143 C   0  0  1  0  0  0  0  0  0  0  0  0
   19.7654   -2.3740   47.0835 C   0  0  1  0  0  0  0  0  0  0  0  0
   19.0787   -2.7231   48.4496 C   0  0  2  0  0  0  0  0  0  0  0  0
   22.1261   -2.8408   48.1350 C   0  0  0  0  0  0  0  0  0  0  0  0
   14.4764   -6.3711   46.2976 N   0  0  0  0  0  0  0  0  0  0  0  0
   21.2253   -1.9783   47.2874 N   0  0  0  0  0  0  0  0  0  0  0  0
   15.7818   -4.5590   44.3597 O   0  0  0  0  0  0  0  0  0  0  0  0
   17.9358   -5.1441   45.1418 O   0  0  0  0  0  0  0  0  0  0  0  0
   17.6494   -3.1264   48.3004 O   0  0  0  0  0  0  0  0  0  0  0  0
   20.3068   -4.7755   46.6228 O   0  0  0  0  0  0  0  0  0  0  0  0
   19.1331   -1.6168   49.2744 O   0  0  0  0  0  0  0  0  0  0  0  0
   18.7419   -1.8969   50.6291 C   0  0  2  0  0  0  0  0  0  0  0  0
   18.9155   -0.6358   51.5095 C   0  0  1  0  0  0  0  0  0  0  0  0
   20.4150   -0.2332   51.6559 C   0  0  2  0  0  0  0  0  0  0  0  0
   21.2086   -1.4205   52.2770 C   0  0  1  0  0  0  0  0  0  0  0  0
   21.0527   -2.6478   51.2857 C   0  0  1  0  0  0  0  0  0  0  0  0
   21.7789   -3.8896   51.7951 C   0  0  0  0  0  0  0  0  0  0  0  0
   22.6426   -1.0379   52.4181 N   0  0  0  0  0  0  0  0  0  0  0  0
   19.5913   -2.9909   51.1677 O   0  0  0  0  0  0  0  0  0  0  0  0
   18.1313    0.4139   50.9111 O   0  0  0  0  0  0  0  0  0  0  0  0
   20.4936    0.8903   52.5079 O   0  0  0  0  0  0  0  0  0  0  0  0
   21.6188   -4.9355   50.8734 O   0  0  0  0  0  0  0  0  0  0  0  0
   16.0676   -4.4632   42.9795 C   0  0  1  0  0  0  0  0  0  0  0  0
   15.4222   -5.6924   42.2625 C   0  0  1  0  0  0  0  0  0  0  0  0
   15.7564   -5.6163   40.7441 C   0  0  2  0  0  0  0  0  0  0  0  0
   15.2139   -4.2922   40.1227 C   0  0  1  0  0  0  0  0  0  0  0  0
   15.8513   -3.0461   40.8477 C   0  0  0  0  0  0  0  0  0  0  0  0
   15.5035   -3.1241   42.3921 C   0  0  2  0  0  0  0  0  0  0  0  0
   15.5505   -4.2407   38.6730 N   0  0  0  0  0  0  0  0  0  0  0  0
   16.1022   -1.9489   43.0642 N   0  0  0  0  0  0  0  0  0  0  0  0
   15.9507   -6.9193   42.7997 O   0  0  0  0  0  0  0  0  0  0  0  0
   15.1544   -6.7370   40.1176 O   0  0  0  0  0  0  0  0  0  0  0  0
  1  2  1  0  0  0  0
  1 12  1  1  0  0  0
  1 13  1  0  0  0  0
  2  3  1  0  0  0  0
  2 10  1  6  0  0  0
  4  3  1  6  0  0  0
  4  5  1  0  0  0  0
  4 14  1  0  0  0  0
  5  6  1  0  0  0  0
  5 13  1  6  0  0  0
  6  7  1  0  0  0  0
  6 15  1  1  0  0  0
  7  8  1  0  0  0  0
  7 11  1  1  0  0  0
  8 14  1  0  0  0  0
  8 16  1  1  0  0  0
  9 11  1  0  0  0  0
 17 16  1  6  0  0  0
 17 18  1  0  0  0  0
 17 24  1  0  0  0  0
 18 19  1  0  0  0  0
 18 25  1  6  0  0  0
 19 20  1  0  0  0  0
 19 26  1  1  0  0  0
 20 21  1  0  0  0  0
 20 23  1  6  0  0  0
 21 22  1  1  0  0  0
 21 24  1  0  0  0  0
 22 27  1  0  0  0  0
 28 12  1  1  0  0  0
 28 29  1  0  0  0  0
 28 33  1  0  0  0  0
 29 30  1  0  0  0  0
 29 36  1  1  0  0  0
 30 31  1  0  0  0  0
 30 37  1  6  0  0  0
 31 32  1  0  0  0  0
 31 34  1  6  0  0  0
 32 33  1  0  0  0  0
 33 35  1  1  0  0  0
M  END
>  <CHROM.1>
-164.46293022,-72.82656541,-169.79698610,176.35991373,-179.36596782,72.21391878
18.19177009,-3.46576660,46.80316715,-2.77591463,-1.07431199,0.06502077

>  <Name>
2oe8_lig

>  <RI>
0

>  <Rbt.Current_Directory>
/home/itssahil/PROJECTS/Mol_Feturizer/New_Systems/rnas/2oe8

>  <Rbt.Executable>
rbdock ($Id: //depot/dev/client3/rdock/2013.1/src/exe/rbdock.cxx#4 $)

>  <Rbt.Library>
libRbt.so (2013.1, Build901 2013/11/27)

>  <Rbt.Parameter_File>
/export/apps/rDock/src/rDock_2013.1_src/data/scripts/dock_solv.prm

>  <Rbt.Receptor>
prm/blind_docking_100.prm

>  <SCORE>
-21.7907

>  <SCORE.INTER>
-15.7256

>  <SCORE.INTER.CONST>
1

>  <SCORE.INTER.POLAR>
-2.24116

>  <SCORE.INTER.ROT>
6

>  <SCORE.INTER.SOLV>
17.6498

>  <SCORE.INTER.VDW>
-16.4965

>  <SCORE.INTER.norm>
-0.425016

>  <SCORE.INTRA>
-6.0651

>  <SCORE.INTRA.DIHEDRAL>
-13.8106

>  <SCORE.INTRA.DIHEDRAL.0>
16.4056

>  <SCORE.INTRA.POLAR>
0

>  <SCORE.INTRA.POLAR.0>
0

>  <SCORE.INTRA.REPUL>
0

>  <SCORE.INTRA.REPUL.0>
0

>  <SCORE.INTRA.SOLV>
-2.03434

>  <SCORE.INTRA.SOLV.lig_0>
-90.9627

>  <SCORE.INTRA.VDW>
1.85738

>  <SCORE.INTRA.VDW.0>
-3.28744

>  <SCORE.INTRA.norm>
-0.163921

>  <SCORE.RESTR>
0

>  <SCORE.RESTR.CAVITY>
0

>  <SCORE.RESTR.norm>
0

>  <SCORE.SYSTEM>
0

>  <SCORE.SYSTEM.CONST>
0

>  <SCORE.SYSTEM.DIHEDRAL>
0

>  <SCORE.SYSTEM.SOLV>
0

>  <SCORE.SYSTEM.norm>
0

>  <SCORE.heavy>
37

>  <SCORE.norm>
-0.588937

>  <RMSD>
11.092

$$$$
2oe8_lig
 OpenBabel11021811463D
libRbt.so/2013.1/901 2013/11/27
 37 40  0  0  0  0  0  0  0  0999 V2000
   17.5324   -5.0065   43.5387 C   0  0  1  0  0  0  0  0  0  0  0  0
   16.7839   -5.3602   44.8796 C   0  0  1  0  0  0  0  0  0  0  0  0
   16.9526   -4.1980   45.8804 C   0  0  0  0  0  0  0  0  0  0  0  0
   18.4885   -4.0449   46.1112 C   0  0  1  0  0  0  0  0  0  0  0  0
   19.2719   -3.7027   44.7418 C   0  0  1  0  0  0  0  0  0  0  0  0
   20.8075   -3.5672   44.9599 C   0  0  1  0  0  0  0  0  0  0  0  0
   21.0318   -2.4283   46.0367 C   0  0  1  0  0  0  0  0  0  0  0  0
   20.2158   -2.7839   47.3281 C   0  0  2  0  0  0  0  0  0  0  0  0
   22.9445   -1.2597   47.4051 C   0  0  0  0  0  0  0  0  0  0  0  0
   15.3277   -5.5951   44.6218 N   0  0  0  0  0  0  0  0  0  0  0  0
   22.5142   -2.2520   46.3544 N   0  0  0  0  0  0  0  0  0  0  0  0
   16.9858   -3.8350   42.9201 O   0  0  0  0  0  0  0  0  0  0  0  0
   18.9875   -4.7664   43.7685 O   0  0  0  0  0  0  0  0  0  0  0  0
   18.7591   -2.9761   47.0659 O   0  0  0  0  0  0  0  0  0  0  0  0
   21.2825   -4.8388   45.4051 O   0  0  0  0  0  0  0  0  0  0  0  0
   20.3601   -1.7617   48.2453 O   0  0  0  0  0  0  0  0  0  0  0  0
   19.9535   -2.1281   49.5747 C   0  0  2  0  0  0  0  0  0  0  0  0
   20.0392   -0.9045   50.5186 C   0  0  1  0  0  0  0  0  0  0  0  0
   21.5114   -0.4318   50.7222 C   0  0  2  0  0  0  0  0  0  0  0  0
   22.3528   -1.6051   51.3057 C   0  0  1  0  0  0  0  0  0  0  0  0
   22.2854   -2.7887   50.2532 C   0  0  1  0  0  0  0  0  0  0  0  0
   23.0651   -4.0143   50.7209 C   0  0  0  0  0  0  0  0  0  0  0  0
   23.7607   -1.1555   51.5015 N   0  0  0  0  0  0  0  0  0  0  0  0
   20.8475   -3.2014   50.0817 O   0  0  0  0  0  0  0  0  0  0  0  0
   19.2140    0.1310   49.9513 O   0  0  0  0  0  0  0  0  0  0  0  0
   21.5103    0.6510   51.6288 O   0  0  0  0  0  0  0  0  0  0  0  0
   23.1267   -4.9539   49.6804 O   0  0  0  0  0  0  0  0  0  0  0  0
   15.6935   -4.0286   42.3833 C   0  0  1  0  0  0  0  0  0  0  0  0
   15.1216   -2.6327   41.9757 C   0  0  1  0  0  0  0  0  0  0  0  0
   13.6842   -2.8279   41.4112 C   0  0  2  0  0  0  0  0  0  0  0  0
   13.6987   -3.7789   40.1747 C   0  0  1  0  0  0  0  0  0  0  0  0
   14.2847   -5.1867   40.5738 C   0  0  0  0  0  0  0  0  0  0  0  0
   15.7504   -4.9842   41.1422 C   0  0  2  0  0  0  0  0  0  0  0  0
   12.3134   -3.9538   39.6570 N   0  0  0  0  0  0  0  0  0  0  0  0
   16.2943   -6.3107   41.5108 N   0  0  0  0  0  0  0  0  0  0  0  0
   15.0631   -1.7622   43.1211 O   0  0  0  0  0  0  0  0  0  0  0  0
   13.1926   -1.5497   41.0434 O   0  0  0  0  0  0  0  0  0  0  0  0
  1  2  1  0  0  0  0
  1 12  1  1  0  0  0
  1 13  1  0  0  0  0
  2  3  1  0  0  0  0
  2 10  1  6  0  0  0
  4  3  1  6  0  0  0
  4  5  1  0  0  0  0
  4 14  1  0  0  0  0
  5  6  1  0  0  0  0
  5 13  1  6  0  0  0
  6  7  1  0  0  0  0
  6 15  1  1  0  0  0
  7  8  1  0  0  0  0
  7 11  1  1  0  0  0
  8 14  1  0  0  0  0
  8 16  1  1  0  0  0
  9 11  1  0  0  0  0
 17 16  1  6  0  0  0
 17 18  1  0  0  0  0
 17 24  1  0  0  0  0
 18 19  1  0  0  0  0
 18 25  1  6  0  0  0
 19 20  1  0  0  0  0
 19 26  1  1  0  0  0
 20 21  1  0  0  0  0
 20 23  1  6  0  0  0
 21 22  1  1  0  0  0
 21 24  1  0  0  0  0
 22 27  1  0  0  0  0
 28 12  1  6  0  0  0
 28 29  1  0  0  0  0
 28 33  1  0  0  0  0
 29 30  1  0  0  0  0
 29 36  1  1  0  0  0
 30 31  1  0  0  0  0
 30 37  1  6  0  0  0
 31 32  1  0  0  0  0
 31 34  1  1  0  0  0
 32 33  1  0  0  0  0
 33 35  1  1  0  0  0
M  END
>  <CHROM.1>
-70.07765272,-177.17547748,-164.69604006,-175.59578127,-171.89849985,170.08564042
18.70516682,-3.10527610,45.93667214,-2.43633886,-0.58462116,0.75301477

>  <Name>
2oe8_lig

>  <RI>
0

>  <Rbt.Current_Directory>
/home/itssahil/PROJECTS/Mol_Feturizer/New_Systems/rnas/2oe8

>  <Rbt.Executable>
rbdock ($Id: //depot/dev/client3/rdock/2013.1/src/exe/rbdock.cxx#4 $)

>  <Rbt.Library>
libRbt.so (2013.1, Build901 2013/11/27)

>  <Rbt.Parameter_File>
/export/apps/rDock/src/rDock_2013.1_src/data/scripts/dock_solv.prm

>  <Rbt.Receptor>
prm/blind_docking_60.prm

>  <SCORE>
-22.7376

>  <SCORE.INTER>
-19.2787

>  <SCORE.INTER.CONST>
1

>  <SCORE.INTER.POLAR>
-2.47195

>  <SCORE.INTER.ROT>
6

>  <SCORE.INTER.SOLV>
11.268

>  <SCORE.INTER.VDW>
-15.9686

>  <SCORE.INTER.norm>
-0.521046

>  <SCORE.INTRA>
-3.45893

>  <SCORE.INTRA.DIHEDRAL>
-13.9545

>  <SCORE.INTRA.DIHEDRAL.0>
16.4056

>  <SCORE.INTRA.POLAR>
0

>  <SCORE.INTRA.POLAR.0>
0

>  <SCORE.INTRA.REPUL>
0

>  <SCORE.INTRA.REPUL.0>
0

>  <SCORE.INTRA.SOLV>
2.29922

>  <SCORE.INTRA.SOLV.lig_0>
-90.9627

>  <SCORE.INTRA.VDW>
2.36873

>  <SCORE.INTRA.VDW.0>
-3.28744

>  <SCORE.INTRA.norm>
-0.0934846

>  <SCORE.RESTR>
0

>  <SCORE.RESTR.CAVITY>
0

>  <SCORE.RESTR.norm>
0

>  <SCORE.SYSTEM>
0

>  <SCORE.SYSTEM.CONST>
0

>  <SCORE.SYSTEM.DIHEDRAL>
0

>  <SCORE.SYSTEM.SOLV>
0

>  <SCORE.SYSTEM.norm>
0

>  <SCORE.heavy>
37

>  <SCORE.norm>
-0.614531

>  <RMSD>
11.113

$$$$
2oe8_lig
 OpenBabel11021811463D
libRbt.so/2013.1/901 2013/11/27
 37 40  0  0  0  0  0  0  0  0999 V2000
   16.5610   -5.5053   44.9829 C   0  0  1  0  0  0  0  0  0  0  0  0
   15.7255   -5.6321   46.3131 C   0  0  1  0  0  0  0  0  0  0  0  0
   15.8651   -4.3304   47.1297 C   0  0  0  0  0  0  0  0  0  0  0  0
   17.3882   -4.1686   47.4293 C   0  0  1  0  0  0  0  0  0  0  0  0
   18.2598   -4.0582   46.0750 C   0  0  1  0  0  0  0  0  0  0  0  0
   19.7828   -3.9157   46.3649 C   0  0  1  0  0  0  0  0  0  0  0  0
   19.9729   -2.6260   47.2636 C   0  0  1  0  0  0  0  0  0  0  0  0
   19.0730   -2.7614   48.5410 C   0  0  2  0  0  0  0  0  0  0  0  0
   22.1608   -3.4881   48.4326 C   0  0  0  0  0  0  0  0  0  0  0  0
   14.2814   -5.8802   46.0045 N   0  0  0  0  0  0  0  0  0  0  0  0
   21.4380   -2.4268   47.6420 N   0  0  0  0  0  0  0  0  0  0  0  0
   16.0826   -4.4362   44.1569 O   0  0  0  0  0  0  0  0  0  0  0  0
   18.0057   -5.2563   45.2629 O   0  0  0  0  0  0  0  0  0  0  0  0
   17.6298   -2.9680   48.2214 O   0  0  0  0  0  0  0  0  0  0  0  0
   20.1973   -5.1096   47.0310 O   0  0  0  0  0  0  0  0  0  0  0  0
   19.1896   -1.6107   49.2955 O   0  0  0  0  0  0  0  0  0  0  0  0
   20.2320   -1.6806   50.2830 C   0  0  2  0  0  0  0  0  0  0  0  0
   19.6344   -1.5479   51.7046 C   0  0  1  0  0  0  0  0  0  0  0  0
   19.0203   -0.1347   51.9455 C   0  0  2  0  0  0  0  0  0  0  0  0
   20.1204    0.9473   51.7352 C   0  0  1  0  0  0  0  0  0  0  0  0
   20.6274    0.8047   50.2399 C   0  0  1  0  0  0  0  0  0  0  0  0
   21.7287    1.8088   49.9118 C   0  0  0  0  0  0  0  0  0  0  0  0
   19.5358    2.2993   51.9652 N   0  0  0  0  0  0  0  0  0  0  0  0
   21.1990   -0.5758   50.0532 O   0  0  0  0  0  0  0  0  0  0  0  0
   18.6557   -2.5940   51.8556 O   0  0  0  0  0  0  0  0  0  0  0  0
   18.5425   -0.0770   53.2731 O   0  0  0  0  0  0  0  0  0  0  0  0
   22.8531    1.5463   50.7093 O   0  0  0  0  0  0  0  0  0  0  0  0
   16.6070   -4.4557   42.8452 C   0  0  1  0  0  0  0  0  0  0  0  0
   15.6152   -5.2506   41.9364 C   0  0  1  0  0  0  0  0  0  0  0  0
   16.1966   -5.3071   40.4936 C   0  0  2  0  0  0  0  0  0  0  0  0
   16.4058   -3.8701   39.9236 C   0  0  1  0  0  0  0  0  0  0  0  0
   17.3968   -3.0566   40.8406 C   0  0  0  0  0  0  0  0  0  0  0  0
   16.7982   -2.9961   42.3070 C   0  0  2  0  0  0  0  0  0  0  0  0
   16.9671   -3.9508   38.5466 N   0  0  0  0  0  0  0  0  0  0  0  0
   17.7326   -2.2276   43.1600 N   0  0  0  0  0  0  0  0  0  0  0  0
   15.4504   -6.5931   42.4302 O   0  0  0  0  0  0  0  0  0  0  0  0
   15.2757   -6.0262   39.6899 O   0  0  0  0  0  0  0  0  0  0  0  0
  1  2  1  0  0  0  0
  1 12  1  6  0  0  0
  1 13  1  0  0  0  0
  2  3  1  0  0  0  0
  2 10  1  6  0  0  0
  4  3  1  6  0  0  0
  4  5  1  0  0  0  0
  4 14  1  0  0  0  0
  5  6  1  0  0  0  0
  5 13  1  6  0  0  0
  6  7  1  0  0  0  0
  6 15  1  1  0  0  0
  7  8  1  0  0  0  0
  7 11  1  1  0  0  0
  8 14  1  0  0  0  0
  8 16  1  1  0  0  0
  9 11  1  0  0  0  0
 17 16  1  6  0  0  0
 17 18  1  0  0  0  0
 17 24  1  0  0  0  0
 18 19  1  0  0  0  0
 18 25  1  6  0  0  0
 19 20  1  0  0  0  0
 19 26  1  1  0  0  0
 20 21  1  0  0  0  0
 20 23  1  6  0  0  0
 21 22  1  1  0  0  0
 21 24  1  0  0  0  0
 22 27  1  0  0  0  0
 28 12  1  1  0  0  0
 28 29  1  0  0  0  0
 28 33  1  0  0  0  0
 29 30  1  0  0  0  0
 29 36  1  1  0  0  0
 30 31  1  0  0  0  0
 30 37  1  6  0  0  0
 31 32  1  0  0  0  0
 31 34  1  6  0  0  0
 32 33  1  0  0  0  0
 33 35  1  1  0  0  0
M  END
>  <CHROM.1>
-167.53874931,-60.44349897,-91.25940683,-117.92360295,63.67751559,92.81267011
18.34973738,-2.89745204,46.69053903,2.12904249,-0.80444546,-1.62244280

>  <Name>
2oe8_lig

>  <RI>
0

>  <Rbt.Current_Directory>
/home/itssahil/PROJECTS/Mol_Feturizer/New_Systems/rnas/2oe8

>  <Rbt.Executable>
rbdock ($Id: //depot/dev/client3/rdock/2013.1/src/exe/rbdock.cxx#4 $)

>  <Rbt.Library>
libRbt.so (2013.1, Build901 2013/11/27)

>  <Rbt.Parameter_File>
/export/apps/rDock/src/rDock_2013.1_src/data/scripts/dock_solv.prm

>  <Rbt.Receptor>
prm/blind_docking_100.prm

>  <SCORE>
-30.8717

>  <SCORE.INTER>
-31.5561

>  <SCORE.INTER.CONST>
1

>  <SCORE.INTER.POLAR>
-4.29251

>  <SCORE.INTER.ROT>
6

>  <SCORE.INTER.SOLV>
22.0385

>  <SCORE.INTER.VDW>
-21.6752

>  <SCORE.INTER.norm>
-0.852868

>  <SCORE.INTRA>
0.684381

>  <SCORE.INTRA.DIHEDRAL>
-0.451575

>  <SCORE.INTRA.DIHEDRAL.0>
16.4056

>  <SCORE.INTRA.POLAR>
0

>  <SCORE.INTRA.POLAR.0>
0

>  <SCORE.INTRA.REPUL>
0

>  <SCORE.INTRA.REPUL.0>
0

>  <SCORE.INTRA.SOLV>
0.0523119

>  <SCORE.INTRA.SOLV.lig_0>
-90.9627

>  <SCORE.INTRA.VDW>
0.884013

>  <SCORE.INTRA.VDW.0>
-3.28744

>  <SCORE.INTRA.norm>
0.0184968

>  <SCORE.RESTR>
0

>  <SCORE.RESTR.CAVITY>
0

>  <SCORE.RESTR.norm>
0

>  <SCORE.SYSTEM>
0

>  <SCORE.SYSTEM.CONST>
0

>  <SCORE.SYSTEM.DIHEDRAL>
0

>  <SCORE.SYSTEM.SOLV>
0

>  <SCORE.SYSTEM.norm>
0

>  <SCORE.heavy>
37

>  <SCORE.norm>
-0.834371

>  <RMSD>
11.126

$$$$
2oe8_lig
 OpenBabel11021811463D
libRbt.so/2013.1/901 2013/11/27
 37 40  0  0  0  0  0  0  0  0999 V2000
   16.6293   -5.5195   44.9713 C   0  0  1  0  0  0  0  0  0  0  0  0
   15.7977   -5.6602   46.3025 C   0  0  1  0  0  0  0  0  0  0  0  0
   15.9159   -4.3562   47.1186 C   0  0  0  0  0  0  0  0  0  0  0  0
   17.4363   -4.1682   47.4165 C   0  0  1  0  0  0  0  0  0  0  0  0
   18.3043   -4.0432   46.0612 C   0  0  1  0  0  0  0  0  0  0  0  0
   19.8250   -3.8746   46.3493 C   0  0  1  0  0  0  0  0  0  0  0  0
   19.9940   -2.5817   47.2474 C   0  0  1  0  0  0  0  0  0  0  0  0
   19.0980   -2.7321   48.5259 C   0  0  2  0  0  0  0  0  0  0  0  0
   22.1782   -3.3747   48.4708 C   0  0  0  0  0  0  0  0  0  0  0  0
   14.3577   -5.9332   45.9956 N   0  0  0  0  0  0  0  0  0  0  0  0
   21.4559   -2.3573   47.6241 N   0  0  0  0  0  0  0  0  0  0  0  0
   16.1318   -4.4590   44.1456 O   0  0  0  0  0  0  0  0  0  0  0  0
   18.0698   -5.2457   45.2496 O   0  0  0  0  0  0  0  0  0  0  0  0
   17.6582   -2.9635   48.2080 O   0  0  0  0  0  0  0  0  0  0  0  0
   20.2606   -5.0611   47.0152 O   0  0  0  0  0  0  0  0  0  0  0  0
   19.1957   -1.5794   49.2800 O   0  0  0  0  0  0  0  0  0  0  0  0
   20.2207   -1.6424   50.2861 C   0  0  2  0  0  0  0  0  0  0  0  0
   19.5958   -1.5237   51.6971 C   0  0  1  0  0  0  0  0  0  0  0  0
   18.9613   -0.1188   51.9335 C   0  0  2  0  0  0  0  0  0  0  0  0
   20.0525    0.9767   51.7486 C   0  0  1  0  0  0  0  0  0  0  0  0
   20.5883    0.8474   50.2622 C   0  0  1  0  0  0  0  0  0  0  0  0
   21.6838    1.8656   49.9591 C   0  0  0  0  0  0  0  0  0  0  0  0
   19.4484    2.3208   51.9744 N   0  0  0  0  0  0  0  0  0  0  0  0
   21.1790   -0.5255   50.0793 O   0  0  0  0  0  0  0  0  0  0  0  0
   18.6266   -2.5815   51.8252 O   0  0  0  0  0  0  0  0  0  0  0  0
   18.4587   -0.0732   53.2525 O   0  0  0  0  0  0  0  0  0  0  0  0
   22.8040    1.5994   50.7612 O   0  0  0  0  0  0  0  0  0  0  0  0
   16.6660   -4.4613   42.8378 C   0  0  1  0  0  0  0  0  0  0  0  0
   15.7082   -5.2897   41.9224 C   0  0  1  0  0  0  0  0  0  0  0  0
   16.3015   -5.3271   40.4838 C   0  0  2  0  0  0  0  0  0  0  0  0
   16.4660   -3.8840   39.9144 C   0  0  1  0  0  0  0  0  0  0  0  0
   17.4222   -3.0370   40.8379 C   0  0  0  0  0  0  0  0  0  0  0  0
   16.8114   -2.9963   42.2999 C   0  0  2  0  0  0  0  0  0  0  0  0
   17.0396   -3.9462   38.5415 N   0  0  0  0  0  0  0  0  0  0  0  0
   17.7130   -2.1962   43.1592 N   0  0  0  0  0  0  0  0  0  0  0  0
   15.5854   -6.6368   42.4158 O   0  0  0  0  0  0  0  0  0  0  0  0
   15.4114   -6.0773   39.6740 O   0  0  0  0  0  0  0  0  0  0  0  0
  1  2  1  0  0  0  0
  1 12  1  6  0  0  0
  1 13  1  0  0  0  0
  2  3  1  0  0  0  0
  2 10  1  6  0  0  0
  4  3  1  6  0  0  0
  4  5  1  0  0  0  0
  4 14  1  0  0  0  0
  5  6  1  0  0  0  0
  5 13  1  6  0  0  0
  6  7  1  0  0  0  0
  6 15  1  1  0  0  0
  7  8  1  0  0  0  0
  7 11  1  1  0  0  0
  8 14  1  0  0  0  0
  8 16  1  1  0  0  0
  9 11  1  0  0  0  0
 17 16  1  6  0  0  0
 17 18  1  0  0  0  0
 17 24  1  0  0  0  0
 18 19  1  0  0  0  0
 18 25  1  6  0  0  0
 19 20  1  0  0  0  0
 19 26  1  1  0  0  0
 20 21  1  0  0  0  0
 20 23  1  6  0  0  0
 21 22  1  1  0  0  0
 21 24  1  0  0  0  0
 22 27  1  0  0  0  0
 28 12  1  1  0  0  0
 28 29  1  0  0  0  0
 28 33  1  0  0  0  0
 29 30  1  0  0  0  0
 29 36  1  1  0  0  0
 30 31  1  0  0  0  0
 30 37  1  6  0  0  0
 31 32  1  0  0  0  0
 31 34  1  6  0  0  0
 32 33  1  0  0  0  0
 33 35  1  1  0  0  0
M  END
>  <CHROM.1>
-168.18666256,-63.40421922,-92.56041975,-117.37143700,64.57119006,92.17968347
18.37263003,-2.88394872,46.68661485,2.11908969,-0.81644127,-1.63067206

>  <Name>
2oe8_lig

>  <RI>
0

>  <Rbt.Current_Directory>
/home/itssahil/PROJECTS/Mol_Feturizer/New_Systems/rnas/2oe8

>  <Rbt.Executable>
rbdock ($Id: //depot/dev/client3/rdock/2013.1/src/exe/rbdock.cxx#4 $)

>  <Rbt.Library>
libRbt.so (2013.1, Build901 2013/11/27)

>  <Rbt.Parameter_File>
/export/apps/rDock/src/rDock_2013.1_src/data/scripts/dock_solv.prm

>  <Rbt.Receptor>
prm/blind_docking_80.prm

>  <SCORE>
-30.9224

>  <SCORE.INTER>
-31.5998

>  <SCORE.INTER.CONST>
1

>  <SCORE.INTER.POLAR>
-4.2803

>  <SCORE.INTER.ROT>
6

>  <SCORE.INTER.SOLV>
22.5395

>  <SCORE.INTER.VDW>
-21.9121

>  <SCORE.INTER.norm>
-0.854049

>  <SCORE.INTRA>
0.677429

>  <SCORE.INTRA.DIHEDRAL>
-0.377377

>  <SCORE.INTRA.DIHEDRAL.0>
16.4056

>  <SCORE.INTRA.POLAR>
0

>  <SCORE.INTRA.POLAR.0>
0

>  <SCORE.INTRA.REPUL>
0

>  <SCORE.INTRA.REPUL.0>
0

>  <SCORE.INTRA.SOLV>
-0.0276093

>  <SCORE.INTRA.SOLV.lig_0>
-90.9627

>  <SCORE.INTRA.VDW>
0.879922

>  <SCORE.INTRA.VDW.0>
-3.28744

>  <SCORE.INTRA.norm>
0.0183089

>  <SCORE.RESTR>
0

>  <SCORE.RESTR.CAVITY>
0

>  <SCORE.RESTR.norm>
0

>  <SCORE.SYSTEM>
0

>  <SCORE.SYSTEM.CONST>
0

>  <SCORE.SYSTEM.DIHEDRAL>
0

>  <SCORE.SYSTEM.SOLV>
0

>  <SCORE.SYSTEM.norm>
0

>  <SCORE.heavy>
37

>  <SCORE.norm>
-0.83574

>  <RMSD>
11.129

$$$$
2oe8_lig
 OpenBabel11021811463D
libRbt.so/2013.1/901 2013/11/27
 37 40  0  0  0  0  0  0  0  0999 V2000
   16.4381   -5.5178   43.7845 C   0  0  1  0  0  0  0  0  0  0  0  0
   15.5791   -5.6593   45.0981 C   0  0  1  0  0  0  0  0  0  0  0  0
   15.8742   -4.4670   46.0320 C   0  0  0  0  0  0  0  0  0  0  0  0
   17.4022   -4.5290   46.3435 C   0  0  1  0  0  0  0  0  0  0  0  0
   18.2952   -4.4060   45.0043 C   0  0  1  0  0  0  0  0  0  0  0  0
   19.8208   -4.4861   45.3044 C   0  0  1  0  0  0  0  0  0  0  0  0
   20.1634   -3.3197   46.3188 C   0  0  1  0  0  0  0  0  0  0  0  0
   19.2401   -3.4566   47.5792 C   0  0  2  0  0  0  0  0  0  0  0  0
   22.2603   -2.1390   47.3704 C   0  0  0  0  0  0  0  0  0  0  0  0
   14.1186   -5.6919   44.7695 N   0  0  0  0  0  0  0  0  0  0  0  0
   21.6379   -3.3446   46.7123 N   0  0  0  0  0  0  0  0  0  0  0  0
   16.1082   -4.3249   43.0619 O   0  0  0  0  0  0  0  0  0  0  0  0
   17.8996   -5.4819   44.0847 O   0  0  0  0  0  0  0  0  0  0  0  0
   17.7858   -3.4472   47.2434 O   0  0  0  0  0  0  0  0  0  0  0  0
   20.0731   -5.7794   45.8562 O   0  0  0  0  0  0  0  0  0  0  0  0
   19.4937   -2.4047   48.4371 O   0  0  0  0  0  0  0  0  0  0  0  0
   18.8094   -2.5193   49.6963 C   0  0  2  0  0  0  0  0  0  0  0  0
   19.3905   -1.5110   50.7167 C   0  0  1  0  0  0  0  0  0  0  0  0
   20.8663   -1.8499   51.0900 C   0  0  2  0  0  0  0  0  0  0  0  0
   20.9306   -3.2898   51.6796 C   0  0  1  0  0  0  0  0  0  0  0  0
   20.3978   -4.2725   50.5555 C   0  0  1  0  0  0  0  0  0  0  0  0
   20.3960   -5.7258   51.0209 C   0  0  0  0  0  0  0  0  0  0  0  0
   22.3406   -3.6161   52.0375 N   0  0  0  0  0  0  0  0  0  0  0  0
   18.9778   -3.8994   50.2211 O   0  0  0  0  0  0  0  0  0  0  0  0
   19.2690   -0.1983   50.1364 O   0  0  0  0  0  0  0  0  0  0  0  0
   21.3065   -0.9190   52.0564 O   0  0  0  0  0  0  0  0  0  0  0  0
   19.9694   -6.5523   49.9702 O   0  0  0  0  0  0  0  0  0  0  0  0
   14.7507   -4.2526   42.6775 C   0  0  1  0  0  0  0  0  0  0  0  0
   14.4705   -2.8088   42.1499 C   0  0  1  0  0  0  0  0  0  0  0  0
   12.9692   -2.7056   41.7520 C   0  0  2  0  0  0  0  0  0  0  0  0
   12.6142   -3.7528   40.6515 C   0  0  1  0  0  0  0  0  0  0  0  0
   12.9044   -5.2124   41.1710 C   0  0  0  0  0  0  0  0  0  0  0  0
   14.4351   -5.3150   41.5692 C   0  0  2  0  0  0  0  0  0  0  0  0
   11.1735   -3.6379   40.2924 N   0  0  0  0  0  0  0  0  0  0  0  0
   14.6996   -6.6891   42.0520 N   0  0  0  0  0  0  0  0  0  0  0  0
   14.7534   -1.8379   43.1748 O   0  0  0  0  0  0  0  0  0  0  0  0
   12.7441   -1.3907   41.2712 O   0  0  0  0  0  0  0  0  0  0  0  0
  1  2  1  0  0  0  0
  1 12  1  1  0  0  0
  1 13  1  0  0  0  0
  2  3  1  0  0  0  0
  2 10  1  6  0  0  0
  4  3  1  6  0  0  0
  4  5  1  0  0  0  0
  4 14  1  0  0  0  0
  5  6  1  0  0  0  0
  5 13  1  6  0  0  0
  6  7  1  0  0  0  0
  6 15  1  1  0  0  0
  7  8  1  0  0  0  0
  7 11  1  1  0  0  0
  8 14  1  0  0  0  0
  8 16  1  1  0  0  0
  9 11  1  0  0  0  0
 17 16  1  6  0  0  0
 17 18  1  0  0  0  0
 17 24  1  0  0  0  0
 18 19  1  0  0  0  0
 18 25  1  6  0  0  0
 19 20  1  0  0  0  0
 19 26  1  1  0  0  0
 20 21  1  0  0  0  0
 20 23  1  6  0  0  0
 21 22  1  1  0  0  0
 21 24  1  0  0  0  0
 22 27  1  0  0  0  0
 28 12  1  6  0  0  0
 28 29  1  0  0  0  0
 28 33  1  0  0  0  0
 29 30  1  0  0  0  0
 29 36  1  1  0  0  0
 30 31  1  0  0  0  0
 30 37  1  6  0  0  0
 31 32  1  0  0  0  0
 31 34  1  1  0  0  0
 32 33  1  0  0  0  0
 33 35  1  1  0  0  0
M  END
>  <CHROM.1>
-58.84086274,164.14786267,-173.22436783,166.50137437,-177.56224876,169.43354416
17.60964609,-3.77249928,46.22431065,-2.70646601,-0.79941998,0.45479141

>  <Name>
2oe8_lig

>  <RI>
0

>  <Rbt.Current_Directory>
/home/itssahil/PROJECTS/Mol_Feturizer/New_Systems/rnas/2oe8

>  <Rbt.Executable>
rbdock ($Id: //depot/dev/client3/rdock/2013.1/src/exe/rbdock.cxx#4 $)

>  <Rbt.Library>
libRbt.so (2013.1, Build901 2013/11/27)

>  <Rbt.Parameter_File>
/export/apps/rDock/src/rDock_2013.1_src/data/scripts/dock_solv.prm

>  <Rbt.Receptor>
prm/blind_docking_80.prm

>  <SCORE>
-25.6717

>  <SCORE.INTER>
-22.3846

>  <SCORE.INTER.CONST>
1

>  <SCORE.INTER.POLAR>
-2.61183

>  <SCORE.INTER.ROT>
6

>  <SCORE.INTER.SOLV>
10.9951

>  <SCORE.INTER.VDW>
-17.482

>  <SCORE.INTER.norm>
-0.60499

>  <SCORE.INTRA>
-3.28709

>  <SCORE.INTRA.DIHEDRAL>
-14.489

>  <SCORE.INTRA.DIHEDRAL.0>
16.4056

>  <SCORE.INTRA.POLAR>
0

>  <SCORE.INTRA.POLAR.0>
0

>  <SCORE.INTRA.REPUL>
0.00652388

>  <SCORE.INTRA.REPUL.0>
0

>  <SCORE.INTRA.SOLV>
2.7873

>  <SCORE.INTRA.SOLV.lig_0>
-90.9627

>  <SCORE.INTRA.VDW>
2.53115

>  <SCORE.INTRA.VDW.0>
-3.28744

>  <SCORE.INTRA.norm>
-0.0888403

>  <SCORE.RESTR>
0

>  <SCORE.RESTR.CAVITY>
0

>  <SCORE.RESTR.norm>
0

>  <SCORE.SYSTEM>
0

>  <SCORE.SYSTEM.CONST>
0

>  <SCORE.SYSTEM.DIHEDRAL>
0

>  <SCORE.SYSTEM.SOLV>
0

>  <SCORE.SYSTEM.norm>
0

>  <SCORE.heavy>
37

>  <SCORE.norm>
-0.69383

>  <RMSD>
11.130

$$$$
2oe8_lig
 OpenBabel11021811463D
libRbt.so/2013.1/901 2013/11/27
 37 40  0  0  0  0  0  0  0  0999 V2000
   16.5892   -5.5371   44.9193 C   0  0  1  0  0  0  0  0  0  0  0  0
   15.7512   -5.6765   46.2466 C   0  0  1  0  0  0  0  0  0  0  0  0
   15.8691   -4.3733   47.0641 C   0  0  0  0  0  0  0  0  0  0  0  0
   17.3886   -4.1895   47.3690 C   0  0  1  0  0  0  0  0  0  0  0  0
   18.2631   -4.0659   46.0177 C   0  0  1  0  0  0  0  0  0  0  0  0
   19.7829   -3.9014   46.3128 C   0  0  1  0  0  0  0  0  0  0  0  0
   19.9511   -2.6094   47.2126 C   0  0  1  0  0  0  0  0  0  0  0  0
   19.0490   -2.7584   48.4869 C   0  0  2  0  0  0  0  0  0  0  0  0
   22.1183   -3.3927   48.4720 C   0  0  0  0  0  0  0  0  0  0  0  0
   14.3119   -5.9455   45.9330 N   0  0  0  0  0  0  0  0  0  0  0  0
   21.4119   -2.3891   47.5960 N   0  0  0  0  0  0  0  0  0  0  0  0
   16.0982   -4.4747   44.0920 O   0  0  0  0  0  0  0  0  0  0  0  0
   18.0292   -5.2672   45.2043 O   0  0  0  0  0  0  0  0  0  0  0  0
   17.6100   -2.9858   48.1623 O   0  0  0  0  0  0  0  0  0  0  0  0
   20.2124   -5.0894   46.9799 O   0  0  0  0  0  0  0  0  0  0  0  0
   19.1462   -1.6064   49.2422 O   0  0  0  0  0  0  0  0  0  0  0  0
   20.1687   -1.6714   50.2506 C   0  0  2  0  0  0  0  0  0  0  0  0
   19.5380   -1.5806   51.6612 C   0  0  1  0  0  0  0  0  0  0  0  0
   18.8857   -0.1871   51.9156 C   0  0  2  0  0  0  0  0  0  0  0  0
   19.9641    0.9241   51.7501 C   0  0  1  0  0  0  0  0  0  0  0  0
   20.5061    0.8227   50.2637 C   0  0  1  0  0  0  0  0  0  0  0  0
   21.5902    1.8583   49.9789 C   0  0  0  0  0  0  0  0  0  0  0  0
   19.3430    2.2574   51.9930 N   0  0  0  0  0  0  0  0  0  0  0  0
   21.1141   -0.5402   50.0631 O   0  0  0  0  0  0  0  0  0  0  0  0
   18.5813   -2.6519   51.7708 O   0  0  0  0  0  0  0  0  0  0  0  0
   18.3784   -0.1665   53.2334 O   0  0  0  0  0  0  0  0  0  0  0  0
   22.7259    1.5703   50.7511 O   0  0  0  0  0  0  0  0  0  0  0  0
   16.6611   -4.4594   42.7964 C   0  0  1  0  0  0  0  0  0  0  0  0
   15.7122   -5.2558   41.8441 C   0  0  1  0  0  0  0  0  0  0  0  0
   16.3367   -5.2738   40.4184 C   0  0  2  0  0  0  0  0  0  0  0  0
   16.5342   -3.8226   39.8813 C   0  0  1  0  0  0  0  0  0  0  0  0
   17.4816   -3.0077   40.8422 C   0  0  0  0  0  0  0  0  0  0  0  0
   16.8392   -2.9865   42.2910 C   0  0  2  0  0  0  0  0  0  0  0  0
   17.1371   -3.8664   38.5203 N   0  0  0  0  0  0  0  0  0  0  0  0
   17.7328   -2.2165   43.1853 N   0  0  0  0  0  0  0  0  0  0  0  0
   15.5595   -6.6103   42.3080 O   0  0  0  0  0  0  0  0  0  0  0  0
   15.4542   -5.9951   39.5746 O   0  0  0  0  0  0  0  0  0  0  0  0
  1  2  1  0  0  0  0
  1 12  1  6  0  0  0
  1 13  1  0  0  0  0
  2  3  1  0  0  0  0
  2 10  1  6  0  0  0
  4  3  1  6  0  0  0
  4  5  1  0  0  0  0
  4 14  1  0  0  0  0
  5  6  1  0  0  0  0
  5 13  1  6  0  0  0
  6  7  1  0  0  0  0
  6 15  1  1  0  0  0
  7  8  1  0  0  0  0
  7 11  1  1  0  0  0
  8 14  1  0  0  0  0
  8 16  1  1  0  0  0
  9 11  1  0  0  0  0
 17 16  1  6  0  0  0
 17 18  1  0  0  0  0
 17 24  1  0  0  0  0
 18 19  1  0  0  0  0
 18 25  1  6  0  0  0
 19 20  1  0  0  0  0
 19 26  1  1  0  0  0
 20 21  1  0  0  0  0
 20 23  1  6  0  0  0
 21 22  1  1  0  0  0
 21 24  1  0  0  0  0
 22 27  1  0  0  0  0
 28 12  1  1  0  0  0
 28 29  1  0  0  0  0
 28 33  1  0  0  0  0
 29 30  1  0  0  0  0
 29 36  1  1  0  0  0
 30 31  1  0  0  0  0
 30 37  1  6  0  0  0
 31 32  1  0  0  0  0
 31 34  1  6  0  0  0
 32 33  1  0  0  0  0
 33 35  1  1  0  0  0
M  END
>  <CHROM.1>
-169.55038730,-64.83268040,-92.41447500,-116.28202003,66.34636404,93.76571201
18.33898896,-2.89784871,46.65257469,2.10637705,-0.81598993,-1.63395669

>  <Name>
2oe8_lig

>  <RI>
0

>  <Rbt.Current_Directory>
/home/itssahil/PROJECTS/Mol_Feturizer/New_Systems/rnas/2oe8

>  <Rbt.Executable>
rbdock ($Id: //depot/dev/client3/rdock/2013.1/src/exe/rbdock.cxx#4 $)

>  <Rbt.Library>
libRbt.so (2013.1, Build901 2013/11/27)

>  <Rbt.Parameter_File>
/export/apps/rDock/src/rDock_2013.1_src/data/scripts/dock_solv.prm

>  <Rbt.Receptor>
prm/blind_docking_60.prm

>  <SCORE>
-30.7263

>  <SCORE.INTER>
-31.5191

>  <SCORE.INTER.CONST>
1

>  <SCORE.INTER.POLAR>
-4.23608

>  <SCORE.INTER.ROT>
6

>  <SCORE.INTER.SOLV>
22.7905

>  <SCORE.INTER.VDW>
-22.0893

>  <SCORE.INTER.norm>
-0.851868

>  <SCORE.INTRA>
0.792796

>  <SCORE.INTRA.DIHEDRAL>
-0.205355

>  <SCORE.INTRA.DIHEDRAL.0>
16.4056

>  <SCORE.INTRA.POLAR>
0

>  <SCORE.INTRA.POLAR.0>
0

>  <SCORE.INTRA.REPUL>
0

>  <SCORE.INTRA.REPUL.0>
0

>  <SCORE.INTRA.SOLV>
0.00152148

>  <SCORE.INTRA.SOLV.lig_0>
-90.9627

>  <SCORE.INTRA.VDW>
0.894713

>  <SCORE.INTRA.VDW.0>
-3.28744

>  <SCORE.INTRA.norm>
0.0214269

>  <SCORE.RESTR>
0

>  <SCORE.RESTR.CAVITY>
0

>  <SCORE.RESTR.norm>
0

>  <SCORE.SYSTEM>
0

>  <SCORE.SYSTEM.CONST>
0

>  <SCORE.SYSTEM.DIHEDRAL>
0

>  <SCORE.SYSTEM.SOLV>
0

>  <SCORE.SYSTEM.norm>
0

>  <SCORE.heavy>
37

>  <SCORE.norm>
-0.830441

>  <RMSD>
11.144

$$$$
2oe8_lig
 OpenBabel11021811463D
libRbt.so/2013.1/901 2013/11/27
 37 40  0  0  0  0  0  0  0  0999 V2000
   17.8358   -6.5608   44.2172 C   0  0  1  0  0  0  0  0  0  0  0  0
   17.4423   -7.4037   45.4892 C   0  0  1  0  0  0  0  0  0  0  0  0
   17.4094   -6.4794   46.7241 C   0  0  0  0  0  0  0  0  0  0  0  0
   18.8465   -5.8857   46.8590 C   0  0  1  0  0  0  0  0  0  0  0  0
   19.2718   -5.0362   45.5538 C   0  0  1  0  0  0  0  0  0  0  0  0
   20.7118   -4.4563   45.6722 C   0  0  1  0  0  0  0  0  0  0  0  0
   20.7500   -3.5508   46.9705 C   0  0  1  0  0  0  0  0  0  0  0  0
   20.2860   -4.4075   48.1996 C   0  0  2  0  0  0  0  0  0  0  0  0
   22.3042   -1.6848   47.9699 C   0  0  0  0  0  0  0  0  0  0  0  0
   16.1006   -8.0416   45.3020 N   0  0  0  0  0  0  0  0  0  0  0  0
   22.1431   -2.9708   47.1993 N   0  0  0  0  0  0  0  0  0  0  0  0
   16.8768   -5.5306   43.9471 O   0  0  0  0  0  0  0  0  0  0  0  0
   19.1706   -5.9128   44.3787 O   0  0  0  0  0  0  0  0  0  0  0  0
   18.9303   -5.0050   48.0185 O   0  0  0  0  0  0  0  0  0  0  0  0
   21.6064   -5.5669   45.7562 O   0  0  0  0  0  0  0  0  0  0  0  0
   20.2589   -3.6033   49.3219 O   0  0  0  0  0  0  0  0  0  0  0  0
   20.5794   -4.3066   50.5341 C   0  0  2  0  0  0  0  0  0  0  0  0
   20.2867   -3.4154   51.7652 C   0  0  1  0  0  0  0  0  0  0  0  0
   21.2316   -2.1760   51.8211 C   0  0  2  0  0  0  0  0  0  0  0  0
   22.7117   -2.6584   51.8621 C   0  0  1  0  0  0  0  0  0  0  0  0
   22.9613   -3.4932   50.5377 C   0  0  1  0  0  0  0  0  0  0  0  0
   24.3844   -4.0396   50.4663 C   0  0  0  0  0  0  0  0  0  0  0  0
   23.6171   -1.4752   51.9158 N   0  0  0  0  0  0  0  0  0  0  0  0
   22.0206   -4.6690   50.5233 O   0  0  0  0  0  0  0  0  0  0  0  0
   18.8996   -3.0332   51.6954 O   0  0  0  0  0  0  0  0  0  0  0  0
   20.9364   -1.4432   52.9917 O   0  0  0  0  0  0  0  0  0  0  0  0
   24.6336   -4.8425   51.5898 O   0  0  0  0  0  0  0  0  0  0  0  0
   17.1861   -4.7531   42.8088 C   0  0  1  0  0  0  0  0  0  0  0  0
   16.9985   -5.6487   41.5422 C   0  0  1  0  0  0  0  0  0  0  0  0
   17.3668   -4.8132   40.2815 C   0  0  2  0  0  0  0  0  0  0  0  0
   16.4655   -3.5445   40.1746 C   0  0  1  0  0  0  0  0  0  0  0  0
   16.6397   -2.6400   41.4538 C   0  0  0  0  0  0  0  0  0  0  0  0
   16.2579   -3.4924   42.7344 C   0  0  2  0  0  0  0  0  0  0  0  0
   16.8404   -2.7602   38.9654 N   0  0  0  0  0  0  0  0  0  0  0  0
   16.4205   -2.6349   43.9300 N   0  0  0  0  0  0  0  0  0  0  0  0
   17.8599   -6.8003   41.6116 O   0  0  0  0  0  0  0  0  0  0  0  0
   17.1815   -5.6456   39.1484 O   0  0  0  0  0  0  0  0  0  0  0  0
  1  2  1  0  0  0  0
  1 12  1  1  0  0  0
  1 13  1  0  0  0  0
  2  3  1  0  0  0  0
  2 10  1  6  0  0  0
  4  3  1  6  0  0  0
  4  5  1  0  0  0  0
  4 14  1  0  0  0  0
  5  6  1  0  0  0  0
  5 13  1  6  0  0  0
  6  7  1  0  0  0  0
  6 15  1  1  0  0  0
  7  8  1  0  0  0  0
  7 11  1  1  0  0  0
  8 14  1  0  0  0  0
  8 16  1  1  0  0  0
  9 11  1  0  0  0  0
 17 16  1  6  0  0  0
 17 18  1  0  0  0  0
 17 24  1  0  0  0  0
 18 19  1  0  0  0  0
 18 25  1  6  0  0  0
 19 20  1  0  0  0  0
 19 26  1  1  0  0  0
 20 21  1  0  0  0  0
 20 23  1  6  0  0  0
 21 22  1  1  0  0  0
 21 24  1  0  0  0  0
 22 27  1  0  0  0  0
 28 12  1  1  0  0  0
 28 29  1  0  0  0  0
 28 33  1  0  0  0  0
 29 30  1  0  0  0  0
 29 36  1  1  0  0  0
 30 31  1  0  0  0  0
 30 37  1  6  0  0  0
 31 32  1  0  0  0  0
 31 34  1  6  0  0  0
 32 33  1  0  0  0  0
 33 35  1  1  0  0  0
M  END
>  <CHROM.1>
-179.67137787,154.41161603,-147.61684871,-169.98160286,57.92608344,69.58119465
19.52629643,-4.34244485,46.52266423,2.44595375,-0.91822957,-0.99542400

>  <Name>
2oe8_lig

>  <RI>
0

>  <Rbt.Current_Directory>
/home/itssahil/PROJECTS/Mol_Feturizer/New_Systems/rnas/2oe8

>  <Rbt.Executable>
rbdock ($Id: //depot/dev/client3/rdock/2013.1/src/exe/rbdock.cxx#4 $)

>  <Rbt.Library>
libRbt.so (2013.1, Build901 2013/11/27)

>  <Rbt.Parameter_File>
/export/apps/rDock/src/rDock_2013.1_src/data/scripts/dock_solv.prm

>  <Rbt.Receptor>
prm/blind_docking_80.prm

>  <SCORE>
-21.4919

>  <SCORE.INTER>
-16.6466

>  <SCORE.INTER.CONST>
1

>  <SCORE.INTER.POLAR>
-2.59501

>  <SCORE.INTER.ROT>
6

>  <SCORE.INTER.SOLV>
15.8982

>  <SCORE.INTER.VDW>
-15.3471

>  <SCORE.INTER.norm>
-0.449908

>  <SCORE.INTRA>
-4.8634

>  <SCORE.INTRA.DIHEDRAL>
-10.921

>  <SCORE.INTRA.DIHEDRAL.0>
16.4056

>  <SCORE.INTRA.POLAR>
0

>  <SCORE.INTRA.POLAR.0>
0

>  <SCORE.INTRA.REPUL>
0

>  <SCORE.INTRA.REPUL.0>
0

>  <SCORE.INTRA.SOLV>
-1.36277

>  <SCORE.INTRA.SOLV.lig_0>
-90.9627

>  <SCORE.INTRA.VDW>
1.27848

>  <SCORE.INTRA.VDW.0>
-3.28744

>  <SCORE.INTRA.norm>
-0.131443

>  <SCORE.RESTR>
0.018063

>  <SCORE.RESTR.CAVITY>
0.018063

>  <SCORE.RESTR.norm>
0.000488188

>  <SCORE.SYSTEM>
0

>  <SCORE.SYSTEM.CONST>
0

>  <SCORE.SYSTEM.DIHEDRAL>
0

>  <SCORE.SYSTEM.SOLV>
0

>  <SCORE.SYSTEM.norm>
0

>  <SCORE.heavy>
37

>  <SCORE.norm>
-0.580863

>  <RMSD>
11.144

$$$$
2oe8_lig
 OpenBabel11021811463D
libRbt.so/2013.1/901 2013/11/27
 37 40  0  0  0  0  0  0  0  0999 V2000
   17.7512   -5.9755   43.1394 C   0  0  1  0  0  0  0  0  0  0  0  0
   18.0308   -7.2669   43.9982 C   0  0  1  0  0  0  0  0  0  0  0  0
   18.2583   -6.8623   45.4697 C   0  0  0  0  0  0  0  0  0  0  0  0
   19.4896   -5.9032   45.4695 C   0  0  1  0  0  0  0  0  0  0  0  0
   19.2255   -4.5846   44.5764 C   0  0  1  0  0  0  0  0  0  0  0  0
   20.4563   -3.6314   44.5554 C   0  0  1  0  0  0  0  0  0  0  0  0
   20.7753   -3.2405   46.0562 C   0  0  1  0  0  0  0  0  0  0  0  0
   20.9780   -4.5535   46.8898 C   0  0  2  0  0  0  0  0  0  0  0  0
   22.3915   -1.7235   47.4644 C   0  0  0  0  0  0  0  0  0  0  0  0
   16.8762   -8.2163   43.9100 N   0  0  0  0  0  0  0  0  0  0  0  0
   22.0037   -2.3388   46.1435 N   0  0  0  0  0  0  0  0  0  0  0  0
   16.5685   -5.2944   43.5769 O   0  0  0  0  0  0  0  0  0  0  0  0
   18.8880   -5.0111   43.2112 O   0  0  0  0  0  0  0  0  0  0  0  0
   19.8047   -5.4738   46.8272 O   0  0  0  0  0  0  0  0  0  0  0  0
   21.5295   -4.3445   43.9385 O   0  0  0  0  0  0  0  0  0  0  0  0
   21.1948   -4.2165   48.2113 O   0  0  0  0  0  0  0  0  0  0  0  0
   21.3971   -5.3565   49.0637 C   0  0  2  0  0  0  0  0  0  0  0  0
   21.5695   -4.9036   50.5337 C   0  0  1  0  0  0  0  0  0  0  0  0
   22.8781   -4.0800   50.7366 C   0  0  2  0  0  0  0  0  0  0  0  0
   24.1012   -4.9424   50.3059 C   0  0  1  0  0  0  0  0  0  0  0  0
   23.8968   -5.3002   48.7751 C   0  0  1  0  0  0  0  0  0  0  0  0
   25.0319   -6.1647   48.2338 C   0  0  0  0  0  0  0  0  0  0  0  0
   25.3537   -4.1572   50.4993 N   0  0  0  0  0  0  0  0  0  0  0  0
   22.6185   -6.0825   48.6284 O   0  0  0  0  0  0  0  0  0  0  0  0
   20.3959   -4.1472   50.8878 O   0  0  0  0  0  0  0  0  0  0  0  0
   22.9875   -3.7473   52.1047 O   0  0  0  0  0  0  0  0  0  0  0  0
   24.7583   -6.5154   46.9029 O   0  0  0  0  0  0  0  0  0  0  0  0
   16.1329   -4.2875   42.6868 C   0  0  1  0  0  0  0  0  0  0  0  0
   15.4284   -4.9799   41.4760 C   0  0  1  0  0  0  0  0  0  0  0  0
   14.9708   -3.8828   40.4711 C   0  0  2  0  0  0  0  0  0  0  0  0
   13.9912   -2.8792   41.1542 C   0  0  1  0  0  0  0  0  0  0  0  0
   14.6898   -2.1838   42.3842 C   0  0  0  0  0  0  0  0  0  0  0  0
   15.1486   -3.3036   43.4078 C   0  0  2  0  0  0  0  0  0  0  0  0
   13.5727   -1.8378   40.1753 N   0  0  0  0  0  0  0  0  0  0  0  0
   15.7998   -2.6421   44.5608 N   0  0  0  0  0  0  0  0  0  0  0  0
   16.3397   -5.8755   40.8122 O   0  0  0  0  0  0  0  0  0  0  0  0
   14.3300   -4.5363   39.3879 O   0  0  0  0  0  0  0  0  0  0  0  0
  1  2  1  0  0  0  0
  1 12  1  1  0  0  0
  1 13  1  0  0  0  0
  2  3  1  0  0  0  0
  2 10  1  1  0  0  0
  4  3  1  1  0  0  0
  4  5  1  0  0  0  0
  4 14  1  0  0  0  0
  5  6  1  0  0  0  0
  5 13  1  6  0  0  0
  6  7  1  0  0  0  0
  6 15  1  1  0  0  0
  7  8  1  0  0  0  0
  7 11  1  6  0  0  0
  8 14  1  0  0  0  0
  8 16  1  1  0  0  0
  9 11  1  0  0  0  0
 17 16  1  6  0  0  0
 17 18  1  0  0  0  0
 17 24  1  0  0  0  0
 18 19  1  0  0  0  0
 18 25  1  6  0  0  0
 19 20  1  0  0  0  0
 19 26  1  1  0  0  0
 20 21  1  0  0  0  0
 20 23  1  6  0  0  0
 21 22  1  1  0  0  0
 21 24  1  0  0  0  0
 22 27  1  0  0  0  0
 28 12  1  1  0  0  0
 28 29  1  0  0  0  0
 28 33  1  0  0  0  0
 29 30  1  0  0  0  0
 29 36  1  6  0  0  0
 30 31  1  0  0  0  0
 30 37  1  6  0  0  0
 31 32  1  0  0  0  0
 31 34  1  6  0  0  0
 32 33  1  0  0  0  0
 33 35  1  1  0  0  0
M  END
>  <CHROM.1>
-168.42343545,173.14961582,-179.83513721,-177.47175338,176.49593729,76.72396982
19.48391221,-4.61689563,45.60286111,-2.73000352,-0.69182389,0.66392405

>  <Name>
2oe8_lig

>  <RI>
0

>  <Rbt.Current_Directory>
/home/itssahil/PROJECTS/Mol_Feturizer/New_Systems/rnas/2oe8

>  <Rbt.Executable>
rbdock ($Id: //depot/dev/client3/rdock/2013.1/src/exe/rbdock.cxx#4 $)

>  <Rbt.Library>
libRbt.so (2013.1, Build901 2013/11/27)

>  <Rbt.Parameter_File>
/export/apps/rDock/src/rDock_2013.1_src/data/scripts/dock_solv.prm

>  <Rbt.Receptor>
prm/blind_docking_100.prm

>  <SCORE>
-25.8701

>  <SCORE.INTER>
-19.0706

>  <SCORE.INTER.CONST>
1

>  <SCORE.INTER.POLAR>
-1.89539

>  <SCORE.INTER.ROT>
6

>  <SCORE.INTER.SOLV>
18.0283

>  <SCORE.INTER.VDW>
-20.0052

>  <SCORE.INTER.norm>
-0.515422

>  <SCORE.INTRA>
-6.80361

>  <SCORE.INTRA.DIHEDRAL>
-14.2885

>  <SCORE.INTRA.DIHEDRAL.0>
16.4056

>  <SCORE.INTRA.POLAR>
0

>  <SCORE.INTRA.POLAR.0>
0

>  <SCORE.INTRA.REPUL>
0

>  <SCORE.INTRA.REPUL.0>
0

>  <SCORE.INTRA.SOLV>
-2.58446

>  <SCORE.INTRA.SOLV.lig_0>
-90.9627

>  <SCORE.INTRA.VDW>
1.63286

>  <SCORE.INTRA.VDW.0>
-3.28744

>  <SCORE.INTRA.norm>
-0.183881

>  <SCORE.RESTR>
0.00412659

>  <SCORE.RESTR.CAVITY>
0.00412659

>  <SCORE.RESTR.norm>
0.000111529

>  <SCORE.SYSTEM>
0

>  <SCORE.SYSTEM.CONST>
0

>  <SCORE.SYSTEM.DIHEDRAL>
0

>  <SCORE.SYSTEM.SOLV>
0

>  <SCORE.SYSTEM.norm>
0

>  <SCORE.heavy>
37

>  <SCORE.norm>
-0.699191

>  <RMSD>
11.184

$$$$
2oe8_lig
 OpenBabel11021811463D
libRbt.so/2013.1/901 2013/11/27
 37 40  0  0  0  0  0  0  0  0999 V2000
   17.0530   -4.7527   43.8783 C   0  0  1  0  0  0  0  0  0  0  0  0
   16.3727   -5.0510   45.2682 C   0  0  1  0  0  0  0  0  0  0  0  0
   16.6886   -3.9021   46.2484 C   0  0  0  0  0  0  0  0  0  0  0  0
   18.2435   -3.8568   46.3756 C   0  0  1  0  0  0  0  0  0  0  0  0
   18.9557   -3.5724   44.9551 C   0  0  1  0  0  0  0  0  0  0  0  0
   20.5081   -3.5446   45.0699 C   0  0  1  0  0  0  0  0  0  0  0  0
   20.8829   -2.4226   46.1224 C   0  0  1  0  0  0  0  0  0  0  0  0
   20.1320   -2.7183   47.4673 C   0  0  2  0  0  0  0  0  0  0  0  0
   22.9663   -1.3264   47.2860 C   0  0  0  0  0  0  0  0  0  0  0  0
   14.8897   -5.1836   45.1092 N   0  0  0  0  0  0  0  0  0  0  0  0
   22.3918   -2.3503   46.3398 N   0  0  0  0  0  0  0  0  0  0  0  0
   16.5495   -3.5466   43.2903 O   0  0  0  0  0  0  0  0  0  0  0  0
   18.5333   -4.6148   44.0094 O   0  0  0  0  0  0  0  0  0  0  0  0
   18.6511   -2.8081   47.3037 O   0  0  0  0  0  0  0  0  0  0  0  0
   20.9217   -4.8457   45.4903 O   0  0  0  0  0  0  0  0  0  0  0  0
   20.4083   -1.7074   48.3666 O   0  0  0  0  0  0  0  0  0  0  0  0
   19.9512   -1.9909   49.6999 C   0  0  2  0  0  0  0  0  0  0  0  0
   20.1434   -0.7523   50.6079 C   0  0  1  0  0  0  0  0  0  0  0  0
   21.6518   -0.4179   50.8202 C   0  0  2  0  0  0  0  0  0  0  0  0
   22.3679   -1.6482   51.4517 C   0  0  1  0  0  0  0  0  0  0  0  0
   22.1993   -2.8521   50.4342 C   0  0  1  0  0  0  0  0  0  0  0  0
   22.8503   -4.1321   50.9506 C   0  0  0  0  0  0  0  0  0  0  0  0
   23.8102   -1.3309   51.6560 N   0  0  0  0  0  0  0  0  0  0  0  0
   20.7303   -3.1292   50.2528 O   0  0  0  0  0  0  0  0  0  0  0  0
   19.4298    0.3397   49.9970 O   0  0  0  0  0  0  0  0  0  0  0  0
   21.7444    0.6878   51.6938 O   0  0  0  0  0  0  0  0  0  0  0  0
   22.7253   -5.1424   49.9847 O   0  0  0  0  0  0  0  0  0  0  0  0
   15.9507   -3.7403   42.0255 C   0  0  1  0  0  0  0  0  0  0  0  0
   15.0475   -2.5023   41.7199 C   0  0  1  0  0  0  0  0  0  0  0  0
   14.3563   -2.7170   40.3419 C   0  0  2  0  0  0  0  0  0  0  0  0
   15.4166   -2.8943   39.2115 C   0  0  1  0  0  0  0  0  0  0  0  0
   16.3400   -4.1348   39.5170 C   0  0  0  0  0  0  0  0  0  0  0  0
   17.0466   -3.9094   40.9177 C   0  0  2  0  0  0  0  0  0  0  0  0
   14.7314   -3.1034   37.9059 N   0  0  0  0  0  0  0  0  0  0  0  0
   17.9142   -5.0763   41.1948 N   0  0  0  0  0  0  0  0  0  0  0  0
   14.0373   -2.3572   42.7356 O   0  0  0  0  0  0  0  0  0  0  0  0
   13.5501   -1.5787   40.0865 O   0  0  0  0  0  0  0  0  0  0  0  0
  1  2  1  0  0  0  0
  1 12  1  1  0  0  0
  1 13  1  0  0  0  0
  2  3  1  0  0  0  0
  2 10  1  6  0  0  0
  4  3  1  6  0  0  0
  4  5  1  0  0  0  0
  4 14  1  0  0  0  0
  5  6  1  0  0  0  0
  5 13  1  6  0  0  0
  6  7  1  0  0  0  0
  6 15  1  1  0  0  0
  7  8  1  0  0  0  0
  7 11  1  1  0  0  0
  8 14  1  0  0  0  0
  8 16  1  1  0  0  0
  9 11  1  0  0  0  0
 17 16  1  6  0  0  0
 17 18  1  0  0  0  0
 17 24  1  0  0  0  0
 18 19  1  0  0  0  0
 18 25  1  6  0  0  0
 19 20  1  0  0  0  0
 19 26  1  1  0  0  0
 20 21  1  0  0  0  0
 20 23  1  6  0  0  0
 21 22  1  1  0  0  0
 21 24  1  0  0  0  0
 22 27  1  0  0  0  0
 28 12  1  1  0  0  0
 28 29  1  0  0  0  0
 28 33  1  0  0  0  0
 29 30  1  0  0  0  0
 29 36  1  1  0  0  0
 30 31  1  0  0  0  0
 30 37  1  6  0  0  0
 31 32  1  0  0  0  0
 31 34  1  6  0  0  0
 32 33  1  0  0  0  0
 33 35  1  1  0  0  0
M  END
>  <CHROM.1>
-120.54008650,178.77937863,-170.27088271,-173.29857520,-177.22175250,161.41552201
18.83072482,-2.91915669,45.87450843,-2.31403858,-0.58947395,0.93613764

>  <Name>
2oe8_lig

>  <RI>
0

>  <Rbt.Current_Directory>
/home/itssahil/PROJECTS/Mol_Feturizer/New_Systems/rnas/2oe8

>  <Rbt.Executable>
rbdock ($Id: //depot/dev/client3/rdock/2013.1/src/exe/rbdock.cxx#4 $)

>  <Rbt.Library>
libRbt.so (2013.1, Build901 2013/11/27)

>  <Rbt.Parameter_File>
/export/apps/rDock/src/rDock_2013.1_src/data/scripts/dock_solv.prm

>  <Rbt.Receptor>
prm/blind_docking_100.prm

>  <SCORE>
-20.5771

>  <SCORE.INTER>
-17.8408

>  <SCORE.INTER.CONST>
1

>  <SCORE.INTER.POLAR>
-1.85731

>  <SCORE.INTER.ROT>
6

>  <SCORE.INTER.SOLV>
12.8896

>  <SCORE.INTER.VDW>
-17.5994

>  <SCORE.INTER.norm>
-0.482183

>  <SCORE.INTRA>
-2.73632

>  <SCORE.INTRA.DIHEDRAL>
-6.91966

>  <SCORE.INTRA.DIHEDRAL.0>
16.4056

>  <SCORE.INTRA.POLAR>
0

>  <SCORE.INTRA.POLAR.0>
0

>  <SCORE.INTRA.REPUL>
0

>  <SCORE.INTRA.REPUL.0>
0

>  <SCORE.INTRA.SOLV>
-0.580726

>  <SCORE.INTRA.SOLV.lig_0>
-90.9627

>  <SCORE.INTRA.VDW>
1.01387

>  <SCORE.INTRA.VDW.0>
-3.28744

>  <SCORE.INTRA.norm>
-0.0739546

>  <SCORE.RESTR>
0

>  <SCORE.RESTR.CAVITY>
0

>  <SCORE.RESTR.norm>
0

>  <SCORE.SYSTEM>
0

>  <SCORE.SYSTEM.CONST>
0

>  <SCORE.SYSTEM.DIHEDRAL>
0

>  <SCORE.SYSTEM.SOLV>
0

>  <SCORE.SYSTEM.norm>
0

>  <SCORE.heavy>
37

>  <SCORE.norm>
-0.556138

>  <RMSD>
11.212

$$$$
2oe8_lig
 OpenBabel11021811463D
libRbt.so/2013.1/901 2013/11/27
 37 40  0  0  0  0  0  0  0  0999 V2000
   15.9023   -5.7150   44.7170 C   0  0  1  0  0  0  0  0  0  0  0  0
   15.2831   -5.9729   46.1430 C   0  0  1  0  0  0  0  0  0  0  0  0
   15.4411   -4.7034   47.0055 C   0  0  0  0  0  0  0  0  0  0  0  0
   16.9748   -4.4283   47.0940 C   0  0  1  0  0  0  0  0  0  0  0  0
   17.6274   -4.1825   45.6381 C   0  0  1  0  0  0  0  0  0  0  0  0
   19.1611   -3.9262   45.7159 C   0  0  1  0  0  0  0  0  0  0  0  0
   19.3818   -2.6681   46.6516 C   0  0  1  0  0  0  0  0  0  0  0  0
   18.6920   -2.9376   48.0341 C   0  0  2  0  0  0  0  0  0  0  0  0
   21.6968   -3.1963   47.7735 C   0  0  0  0  0  0  0  0  0  0  0  0
   13.8326   -6.3269   46.0293 N   0  0  0  0  0  0  0  0  0  0  0  0
   20.8671   -2.3643   46.8284 N   0  0  0  0  0  0  0  0  0  0  0  0
   15.2278   -4.6527   44.0309 O   0  0  0  0  0  0  0  0  0  0  0  0
   17.3492   -5.3588   44.8024 O   0  0  0  0  0  0  0  0  0  0  0  0
   17.2375   -3.2496   47.9119 O   0  0  0  0  0  0  0  0  0  0  0  0
   19.7587   -5.1106   46.2458 O   0  0  0  0  0  0  0  0  0  0  0  0
   18.8297   -1.8173   48.8298 O   0  0  0  0  0  0  0  0  0  0  0  0
   18.2357   -1.9664   50.1305 C   0  0  2  0  0  0  0  0  0  0  0  0
   19.1007   -1.2567   51.2000 C   0  0  1  0  0  0  0  0  0  0  0  0
   20.4903   -1.9438   51.3705 C   0  0  2  0  0  0  0  0  0  0  0  0
   20.2821   -3.4349   51.7684 C   0  0  1  0  0  0  0  0  0  0  0  0
   19.4617   -4.1149   50.5946 C   0  0  1  0  0  0  0  0  0  0  0  0
   19.1767   -5.5876   50.8752 C   0  0  0  0  0  0  0  0  0  0  0  0
   21.6092   -4.0939   51.9323 N   0  0  0  0  0  0  0  0  0  0  0  0
   18.1368   -3.4119   50.4608 O   0  0  0  0  0  0  0  0  0  0  0  0
   19.2261    0.1219   50.8017 O   0  0  0  0  0  0  0  0  0  0  0  0
   21.1971   -1.2721   52.3921 O   0  0  0  0  0  0  0  0  0  0  0  0
   18.4640   -6.1388   49.7994 O   0  0  0  0  0  0  0  0  0  0  0  0
   15.6669   -4.4689   42.7008 C   0  0  1  0  0  0  0  0  0  0  0  0
   15.1366   -5.6631   41.8439 C   0  0  1  0  0  0  0  0  0  0  0  0
   15.6399   -5.4897   40.3811 C   0  0  2  0  0  0  0  0  0  0  0  0
   15.1407   -4.1398   39.7795 C   0  0  1  0  0  0  0  0  0  0  0  0
   15.6617   -2.9293   40.6443 C   0  0  0  0  0  0  0  0  0  0  0  0
   15.1420   -3.1063   42.1311 C   0  0  2  0  0  0  0  0  0  0  0  0
   15.6392   -3.9951   38.3836 N   0  0  0  0  0  0  0  0  0  0  0  0
   15.6323   -1.9641   42.9349 N   0  0  0  0  0  0  0  0  0  0  0  0
   15.6291   -6.9112   42.3661 O   0  0  0  0  0  0  0  0  0  0  0  0
   15.1399   -6.5804   39.6253 O   0  0  0  0  0  0  0  0  0  0  0  0
  1  2  1  0  0  0  0
  1 12  1  1  0  0  0
  1 13  1  0  0  0  0
  2  3  1  0  0  0  0
  2 10  1  6  0  0  0
  4  3  1  6  0  0  0
  4  5  1  0  0  0  0
  4 14  1  0  0  0  0
  5  6  1  0  0  0  0
  5 13  1  6  0  0  0
  6  7  1  0  0  0  0
  6 15  1  1  0  0  0
  7  8  1  0  0  0  0
  7 11  1  1  0  0  0
  8 14  1  0  0  0  0
  8 16  1  1  0  0  0
  9 11  1  0  0  0  0
 17 16  1  6  0  0  0
 17 18  1  0  0  0  0
 17 24  1  0  0  0  0
 18 19  1  0  0  0  0
 18 25  1  6  0  0  0
 19 20  1  0  0  0  0
 19 26  1  1  0  0  0
 20 21  1  0  0  0  0
 20 23  1  6  0  0  0
 21 22  1  1  0  0  0
 21 24  1  0  0  0  0
 22 27  1  0  0  0  0
 28 12  1  1  0  0  0
 28 29  1  0  0  0  0
 28 33  1  0  0  0  0
 29 30  1  0  0  0  0
 29 36  1  1  0  0  0
 30 31  1  0  0  0  0
 30 37  1  6  0  0  0
 31 32  1  0  0  0  0
 31 34  1  6  0  0  0
 32 33  1  0  0  0  0
 33 35  1  1  0  0  0
M  END
>  <CHROM.1>
-174.42245061,-77.72724216,-179.57714762,143.06635261,-179.33300188,71.99618376
17.67132503,-3.92353183,46.40130869,2.41200344,-0.96248459,-1.05978994

>  <Name>
2oe8_lig

>  <RI>
0

>  <Rbt.Current_Directory>
/home/itssahil/PROJECTS/Mol_Feturizer/New_Systems/rnas/2oe8

>  <Rbt.Executable>
rbdock ($Id: //depot/dev/client3/rdock/2013.1/src/exe/rbdock.cxx#4 $)

>  <Rbt.Library>
libRbt.so (2013.1, Build901 2013/11/27)

>  <Rbt.Parameter_File>
/export/apps/rDock/src/rDock_2013.1_src/data/scripts/dock_solv.prm

>  <Rbt.Receptor>
prm/blind_docking_60.prm

>  <SCORE>
-22.288

>  <SCORE.INTER>
-19.5532

>  <SCORE.INTER.CONST>
1

>  <SCORE.INTER.POLAR>
-2.59136

>  <SCORE.INTER.ROT>
6

>  <SCORE.INTER.SOLV>
20.4963

>  <SCORE.INTER.VDW>
-18.8297

>  <SCORE.INTER.norm>
-0.528464

>  <SCORE.INTRA>
-2.73485

>  <SCORE.INTRA.DIHEDRAL>
-10.3737

>  <SCORE.INTRA.DIHEDRAL.0>
16.4056

>  <SCORE.INTRA.POLAR>
0

>  <SCORE.INTRA.POLAR.0>
0

>  <SCORE.INTRA.REPUL>
0

>  <SCORE.INTRA.REPUL.0>
0

>  <SCORE.INTRA.SOLV>
-1.65083

>  <SCORE.INTRA.SOLV.lig_0>
-90.9627

>  <SCORE.INTRA.VDW>
3.27741

>  <SCORE.INTRA.VDW.0>
-3.28744

>  <SCORE.INTRA.norm>
-0.0739149

>  <SCORE.RESTR>
0

>  <SCORE.RESTR.CAVITY>
0

>  <SCORE.RESTR.norm>
0

>  <SCORE.SYSTEM>
0

>  <SCORE.SYSTEM.CONST>
0

>  <SCORE.SYSTEM.DIHEDRAL>
0

>  <SCORE.SYSTEM.SOLV>
0

>  <SCORE.SYSTEM.norm>
0

>  <SCORE.heavy>
37

>  <SCORE.norm>
-0.602379

>  <RMSD>
11.214

$$$$
2oe8_lig
 OpenBabel11021811463D
libRbt.so/2013.1/901 2013/11/27
 37 40  0  0  0  0  0  0  0  0999 V2000
   16.3292   -5.0158   44.9235 C   0  0  1  0  0  0  0  0  0  0  0  0
   15.9868   -3.5350   45.3399 C   0  0  1  0  0  0  0  0  0  0  0  0
   17.2902   -2.7910   45.6980 C   0  0  0  0  0  0  0  0  0  0  0  0
   17.9279   -3.5809   46.8834 C   0  0  1  0  0  0  0  0  0  0  0  0
   18.2653   -5.1066   46.4779 C   0  0  1  0  0  0  0  0  0  0  0  0
   18.8844   -5.9072   47.6610 C   0  0  1  0  0  0  0  0  0  0  0  0
   20.1945   -5.1419   48.1135 C   0  0  1  0  0  0  0  0  0  0  0  0
   19.8223   -3.6563   48.4519 C   0  0  2  0  0  0  0  0  0  0  0  0
   22.3554   -5.8781   49.4116 C   0  0  0  0  0  0  0  0  0  0  0  0
   15.2916   -2.8224   44.2214 N   0  0  0  0  0  0  0  0  0  0  0  0
   20.8519   -5.8293   49.3072 N   0  0  0  0  0  0  0  0  0  0  0  0
   17.1711   -5.0588   43.7645 O   0  0  0  0  0  0  0  0  0  0  0  0
   17.0246   -5.7487   46.0220 O   0  0  0  0  0  0  0  0  0  0  0  0
   19.1665   -2.9438   47.3161 O   0  0  0  0  0  0  0  0  0  0  0  0
   17.8994   -5.9588   48.6944 O   0  0  0  0  0  0  0  0  0  0  0  0
   20.9734   -2.9709   48.7869 O   0  0  0  0  0  0  0  0  0  0  0  0
   20.8762   -1.5534   48.5676 C   0  0  2  0  0  0  0  0  0  0  0  0
   22.1781   -0.8497   49.0206 C   0  0  1  0  0  0  0  0  0  0  0  0
   22.3847   -0.9504   50.5631 C   0  0  2  0  0  0  0  0  0  0  0  0
   21.1632   -0.3128   51.2888 C   0  0  1  0  0  0  0  0  0  0  0  0
   19.8819   -1.1318   50.8410 C   0  0  1  0  0  0  0  0  0  0  0  0
   18.6055   -0.5891   51.4776 C   0  0  0  0  0  0  0  0  0  0  0  0
   21.3585   -0.4076   52.7638 N   0  0  0  0  0  0  0  0  0  0  0  0
   19.7314   -1.0148   49.3473 O   0  0  0  0  0  0  0  0  0  0  0  0
   23.2647   -1.4510   48.2907 O   0  0  0  0  0  0  0  0  0  0  0  0
   23.5612   -0.2466   50.9020 O   0  0  0  0  0  0  0  0  0  0  0  0
   18.6797   -0.7356   52.8712 O   0  0  0  0  0  0  0  0  0  0  0  0
   16.4832   -4.8129   42.5553 C   0  0  1  0  0  0  0  0  0  0  0  0
   17.4863   -4.1644   41.5479 C   0  0  1  0  0  0  0  0  0  0  0  0
   16.7329   -3.8588   40.2205 C   0  0  2  0  0  0  0  0  0  0  0  0
   16.1341   -5.1636   39.6100 C   0  0  1  0  0  0  0  0  0  0  0  0
   15.1289   -5.8312   40.6243 C   0  0  0  0  0  0  0  0  0  0  0  0
   15.9014   -6.1463   41.9719 C   0  0  2  0  0  0  0  0  0  0  0  0
   15.4148   -4.8446   38.3457 N   0  0  0  0  0  0  0  0  0  0  0  0
   14.9517   -6.7761   42.9167 N   0  0  0  0  0  0  0  0  0  0  0  0
   18.0106   -2.9356   42.0850 O   0  0  0  0  0  0  0  0  0  0  0  0
   17.6657   -3.2787   39.3238 O   0  0  0  0  0  0  0  0  0  0  0  0
  1  2  1  0  0  0  0
  1 12  1  6  0  0  0
  1 13  1  0  0  0  0
  2  3  1  0  0  0  0
  2 10  1  6  0  0  0
  4  3  1  6  0  0  0
  4  5  1  0  0  0  0
  4 14  1  0  0  0  0
  5  6  1  0  0  0  0
  5 13  1  1  0  0  0
  6  7  1  0  0  0  0
  6 15  1  1  0  0  0
  7  8  1  0  0  0  0
  7 11  1  1  0  0  0
  8 14  1  0  0  0  0
  8 16  1  6  0  0  0
  9 11  1  0  0  0  0
 17 16  1  1  0  0  0
 17 18  1  0  0  0  0
 17 24  1  0  0  0  0
 18 19  1  0  0  0  0
 18 25  1  6  0  0  0
 19 20  1  0  0  0  0
 19 26  1  6  0  0  0
 20 21  1  0  0  0  0
 20 23  1  1  0  0  0
 21 22  1  1  0  0  0
 21 24  1  0  0  0  0
 22 27  1  0  0  0  0
 28 12  1  1  0  0  0
 28 29  1  0  0  0  0
 28 33  1  0  0  0  0
 29 30  1  0  0  0  0
 29 36  1  1  0  0  0
 30 31  1  0  0  0  0
 30 37  1  6  0  0  0
 31 32  1  0  0  0  0
 31 34  1  6  0  0  0
 32 33  1  0  0  0  0
 33 35  1  1  0  0  0
M  END
>  <CHROM.1>
-77.01197685,143.38888144,155.21293784,177.61384273,-63.21517996,150.96633960
18.71440403,-3.46526629,46.42562618,2.44670339,-0.95305840,-1.13475462

>  <Name>
2oe8_lig

>  <RI>
0

>  <Rbt.Current_Directory>
/home/itssahil/PROJECTS/Mol_Feturizer/New_Systems/rnas/2oe8

>  <Rbt.Executable>
rbdock ($Id: //depot/dev/client3/rdock/2013.1/src/exe/rbdock.cxx#4 $)

>  <Rbt.Library>
libRbt.so (2013.1, Build901 2013/11/27)

>  <Rbt.Parameter_File>
/export/apps/rDock/src/rDock_2013.1_src/data/scripts/dock_solv.prm

>  <Rbt.Receptor>
prm/blind_docking_80.prm

>  <SCORE>
-18.3559

>  <SCORE.INTER>
-16.9039

>  <SCORE.INTER.CONST>
1

>  <SCORE.INTER.POLAR>
-2.09598

>  <SCORE.INTER.ROT>
6

>  <SCORE.INTER.SOLV>
12.8502

>  <SCORE.INTER.VDW>
-16.1661

>  <SCORE.INTER.norm>
-0.456863

>  <SCORE.INTRA>
-1.45198

>  <SCORE.INTRA.DIHEDRAL>
-8.12306

>  <SCORE.INTRA.DIHEDRAL.0>
16.4056

>  <SCORE.INTRA.POLAR>
0

>  <SCORE.INTRA.POLAR.0>
0

>  <SCORE.INTRA.REPUL>
0

>  <SCORE.INTRA.REPUL.0>
0

>  <SCORE.INTRA.SOLV>
1.24313

>  <SCORE.INTRA.SOLV.lig_0>
-90.9627

>  <SCORE.INTRA.VDW>
1.98798

>  <SCORE.INTRA.VDW.0>
-3.28744

>  <SCORE.INTRA.norm>
-0.0392428

>  <SCORE.RESTR>
0

>  <SCORE.RESTR.CAVITY>
0

>  <SCORE.RESTR.norm>
0

>  <SCORE.SYSTEM>
0

>  <SCORE.SYSTEM.CONST>
0

>  <SCORE.SYSTEM.DIHEDRAL>
0

>  <SCORE.SYSTEM.SOLV>
0

>  <SCORE.SYSTEM.norm>
0

>  <SCORE.heavy>
37

>  <SCORE.norm>
-0.496106

>  <RMSD>
11.230

$$$$
2oe8_lig
 OpenBabel11021811463D
libRbt.so/2013.1/901 2013/11/27
 37 40  0  0  0  0  0  0  0  0999 V2000
   16.2479   -5.6766   44.8338 C   0  0  1  0  0  0  0  0  0  0  0  0
   15.5174   -4.3215   45.1702 C   0  0  1  0  0  0  0  0  0  0  0  0
   16.5664   -3.2581   45.5567 C   0  0  0  0  0  0  0  0  0  0  0  0
   17.3166   -3.8231   46.8032 C   0  0  1  0  0  0  0  0  0  0  0  0
   18.0532   -5.2226   46.4793 C   0  0  1  0  0  0  0  0  0  0  0  0
   18.7883   -5.8028   47.7231 C   0  0  1  0  0  0  0  0  0  0  0  0
   19.8332   -4.7144   48.2032 C   0  0  1  0  0  0  0  0  0  0  0  0
   19.0770   -3.3646   48.4601 C   0  0  2  0  0  0  0  0  0  0  0  0
   21.5425   -6.3295   49.3721 C   0  0  0  0  0  0  0  0  0  0  0  0
   14.7275   -3.8440   43.9911 N   0  0  0  0  0  0  0  0  0  0  0  0
   20.5759   -5.1751   49.4545 N   0  0  0  0  0  0  0  0  0  0  0  0
   17.1367   -5.5365   43.7182 O   0  0  0  0  0  0  0  0  0  0  0  0
   17.0443   -6.1744   45.9938 O   0  0  0  0  0  0  0  0  0  0  0  0
   18.3261   -2.8775   47.2657 O   0  0  0  0  0  0  0  0  0  0  0  0
   17.7925   -6.0748   48.7106 O   0  0  0  0  0  0  0  0  0  0  0  0
   19.9952   -2.3976   48.8190 O   0  0  0  0  0  0  0  0  0  0  0  0
   19.8782   -1.9824   50.1904 C   0  0  2  0  0  0  0  0  0  0  0  0
   20.4272   -0.5458   50.3649 C   0  0  1  0  0  0  0  0  0  0  0  0
   21.9643   -0.4780   50.1102 C   0  0  2  0  0  0  0  0  0  0  0  0
   22.6921   -1.4415   51.0937 C   0  0  1  0  0  0  0  0  0  0  0  0
   22.1404   -2.8992   50.8039 C   0  0  1  0  0  0  0  0  0  0  0  0
   22.7704   -3.9419   51.7230 C   0  0  0  0  0  0  0  0  0  0  0  0
   24.1619   -1.3783   50.8523 N   0  0  0  0  0  0  0  0  0  0  0  0
   20.6551   -2.9116   51.0513 O   0  0  0  0  0  0  0  0  0  0  0  0
   19.6932    0.3043   49.4630 O   0  0  0  0  0  0  0  0  0  0  0  0
   22.3952    0.8479   50.3354 O   0  0  0  0  0  0  0  0  0  0  0  0
   24.1450   -4.0310   51.4554 O   0  0  0  0  0  0  0  0  0  0  0  0
   16.4820   -5.2067   42.5105 C   0  0  1  0  0  0  0  0  0  0  0  0
   17.5070   -4.4753   41.5853 C   0  0  1  0  0  0  0  0  0  0  0  0
   16.7898   -4.0779   40.2622 C   0  0  2  0  0  0  0  0  0  0  0  0
   16.2241   -5.3385   39.5380 C   0  0  1  0  0  0  0  0  0  0  0  0
   15.1970   -6.0894   40.4686 C   0  0  0  0  0  0  0  0  0  0  0  0
   15.9329   -6.4978   41.8117 C   0  0  2  0  0  0  0  0  0  0  0  0
   15.5389   -4.9320   38.2799 N   0  0  0  0  0  0  0  0  0  0  0  0
   14.9629   -7.2053   42.6776 N   0  0  0  0  0  0  0  0  0  0  0  0
   18.0013   -3.2856   42.2284 O   0  0  0  0  0  0  0  0  0  0  0  0
   17.7420   -3.4236   39.4400 O   0  0  0  0  0  0  0  0  0  0  0  0
  1  2  1  0  0  0  0
  1 12  1  6  0  0  0
  1 13  1  0  0  0  0
  2  3  1  0  0  0  0
  2 10  1  6  0  0  0
  4  3  1  6  0  0  0
  4  5  1  0  0  0  0
  4 14  1  0  0  0  0
  5  6  1  0  0  0  0
  5 13  1  1  0  0  0
  6  7  1  0  0  0  0
  6 15  1  1  0  0  0
  7  8  1  0  0  0  0
  7 11  1  1  0  0  0
  8 14  1  0  0  0  0
  8 16  1  6  0  0  0
  9 11  1  0  0  0  0
 17 16  1  6  0  0  0
 17 18  1  0  0  0  0
 17 24  1  0  0  0  0
 18 19  1  0  0  0  0
 18 25  1  6  0  0  0
 19 20  1  0  0  0  0
 19 26  1  1  0  0  0
 20 21  1  0  0  0  0
 20 23  1  6  0  0  0
 21 22  1  1  0  0  0
 21 24  1  0  0  0  0
 22 27  1  0  0  0  0
 28 12  1  1  0  0  0
 28 29  1  0  0  0  0
 28 33  1  0  0  0  0
 29 30  1  0  0  0  0
 29 36  1  1  0  0  0
 30 31  1  0  0  0  0
 30 37  1  6  0  0  0
 31 32  1  0  0  0  0
 31 34  1  6  0  0  0
 32 33  1  0  0  0  0
 33 35  1  1  0  0  0
M  END
>  <CHROM.1>
-63.40087554,68.18798517,-111.30230610,-154.56481835,-64.79987746,154.93911489
18.79053354,-3.85859067,46.44186808,2.79926197,-0.99864391,-0.70149944

>  <Name>
2oe8_lig

>  <RI>
0

>  <Rbt.Current_Directory>
/home/itssahil/PROJECTS/Mol_Feturizer/New_Systems/rnas/2oe8

>  <Rbt.Executable>
rbdock ($Id: //depot/dev/client3/rdock/2013.1/src/exe/rbdock.cxx#4 $)

>  <Rbt.Library>
libRbt.so (2013.1, Build901 2013/11/27)

>  <Rbt.Parameter_File>
/export/apps/rDock/src/rDock_2013.1_src/data/scripts/dock_solv.prm

>  <Rbt.Receptor>
prm/blind_docking_100.prm

>  <SCORE>
-13.127

>  <SCORE.INTER>
-13.6359

>  <SCORE.INTER.CONST>
1

>  <SCORE.INTER.POLAR>
-1.49529

>  <SCORE.INTER.ROT>
6

>  <SCORE.INTER.SOLV>
11.319

>  <SCORE.INTER.VDW>
-15.4793

>  <SCORE.INTER.norm>
-0.368537

>  <SCORE.INTRA>
0.508916

>  <SCORE.INTRA.DIHEDRAL>
-3.95239

>  <SCORE.INTRA.DIHEDRAL.0>
16.4056

>  <SCORE.INTRA.POLAR>
0

>  <SCORE.INTRA.POLAR.0>
0

>  <SCORE.INTRA.REPUL>
0

>  <SCORE.INTRA.REPUL.0>
0

>  <SCORE.INTRA.SOLV>
4.15895

>  <SCORE.INTRA.SOLV.lig_0>
-90.9627

>  <SCORE.INTRA.VDW>
0.405638

>  <SCORE.INTRA.VDW.0>
-3.28744

>  <SCORE.INTRA.norm>
0.0137545

>  <SCORE.RESTR>
0

>  <SCORE.RESTR.CAVITY>
0

>  <SCORE.RESTR.norm>
0

>  <SCORE.SYSTEM>
0

>  <SCORE.SYSTEM.CONST>
0

>  <SCORE.SYSTEM.DIHEDRAL>
0

>  <SCORE.SYSTEM.SOLV>
0

>  <SCORE.SYSTEM.norm>
0

>  <SCORE.heavy>
37

>  <SCORE.norm>
-0.354783

>  <RMSD>
11.250

$$$$
2oe8_lig
 OpenBabel11021811463D
libRbt.so/2013.1/901 2013/11/27
 37 40  0  0  0  0  0  0  0  0999 V2000
   15.7988   -5.7169   44.6483 C   0  0  1  0  0  0  0  0  0  0  0  0
   15.1293   -5.9946   46.0476 C   0  0  1  0  0  0  0  0  0  0  0  0
   15.2973   -4.7538   46.9492 C   0  0  0  0  0  0  0  0  0  0  0  0
   16.8349   -4.5266   47.0907 C   0  0  1  0  0  0  0  0  0  0  0  0
   17.5383   -4.2612   45.6621 C   0  0  1  0  0  0  0  0  0  0  0  0
   19.0756   -4.0525   45.7924 C   0  0  1  0  0  0  0  0  0  0  0  0
   19.3038   -2.8270   46.7687 C   0  0  1  0  0  0  0  0  0  0  0  0
   18.5647   -3.1129   48.1222 C   0  0  2  0  0  0  0  0  0  0  0  0
   21.7789   -2.8431   45.8912 C   0  0  0  0  0  0  0  0  0  0  0  0
   13.6733   -6.3024   45.8813 N   0  0  0  0  0  0  0  0  0  0  0  0
   20.7910   -2.5720   46.9978 N   0  0  0  0  0  0  0  0  0  0  0  0
   15.1762   -4.6172   43.9722 O   0  0  0  0  0  0  0  0  0  0  0  0
   17.2520   -5.4060   44.7864 O   0  0  0  0  0  0  0  0  0  0  0  0
   17.1063   -3.3785   47.9483 O   0  0  0  0  0  0  0  0  0  0  0  0
   19.6226   -5.2678   46.3069 O   0  0  0  0  0  0  0  0  0  0  0  0
   18.7102   -2.0189   48.9522 O   0  0  0  0  0  0  0  0  0  0  0  0
   18.6052   -2.3456   50.3483 C   0  0  2  0  0  0  0  0  0  0  0  0
   18.9569   -1.1130   51.2159 C   0  0  1  0  0  0  0  0  0  0  0  0
   20.4548   -0.7064   51.0648 C   0  0  2  0  0  0  0  0  0  0  0  0
   21.3580   -1.9086   51.4699 C   0  0  1  0  0  0  0  0  0  0  0  0
   21.0009   -3.1037   50.4914 C   0  0  1  0  0  0  0  0  0  0  0  0
   21.8151   -4.3571   50.7993 C   0  0  0  0  0  0  0  0  0  0  0  0
   22.7907   -1.5223   51.3265 N   0  0  0  0  0  0  0  0  0  0  0  0
   19.5461   -3.4515   50.6645 O   0  0  0  0  0  0  0  0  0  0  0  0
   18.0674   -0.0490   50.8264 O   0  0  0  0  0  0  0  0  0  0  0  0
   20.7076    0.3890   51.9196 O   0  0  0  0  0  0  0  0  0  0  0  0
   21.4751   -5.3702   49.8899 O   0  0  0  0  0  0  0  0  0  0  0  0
   15.6747   -4.3984   42.6686 C   0  0  1  0  0  0  0  0  0  0  0  0
   15.2179   -5.5897   41.7665 C   0  0  1  0  0  0  0  0  0  0  0  0
   15.7873   -5.3774   40.3335 C   0  0  2  0  0  0  0  0  0  0  0  0
   15.2833   -4.0296   39.7308 C   0  0  1  0  0  0  0  0  0  0  0  0
   15.7301   -2.8224   40.6406 C   0  0  0  0  0  0  0  0  0  0  0  0
   15.1432   -3.0393   42.0968 C   0  0  2  0  0  0  0  0  0  0  0  0
   15.8454   -3.8472   38.3639 N   0  0  0  0  0  0  0  0  0  0  0  0
   15.5641   -1.8999   42.9430 N   0  0  0  0  0  0  0  0  0  0  0  0
   15.7164   -6.8345   42.2912 O   0  0  0  0  0  0  0  0  0  0  0  0
   15.3530   -6.4663   39.5356 O   0  0  0  0  0  0  0  0  0  0  0  0
  1  2  1  0  0  0  0
  1 12  1  1  0  0  0
  1 13  1  0  0  0  0
  2  3  1  0  0  0  0
  2 10  1  6  0  0  0
  4  3  1  6  0  0  0
  4  5  1  0  0  0  0
  4 14  1  0  0  0  0
  5  6  1  0  0  0  0
  5 13  1  6  0  0  0
  6  7  1  0  0  0  0
  6 15  1  1  0  0  0
  7  8  1  0  0  0  0
  7 11  1  1  0  0  0
  8 14  1  0  0  0  0
  8 16  1  1  0  0  0
  9 11  1  0  0  0  0
 17 16  1  6  0  0  0
 17 18  1  0  0  0  0
 17 24  1  0  0  0  0
 18 19  1  0  0  0  0
 18 25  1  6  0  0  0
 19 20  1  0  0  0  0
 19 26  1  1  0  0  0
 20 21  1  0  0  0  0
 20 23  1  6  0  0  0
 21 22  1  1  0  0  0
 21 24  1  0  0  0  0
 22 27  1  0  0  0  0
 28 12  1  1  0  0  0
 28 29  1  0  0  0  0
 28 33  1  0  0  0  0
 29 30  1  0  0  0  0
 29 36  1  1  0  0  0
 30 31  1  0  0  0  0
 30 37  1  6  0  0  0
 31 32  1  0  0  0  0
 31 34  1  6  0  0  0
 32 33  1  0  0  0  0
 33 35  1  1  0  0  0
M  END
>  <CHROM.1>
-175.31645972,33.00882870,-154.71682056,172.76818619,-178.95504469,69.10255688
17.90837450,-3.66904115,46.30823458,2.18466805,-0.62399249,-1.48136443

>  <Name>
2oe8_lig

>  <RI>
0

>  <Rbt.Current_Directory>
/home/itssahil/PROJECTS/Mol_Feturizer/New_Systems/rnas/2oe8

>  <Rbt.Executable>
rbdock ($Id: //depot/dev/client3/rdock/2013.1/src/exe/rbdock.cxx#4 $)

>  <Rbt.Library>
libRbt.so (2013.1, Build901 2013/11/27)

>  <Rbt.Parameter_File>
/export/apps/rDock/src/rDock_2013.1_src/data/scripts/dock_solv.prm

>  <Rbt.Receptor>
prm/blind_docking_60.prm

>  <SCORE>
-18.25

>  <SCORE.INTER>
-13.51

>  <SCORE.INTER.CONST>
1

>  <SCORE.INTER.POLAR>
-1.81736

>  <SCORE.INTER.ROT>
6

>  <SCORE.INTER.SOLV>
18.2814

>  <SCORE.INTER.VDW>
-16.6426

>  <SCORE.INTER.norm>
-0.365135

>  <SCORE.INTRA>
-4.73996

>  <SCORE.INTRA.DIHEDRAL>
-12.3693

>  <SCORE.INTRA.DIHEDRAL.0>
16.4056

>  <SCORE.INTRA.POLAR>
0

>  <SCORE.INTRA.POLAR.0>
0

>  <SCORE.INTRA.REPUL>
0.00650975

>  <SCORE.INTRA.REPUL.0>
0

>  <SCORE.INTRA.SOLV>
-2.29405

>  <SCORE.INTRA.SOLV.lig_0>
-90.9627

>  <SCORE.INTRA.VDW>
2.55917

>  <SCORE.INTRA.VDW.0>
-3.28744

>  <SCORE.INTRA.norm>
-0.128107

>  <SCORE.RESTR>
0

>  <SCORE.RESTR.CAVITY>
0

>  <SCORE.RESTR.norm>
0

>  <SCORE.SYSTEM>
0

>  <SCORE.SYSTEM.CONST>
0

>  <SCORE.SYSTEM.DIHEDRAL>
0

>  <SCORE.SYSTEM.SOLV>
0

>  <SCORE.SYSTEM.norm>
0

>  <SCORE.heavy>
37

>  <SCORE.norm>
-0.493242

>  <RMSD>
11.276

$$$$
2oe8_lig
 OpenBabel11021811463D
libRbt.so/2013.1/901 2013/11/27
 37 40  0  0  0  0  0  0  0  0999 V2000
   16.1653   -5.5104   44.0391 C   0  0  1  0  0  0  0  0  0  0  0  0
   15.4249   -5.7350   45.4120 C   0  0  1  0  0  0  0  0  0  0  0  0
   15.7582   -4.5711   46.3684 C   0  0  0  0  0  0  0  0  0  0  0  0
   17.3083   -4.5902   46.5497 C   0  0  1  0  0  0  0  0  0  0  0  0
   18.0811   -4.3818   45.1478 C   0  0  1  0  0  0  0  0  0  0  0  0
   19.6283   -4.4188   45.3172 C   0  0  1  0  0  0  0  0  0  0  0  0
   20.0167   -3.2821   46.3486 C   0  0  1  0  0  0  0  0  0  0  0  0
   19.2075   -3.5023   47.6740 C   0  0  2  0  0  0  0  0  0  0  0  0
   22.1548   -2.0694   47.2732 C   0  0  0  0  0  0  0  0  0  0  0  0
   13.9437   -5.8072   45.2040 N   0  0  0  0  0  0  0  0  0  0  0  0
   21.5190   -3.2694   46.6176 N   0  0  0  0  0  0  0  0  0  0  0  0
   15.7372   -4.3023   43.3979 O   0  0  0  0  0  0  0  0  0  0  0  0
   17.6450   -5.4338   44.2189 O   0  0  0  0  0  0  0  0  0  0  0  0
   17.7306   -3.5320   47.4602 O   0  0  0  0  0  0  0  0  0  0  0  0
   19.9682   -5.7231   45.7905 O   0  0  0  0  0  0  0  0  0  0  0  0
   19.4979   -2.4769   48.5522 O   0  0  0  0  0  0  0  0  0  0  0  0
   18.8356   -2.6097   49.8214 C   0  0  2  0  0  0  0  0  0  0  0  0
   19.4700   -1.6538   50.8604 C   0  0  1  0  0  0  0  0  0  0  0  0
   20.9411   -2.0517   51.1915 C   0  0  2  0  0  0  0  0  0  0  0  0
   20.9699   -3.5111   51.7343 C   0  0  1  0  0  0  0  0  0  0  0  0
   20.3826   -4.4396   50.5914 C   0  0  1  0  0  0  0  0  0  0  0  0
   20.3425   -5.9063   51.0110 C   0  0  0  0  0  0  0  0  0  0  0  0
   22.3754   -3.8938   52.0519 N   0  0  0  0  0  0  0  0  0  0  0  0
   18.9691   -4.0106   50.2990 O   0  0  0  0  0  0  0  0  0  0  0  0
   19.3798   -0.3199   50.3241 O   0  0  0  0  0  0  0  0  0  0  0  0
   21.4309   -1.1668   52.1771 O   0  0  0  0  0  0  0  0  0  0  0  0
   19.1230   -6.1761   51.6506 O   0  0  0  0  0  0  0  0  0  0  0  0
   16.3111   -4.1041   42.1223 C   0  0  1  0  0  0  0  0  0  0  0  0
   15.2331   -4.4486   41.0449 C   0  0  1  0  0  0  0  0  0  0  0  0
   15.8623   -4.2648   39.6330 C   0  0  2  0  0  0  0  0  0  0  0  0
   16.3631   -2.8006   39.4358 C   0  0  1  0  0  0  0  0  0  0  0  0
   17.4433   -2.4402   40.5257 C   0  0  0  0  0  0  0  0  0  0  0  0
   16.7968   -2.6226   41.9614 C   0  0  2  0  0  0  0  0  0  0  0  0
   16.9649   -2.6518   38.0817 N   0  0  0  0  0  0  0  0  0  0  0  0
   17.8161   -2.2786   42.9782 N   0  0  0  0  0  0  0  0  0  0  0  0
   14.7972   -5.8130   41.1917 O   0  0  0  0  0  0  0  0  0  0  0  0
   14.8631   -4.5764   38.6763 O   0  0  0  0  0  0  0  0  0  0  0  0
  1  2  1  0  0  0  0
  1 12  1  1  0  0  0
  1 13  1  0  0  0  0
  2  3  1  0  0  0  0
  2 10  1  6  0  0  0
  4  3  1  6  0  0  0
  4  5  1  0  0  0  0
  4 14  1  0  0  0  0
  5  6  1  0  0  0  0
  5 13  1  6  0  0  0
  6  7  1  0  0  0  0
  6 15  1  1  0  0  0
  7  8  1  0  0  0  0
  7 11  1  1  0  0  0
  8 14  1  0  0  0  0
  8 16  1  1  0  0  0
  9 11  1  0  0  0  0
 17 16  1  6  0  0  0
 17 18  1  0  0  0  0
 17 24  1  0  0  0  0
 18 19  1  0  0  0  0
 18 25  1  6  0  0  0
 19 20  1  0  0  0  0
 19 26  1  1  0  0  0
 20 21  1  0  0  0  0
 20 23  1  6  0  0  0
 21 22  1  1  0  0  0
 21 24  1  0  0  0  0
 22 27  1  0  0  0  0
 28 12  1  1  0  0  0
 28 29  1  0  0  0  0
 28 33  1  0  0  0  0
 29 30  1  0  0  0  0
 29 36  1  1  0  0  0
 30 31  1  0  0  0  0
 30 37  1  6  0  0  0
 31 32  1  0  0  0  0
 31 34  1  6  0  0  0
 32 33  1  0  0  0  0
 33 35  1  1  0  0  0
M  END
>  <CHROM.1>
-176.11628413,164.15745003,-178.10663938,165.63426078,88.77424647,103.54215837
18.23645384,-3.79772884,46.05739850,2.17373664,-0.75344294,-1.22378717

>  <Name>
2oe8_lig

>  <RI>
0

>  <Rbt.Current_Directory>
/home/itssahil/PROJECTS/Mol_Feturizer/New_Systems/rnas/2oe8

>  <Rbt.Executable>
rbdock ($Id: //depot/dev/client3/rdock/2013.1/src/exe/rbdock.cxx#4 $)

>  <Rbt.Library>
libRbt.so (2013.1, Build901 2013/11/27)

>  <Rbt.Parameter_File>
/export/apps/rDock/src/rDock_2013.1_src/data/scripts/dock_solv.prm

>  <Rbt.Receptor>
prm/blind_docking_80.prm

>  <SCORE>
-25.5439

>  <SCORE.INTER>
-22.8599

>  <SCORE.INTER.CONST>
1

>  <SCORE.INTER.POLAR>
-2.83593

>  <SCORE.INTER.ROT>
6

>  <SCORE.INTER.SOLV>
17.8969

>  <SCORE.INTER.VDW>
-19.3525

>  <SCORE.INTER.norm>
-0.617835

>  <SCORE.INTRA>
-2.68404

>  <SCORE.INTRA.DIHEDRAL>
-6.67241

>  <SCORE.INTRA.DIHEDRAL.0>
16.4056

>  <SCORE.INTRA.POLAR>
0

>  <SCORE.INTRA.POLAR.0>
0

>  <SCORE.INTRA.REPUL>
0

>  <SCORE.INTRA.REPUL.0>
0

>  <SCORE.INTRA.SOLV>
-0.314844

>  <SCORE.INTRA.SOLV.lig_0>
-90.9627

>  <SCORE.INTRA.VDW>
0.809591

>  <SCORE.INTRA.VDW.0>
-3.28744

>  <SCORE.INTRA.norm>
-0.0725416

>  <SCORE.RESTR>
0

>  <SCORE.RESTR.CAVITY>
0

>  <SCORE.RESTR.norm>
0

>  <SCORE.SYSTEM>
0

>  <SCORE.SYSTEM.CONST>
0

>  <SCORE.SYSTEM.DIHEDRAL>
0

>  <SCORE.SYSTEM.SOLV>
0

>  <SCORE.SYSTEM.norm>
0

>  <SCORE.heavy>
37

>  <SCORE.norm>
-0.690376

>  <RMSD>
11.286

$$$$
2oe8_lig
 OpenBabel11021811463D
libRbt.so/2013.1/901 2013/11/27
 37 40  0  0  0  0  0  0  0  0999 V2000
   15.7771   -6.1017   43.6258 C   0  0  1  0  0  0  0  0  0  0  0  0
   15.8424   -7.2847   44.6648 C   0  0  1  0  0  0  0  0  0  0  0  0
   15.9610   -6.7064   46.0903 C   0  0  0  0  0  0  0  0  0  0  0  0
   17.2741   -5.8629   46.1074 C   0  0  1  0  0  0  0  0  0  0  0  0
   17.2302   -4.6589   45.0330 C   0  0  1  0  0  0  0  0  0  0  0  0
   18.5443   -3.8240   45.0302 C   0  0  1  0  0  0  0  0  0  0  0  0
   18.7492   -3.2629   46.4965 C   0  0  1  0  0  0  0  0  0  0  0  0
   18.7388   -4.4642   47.5048 C   0  0  2  0  0  0  0  0  0  0  0  0
   21.3688   -3.1411   46.3553 C   0  0  0  0  0  0  0  0  0  0  0  0
   14.6150   -8.1370   44.5679 N   0  0  0  0  0  0  0  0  0  0  0  0
   20.0451   -2.4641   46.6067 N   0  0  0  0  0  0  0  0  0  0  0  0
   14.6291   -5.2710   43.8405 O   0  0  0  0  0  0  0  0  0  0  0  0
   16.9900   -5.2352   43.7027 O   0  0  0  0  0  0  0  0  0  0  0  0
   17.4932   -5.2828   47.4275 O   0  0  0  0  0  0  0  0  0  0  0  0
   19.5986   -4.7011   44.6303 O   0  0  0  0  0  0  0  0  0  0  0  0
   18.8551   -3.9720   48.7898 O   0  0  0  0  0  0  0  0  0  0  0  0
   19.0907   -4.9949   49.7721 C   0  0  2  0  0  0  0  0  0  0  0  0
   19.4412   -4.3568   51.1380 C   0  0  1  0  0  0  0  0  0  0  0  0
   20.8031   -3.5985   51.0909 C   0  0  2  0  0  0  0  0  0  0  0  0
   21.9291   -4.5881   50.6692 C   0  0  1  0  0  0  0  0  0  0  0  0
   21.5450   -5.1386   49.2331 C   0  0  1  0  0  0  0  0  0  0  0  0
   22.5718   -6.1398   48.7115 C   0  0  0  0  0  0  0  0  0  0  0  0
   23.2323   -3.8654   50.6237 N   0  0  0  0  0  0  0  0  0  0  0  0
   20.2213   -5.8503   49.3266 O   0  0  0  0  0  0  0  0  0  0  0  0
   18.3509   -3.4856   51.4945 O   0  0  0  0  0  0  0  0  0  0  0  0
   21.0742   -3.0891   52.3799 O   0  0  0  0  0  0  0  0  0  0  0  0
   22.1644   -6.6155   47.4557 O   0  0  0  0  0  0  0  0  0  0  0  0
   14.4049   -4.3361   42.8054 C   0  0  1  0  0  0  0  0  0  0  0  0
   13.3509   -4.9411   41.8232 C   0  0  1  0  0  0  0  0  0  0  0  0
   13.1176   -3.9339   40.6595 C   0  0  2  0  0  0  0  0  0  0  0  0
   12.6110   -2.5633   41.2059 C   0  0  1  0  0  0  0  0  0  0  0  0
   13.6633   -1.9505   42.2068 C   0  0  0  0  0  0  0  0  0  0  0  0
   13.8933   -2.9761   43.3931 C   0  0  2  0  0  0  0  0  0  0  0  0
   12.4008   -1.6167   40.0757 N   0  0  0  0  0  0  0  0  0  0  0  0
   14.8793   -2.3915   44.3297 N   0  0  0  0  0  0  0  0  0  0  0  0
   13.8299   -6.1853   41.2796 O   0  0  0  0  0  0  0  0  0  0  0  0
   12.1541   -4.5032   39.7886 O   0  0  0  0  0  0  0  0  0  0  0  0
  1  2  1  0  0  0  0
  1 12  1  1  0  0  0
  1 13  1  0  0  0  0
  2  3  1  0  0  0  0
  2 10  1  1  0  0  0
  4  3  1  1  0  0  0
  4  5  1  0  0  0  0
  4 14  1  0  0  0  0
  5  6  1  0  0  0  0
  5 13  1  6  0  0  0
  6  7  1  0  0  0  0
  6 15  1  1  0  0  0
  7  8  1  0  0  0  0
  7 11  1  6  0  0  0
  8 14  1  0  0  0  0
  8 16  1  1  0  0  0
  9 11  1  0  0  0  0
 17 16  1  6  0  0  0
 17 18  1  0  0  0  0
 17 24  1  0  0  0  0
 18 19  1  0  0  0  0
 18 25  1  6  0  0  0
 19 20  1  0  0  0  0
 19 26  1  1  0  0  0
 20 21  1  0  0  0  0
 20 23  1  6  0  0  0
 21 22  1  1  0  0  0
 21 24  1  0  0  0  0
 22 27  1  0  0  0  0
 28 12  1  1  0  0  0
 28 29  1  0  0  0  0
 28 33  1  0  0  0  0
 29 30  1  0  0  0  0
 29 36  1  6  0  0  0
 30 31  1  0  0  0  0
 30 37  1  6  0  0  0
 31 32  1  0  0  0  0
 31 34  1  6  0  0  0
 32 33  1  0  0  0  0
 33 35  1  1  0  0  0
M  END
>  <CHROM.1>
-169.99368729,-61.91893767,-169.72824717,170.65683323,178.59459496,96.39118291
17.49987498,-4.54093036,45.96448069,-2.96057351,-0.81713206,0.27814547

>  <Name>
2oe8_lig

>  <RI>
0

>  <Rbt.Current_Directory>
/home/itssahil/PROJECTS/Mol_Feturizer/New_Systems/rnas/2oe8

>  <Rbt.Executable>
rbdock ($Id: //depot/dev/client3/rdock/2013.1/src/exe/rbdock.cxx#4 $)

>  <Rbt.Library>
libRbt.so (2013.1, Build901 2013/11/27)

>  <Rbt.Parameter_File>
/export/apps/rDock/src/rDock_2013.1_src/data/scripts/dock_solv.prm

>  <Rbt.Receptor>
prm/blind_docking_80.prm

>  <SCORE>
-25.1339

>  <SCORE.INTER>
-20.2702

>  <SCORE.INTER.CONST>
1

>  <SCORE.INTER.POLAR>
-2.94421

>  <SCORE.INTER.ROT>
6

>  <SCORE.INTER.SOLV>
14.9011

>  <SCORE.INTER.VDW>
-16.2665

>  <SCORE.INTER.norm>
-0.547843

>  <SCORE.INTRA>
-4.8637

>  <SCORE.INTRA.DIHEDRAL>
-10.1412

>  <SCORE.INTRA.DIHEDRAL.0>
16.4056

>  <SCORE.INTRA.POLAR>
0

>  <SCORE.INTRA.POLAR.0>
0

>  <SCORE.INTRA.REPUL>
0.00302952

>  <SCORE.INTRA.REPUL.0>
0

>  <SCORE.INTRA.SOLV>
-0.925113

>  <SCORE.INTRA.SOLV.lig_0>
-90.9627

>  <SCORE.INTRA.VDW>
0.654292

>  <SCORE.INTRA.VDW.0>
-3.28744

>  <SCORE.INTRA.norm>
-0.131451

>  <SCORE.RESTR>
0

>  <SCORE.RESTR.CAVITY>
0

>  <SCORE.RESTR.norm>
0

>  <SCORE.SYSTEM>
0

>  <SCORE.SYSTEM.CONST>
0

>  <SCORE.SYSTEM.DIHEDRAL>
0

>  <SCORE.SYSTEM.SOLV>
0

>  <SCORE.SYSTEM.norm>
0

>  <SCORE.heavy>
37

>  <SCORE.norm>
-0.679295

>  <RMSD>
11.309

$$$$
2oe8_lig
 OpenBabel11021811463D
libRbt.so/2013.1/901 2013/11/27
 37 40  0  0  0  0  0  0  0  0999 V2000
   15.3663   -5.8302   44.7946 C   0  0  1  0  0  0  0  0  0  0  0  0
   14.9743   -5.7980   46.3206 C   0  0  1  0  0  0  0  0  0  0  0  0
   15.5411   -4.5165   46.9665 C   0  0  0  0  0  0  0  0  0  0  0  0
   17.0890   -4.5856   46.7794 C   0  0  1  0  0  0  0  0  0  0  0  0
   17.5052   -4.6400   45.2206 C   0  0  1  0  0  0  0  0  0  0  0  0
   19.0473   -4.7284   45.0256 C   0  0  1  0  0  0  0  0  0  0  0  0
   19.6852   -3.4647   45.7350 C   0  0  1  0  0  0  0  0  0  0  0  0
   19.2151   -3.4322   47.2309 C   0  0  2  0  0  0  0  0  0  0  0  0
   21.8727   -3.8387   44.3309 C   0  0  0  0  0  0  0  0  0  0  0  0
   13.4858   -5.8267   46.4812 N   0  0  0  0  0  0  0  0  0  0  0  0
   21.2082   -3.4862   45.6378 N   0  0  0  0  0  0  0  0  0  0  0  0
   14.8109   -4.7179   44.0816 O   0  0  0  0  0  0  0  0  0  0  0  0
   16.8466   -5.8015   44.6068 O   0  0  0  0  0  0  0  0  0  0  0  0
   17.7298   -3.4201   47.3779 O   0  0  0  0  0  0  0  0  0  0  0  0
   19.4755   -5.9575   45.6144 O   0  0  0  0  0  0  0  0  0  0  0  0
   19.7197   -2.2974   47.8349 O   0  0  0  0  0  0  0  0  0  0  0  0
   19.7027   -2.3614   49.2710 C   0  0  2  0  0  0  0  0  0  0  0  0
   20.3493   -1.0904   49.8726 C   0  0  1  0  0  0  0  0  0  0  0  0
   21.8717   -1.0045   49.5456 C   0  0  2  0  0  0  0  0  0  0  0  0
   22.5894   -2.2710   50.0990 C   0  0  1  0  0  0  0  0  0  0  0  0
   21.9326   -3.5232   49.3821 C   0  0  1  0  0  0  0  0  0  0  0  0
   22.5444   -4.8386   49.8557 C   0  0  0  0  0  0  0  0  0  0  0  0
   24.0452   -2.1911   49.7878 N   0  0  0  0  0  0  0  0  0  0  0  0
   20.4649   -3.5567   49.7169 O   0  0  0  0  0  0  0  0  0  0  0  0
   19.6227    0.0423   49.3588 O   0  0  0  0  0  0  0  0  0  0  0  0
   22.3964    0.1503   50.1666 O   0  0  0  0  0  0  0  0  0  0  0  0
   21.9234   -5.9081   49.1926 O   0  0  0  0  0  0  0  0  0  0  0  0
   15.2654   -4.6163   42.7478 C   0  0  1  0  0  0  0  0  0  0  0  0
   14.5069   -5.6818   41.8928 C   0  0  1  0  0  0  0  0  0  0  0  0
   15.0211   -5.6023   40.4258 C   0  0  2  0  0  0  0  0  0  0  0  0
   14.7867   -4.1786   39.8326 C   0  0  1  0  0  0  0  0  0  0  0  0
   15.5393   -3.0954   40.6956 C   0  0  0  0  0  0  0  0  0  0  0  0
   15.0084   -3.1755   42.1869 C   0  0  2  0  0  0  0  0  0  0  0  0
   15.2912   -4.1266   38.4324 N   0  0  0  0  0  0  0  0  0  0  0  0
   15.7172   -2.1530   42.9891 N   0  0  0  0  0  0  0  0  0  0  0  0
   14.7537   -7.0039   42.4069 O   0  0  0  0  0  0  0  0  0  0  0  0
   14.3131   -6.5725   39.6718 O   0  0  0  0  0  0  0  0  0  0  0  0
  1  2  1  0  0  0  0
  1 12  1  6  0  0  0
  1 13  1  0  0  0  0
  2  3  1  0  0  0  0
  2 10  1  6  0  0  0
  4  3  1  6  0  0  0
  4  5  1  0  0  0  0
  4 14  1  0  0  0  0
  5  6  1  0  0  0  0
  5 13  1  1  0  0  0
  6  7  1  0  0  0  0
  6 15  1  1  0  0  0
  7  8  1  0  0  0  0
  7 11  1  1  0  0  0
  8 14  1  0  0  0  0
  8 16  1  6  0  0  0
  9 11  1  0  0  0  0
 17 16  1  6  0  0  0
 17 18  1  0  0  0  0
 17 24  1  0  0  0  0
 18 19  1  0  0  0  0
 18 25  1  6  0  0  0
 19 20  1  0  0  0  0
 19 26  1  1  0  0  0
 20 21  1  0  0  0  0
 20 23  1  6  0  0  0
 21 22  1  1  0  0  0
 21 24  1  0  0  0  0
 22 27  1  0  0  0  0
 28 12  1  1  0  0  0
 28 29  1  0  0  0  0
 28 33  1  0  0  0  0
 29 30  1  0  0  0  0
 29 36  1  1  0  0  0
 30 31  1  0  0  0  0
 30 37  1  6  0  0  0
 31 32  1  0  0  0  0
 31 34  1  6  0  0  0
 32 33  1  0  0  0  0
 33 35  1  1  0  0  0
M  END
>  <CHROM.1>
172.83781263,44.35987533,-162.18400099,177.03874601,179.81830764,77.14101801
18.16628074,-3.92999979,45.74406608,2.42235749,-0.56122371,-1.35854573

>  <Name>
2oe8_lig

>  <RI>
0

>  <Rbt.Current_Directory>
/home/itssahil/PROJECTS/Mol_Feturizer/New_Systems/rnas/2oe8

>  <Rbt.Executable>
rbdock ($Id: //depot/dev/client3/rdock/2013.1/src/exe/rbdock.cxx#4 $)

>  <Rbt.Library>
libRbt.so (2013.1, Build901 2013/11/27)

>  <Rbt.Parameter_File>
/export/apps/rDock/src/rDock_2013.1_src/data/scripts/dock_solv.prm

>  <Rbt.Receptor>
prm/blind_docking_100.prm

>  <SCORE>
-22.7631

>  <SCORE.INTER>
-16.5829

>  <SCORE.INTER.CONST>
1

>  <SCORE.INTER.POLAR>
-1.86574

>  <SCORE.INTER.ROT>
6

>  <SCORE.INTER.SOLV>
18.2974

>  <SCORE.INTER.VDW>
-18.5353

>  <SCORE.INTER.norm>
-0.448187

>  <SCORE.INTRA>
-6.18014

>  <SCORE.INTRA.DIHEDRAL>
-13.0564

>  <SCORE.INTRA.DIHEDRAL.0>
16.4056

>  <SCORE.INTRA.POLAR>
0

>  <SCORE.INTRA.POLAR.0>
0

>  <SCORE.INTRA.REPUL>
0

>  <SCORE.INTRA.REPUL.0>
0

>  <SCORE.INTRA.SOLV>
-2.65964

>  <SCORE.INTRA.SOLV.lig_0>
-90.9627

>  <SCORE.INTRA.VDW>
1.67788

>  <SCORE.INTRA.VDW.0>
-3.28744

>  <SCORE.INTRA.norm>
-0.167031

>  <SCORE.RESTR>
0

>  <SCORE.RESTR.CAVITY>
0

>  <SCORE.RESTR.norm>
0

>  <SCORE.SYSTEM>
0

>  <SCORE.SYSTEM.CONST>
0

>  <SCORE.SYSTEM.DIHEDRAL>
0

>  <SCORE.SYSTEM.SOLV>
0

>  <SCORE.SYSTEM.norm>
0

>  <SCORE.heavy>
37

>  <SCORE.norm>
-0.615218

>  <RMSD>
11.313

$$$$
2oe8_lig
 OpenBabel11021811463D
libRbt.so/2013.1/901 2013/11/27
 37 40  0  0  0  0  0  0  0  0999 V2000
   15.5254   -6.0019   44.3845 C   0  0  1  0  0  0  0  0  0  0  0  0
   14.8921   -6.1251   45.8222 C   0  0  1  0  0  0  0  0  0  0  0  0
   15.2728   -4.8839   46.6560 C   0  0  0  0  0  0  0  0  0  0  0  0
   16.8321   -4.8685   46.7221 C   0  0  1  0  0  0  0  0  0  0  0  0
   17.4959   -4.7635   45.2543 C   0  0  1  0  0  0  0  0  0  0  0  0
   19.0518   -4.7668   45.3101 C   0  0  1  0  0  0  0  0  0  0  0  0
   19.4935   -3.5461   46.2166 C   0  0  1  0  0  0  0  0  0  0  0  0
   18.7879   -3.6696   47.6119 C   0  0  2  0  0  0  0  0  0  0  0  0
   21.7234   -4.5578   47.1656 C   0  0  0  0  0  0  0  0  0  0  0  0
   13.4013   -6.2327   45.7318 N   0  0  0  0  0  0  0  0  0  0  0  0
   21.0110   -3.4926   46.3708 N   0  0  0  0  0  0  0  0  0  0  0  0
   15.0288   -4.8547   43.6835 O   0  0  0  0  0  0  0  0  0  0  0  0
   17.0126   -5.8921   44.4467 O   0  0  0  0  0  0  0  0  0  0  0  0
   17.3002   -3.7354   47.5120 O   0  0  0  0  0  0  0  0  0  0  0  0
   19.4499   -6.0244   45.8584 O   0  0  0  0  0  0  0  0  0  0  0  0
   19.1227   -2.5734   48.3821 O   0  0  0  0  0  0  0  0  0  0  0  0
   18.5847   -2.6280   49.7142 C   0  0  2  0  0  0  0  0  0  0  0  0
   19.3276   -1.6295   50.6344 C   0  0  1  0  0  0  0  0  0  0  0  0
   20.8191   -2.0342   50.8440 C   0  0  2  0  0  0  0  0  0  0  0  0
   20.8831   -3.4632   51.4596 C   0  0  1  0  0  0  0  0  0  0  0  0
   20.1773   -4.4406   50.4302 C   0  0  1  0  0  0  0  0  0  0  0  0
   20.1608   -5.8823   50.9304 C   0  0  0  0  0  0  0  0  0  0  0  0
   22.3081   -3.8523   51.6612 N   0  0  0  0  0  0  0  0  0  0  0  0
   18.7473   -4.0038   50.2519 O   0  0  0  0  0  0  0  0  0  0  0  0
   19.2017   -0.3244   50.0380 O   0  0  0  0  0  0  0  0  0  0  0  0
   21.4122   -1.1069   51.7288 O   0  0  0  0  0  0  0  0  0  0  0  0
   19.5836   -6.7089   49.9543 O   0  0  0  0  0  0  0  0  0  0  0  0
   15.7508   -4.5535   42.5071 C   0  0  1  0  0  0  0  0  0  0  0  0
   15.3290   -5.5748   41.4023 C   0  0  1  0  0  0  0  0  0  0  0  0
   16.1408   -5.2740   40.1087 C   0  0  2  0  0  0  0  0  0  0  0  0
   15.8781   -3.8175   39.6155 C   0  0  1  0  0  0  0  0  0  0  0  0
   16.2904   -2.7801   40.7284 C   0  0  0  0  0  0  0  0  0  0  0  0
   15.4572   -3.0859   42.0416 C   0  0  2  0  0  0  0  0  0  0  0  0
   16.6690   -3.5527   38.3818 N   0  0  0  0  0  0  0  0  0  0  0  0
   15.8475   -2.1054   43.0796 N   0  0  0  0  0  0  0  0  0  0  0  0
   15.6092   -6.9203   41.8315 O   0  0  0  0  0  0  0  0  0  0  0  0
   15.7345   -6.2085   39.1225 O   0  0  0  0  0  0  0  0  0  0  0  0
  1  2  1  0  0  0  0
  1 12  1  1  0  0  0
  1 13  1  0  0  0  0
  2  3  1  0  0  0  0
  2 10  1  6  0  0  0
  4  3  1  6  0  0  0
  4  5  1  0  0  0  0
  4 14  1  0  0  0  0
  5  6  1  0  0  0  0
  5 13  1  6  0  0  0
  6  7  1  0  0  0  0
  6 15  1  1  0  0  0
  7  8  1  0  0  0  0
  7 11  1  1  0  0  0
  8 14  1  0  0  0  0
  8 16  1  1  0  0  0
  9 11  1  0  0  0  0
 17 16  1  6  0  0  0
 17 18  1  0  0  0  0
 17 24  1  0  0  0  0
 18 19  1  0  0  0  0
 18 25  1  6  0  0  0
 19 20  1  0  0  0  0
 19 26  1  1  0  0  0
 20 21  1  0  0  0  0
 20 23  1  6  0  0  0
 21 22  1  1  0  0  0
 21 24  1  0  0  0  0
 22 27  1  0  0  0  0
 28 12  1  1  0  0  0
 28 29  1  0  0  0  0
 28 33  1  0  0  0  0
 29 30  1  0  0  0  0
 29 36  1  1  0  0  0
 30 31  1  0  0  0  0
 30 37  1  6  0  0  0
 31 32  1  0  0  0  0
 31 34  1  6  0  0  0
 32 33  1  0  0  0  0
 33 35  1  1  0  0  0
M  END
>  <CHROM.1>
168.30456168,-68.85205982,-176.68808178,162.79291756,-177.20917671,76.13315320
17.89331095,-4.22539407,46.07438837,2.35039220,-0.88411052,-1.09887096

>  <Name>
2oe8_lig

>  <RI>
0

>  <Rbt.Current_Directory>
/home/itssahil/PROJECTS/Mol_Feturizer/New_Systems/rnas/2oe8

>  <Rbt.Executable>
rbdock ($Id: //depot/dev/client3/rdock/2013.1/src/exe/rbdock.cxx#4 $)

>  <Rbt.Library>
libRbt.so (2013.1, Build901 2013/11/27)

>  <Rbt.Parameter_File>
/export/apps/rDock/src/rDock_2013.1_src/data/scripts/dock_solv.prm

>  <Rbt.Receptor>
prm/blind_docking_100.prm

>  <SCORE>
-25.7175

>  <SCORE.INTER>
-20.3505

>  <SCORE.INTER.CONST>
1

>  <SCORE.INTER.POLAR>
-2.70108

>  <SCORE.INTER.ROT>
6

>  <SCORE.INTER.SOLV>
19.0111

>  <SCORE.INTER.VDW>
-18.5004

>  <SCORE.INTER.norm>
-0.550013

>  <SCORE.INTRA>
-5.36701

>  <SCORE.INTRA.DIHEDRAL>
-12.9656

>  <SCORE.INTRA.DIHEDRAL.0>
16.4056

>  <SCORE.INTRA.POLAR>
0

>  <SCORE.INTRA.POLAR.0>
0

>  <SCORE.INTRA.REPUL>
0.00486027

>  <SCORE.INTRA.REPUL.0>
0

>  <SCORE.INTRA.SOLV>
-2.29441

>  <SCORE.INTRA.SOLV.lig_0>
-90.9627

>  <SCORE.INTRA.VDW>
2.23872

>  <SCORE.INTRA.VDW.0>
-3.28744

>  <SCORE.INTRA.norm>
-0.145054

>  <SCORE.RESTR>
0

>  <SCORE.RESTR.CAVITY>
0

>  <SCORE.RESTR.norm>
0

>  <SCORE.SYSTEM>
0

>  <SCORE.SYSTEM.CONST>
0

>  <SCORE.SYSTEM.DIHEDRAL>
0

>  <SCORE.SYSTEM.SOLV>
0

>  <SCORE.SYSTEM.norm>
0

>  <SCORE.heavy>
37

>  <SCORE.norm>
-0.695068

>  <RMSD>
11.328

$$$$
2oe8_lig
 OpenBabel11021811463D
libRbt.so/2013.1/901 2013/11/27
 37 40  0  0  0  0  0  0  0  0999 V2000
   16.1484   -3.9359   43.4710 C   0  0  1  0  0  0  0  0  0  0  0  0
   15.5106   -4.6179   44.7405 C   0  0  1  0  0  0  0  0  0  0  0  0
   15.9193   -3.8303   46.0027 C   0  0  0  0  0  0  0  0  0  0  0  0
   17.4784   -3.8771   46.0563 C   0  0  1  0  0  0  0  0  0  0  0  0
   18.1462   -3.2002   44.7517 C   0  0  1  0  0  0  0  0  0  0  0  0
   19.7015   -3.2598   44.7883 C   0  0  1  0  0  0  0  0  0  0  0  0
   20.1706   -2.5217   46.1082 C   0  0  1  0  0  0  0  0  0  0  0  0
   19.4607   -3.1852   47.3393 C   0  0  2  0  0  0  0  0  0  0  0  0
   22.3594   -1.7867   47.3593 C   0  0  0  0  0  0  0  0  0  0  0  0
   14.0178   -4.6470   44.6267 N   0  0  0  0  0  0  0  0  0  0  0  0
   21.6887   -2.5685   46.2581 N   0  0  0  0  0  0  0  0  0  0  0  0
   15.6795   -2.5925   43.2997 O   0  0  0  0  0  0  0  0  0  0  0  0
   17.6376   -3.8933   43.5599 O   0  0  0  0  0  0  0  0  0  0  0  0
   17.9719   -3.1723   47.2339 O   0  0  0  0  0  0  0  0  0  0  0  0
   20.0695   -4.6401   44.7760 O   0  0  0  0  0  0  0  0  0  0  0  0
   19.8201   -2.5033   48.4852 O   0  0  0  0  0  0  0  0  0  0  0  0
   18.9827   -2.8058   49.6139 C   0  0  2  0  0  0  0  0  0  0  0  0
   19.3594   -1.9085   50.8175 C   0  0  1  0  0  0  0  0  0  0  0  0
   20.7905   -2.2246   51.3505 C   0  0  2  0  0  0  0  0  0  0  0  0
   20.8647   -3.7228   51.7690 C   0  0  1  0  0  0  0  0  0  0  0  0
   20.5480   -4.5796   50.4733 C   0  0  1  0  0  0  0  0  0  0  0  0
   20.5742   -6.0785   50.7588 C   0  0  0  0  0  0  0  0  0  0  0  0
   22.2320   -4.0275   52.2791 N   0  0  0  0  0  0  0  0  0  0  0  0
   19.1648   -4.2319   49.9903 O   0  0  0  0  0  0  0  0  0  0  0  0
   19.2352   -0.5401   50.3851 O   0  0  0  0  0  0  0  0  0  0  0  0
   21.0397   -1.4035   52.4721 O   0  0  0  0  0  0  0  0  0  0  0  0
   19.4221   -6.4379   51.4748 O   0  0  0  0  0  0  0  0  0  0  0  0
   15.2496   -2.3060   41.9848 C   0  0  1  0  0  0  0  0  0  0  0  0
   16.3422   -2.8196   40.9928 C   0  0  1  0  0  0  0  0  0  0  0  0
   15.8958   -2.4819   39.5404 C   0  0  2  0  0  0  0  0  0  0  0  0
   14.5239   -3.1485   39.2130 C   0  0  1  0  0  0  0  0  0  0  0  0
   13.4174   -2.6446   40.2162 C   0  0  0  0  0  0  0  0  0  0  0  0
   13.8728   -2.9959   41.6932 C   0  0  2  0  0  0  0  0  0  0  0  0
   14.1164   -2.8065   37.8221 N   0  0  0  0  0  0  0  0  0  0  0  0
   12.8269   -2.5229   42.6279 N   0  0  0  0  0  0  0  0  0  0  0  0
   17.6023   -2.1761   41.2594 O   0  0  0  0  0  0  0  0  0  0  0  0
   16.8994   -2.9640   38.6621 O   0  0  0  0  0  0  0  0  0  0  0  0
  1  2  1  0  0  0  0
  1 12  1  1  0  0  0
  1 13  1  0  0  0  0
  2  3  1  0  0  0  0
  2 10  1  6  0  0  0
  4  3  1  6  0  0  0
  4  5  1  0  0  0  0
  4 14  1  0  0  0  0
  5  6  1  0  0  0  0
  5 13  1  6  0  0  0
  6  7  1  0  0  0  0
  6 15  1  1  0  0  0
  7  8  1  0  0  0  0
  7 11  1  1  0  0  0
  8 14  1  0  0  0  0
  8 16  1  1  0  0  0
  9 11  1  0  0  0  0
 17 16  1  6  0  0  0
 17 18  1  0  0  0  0
 17 24  1  0  0  0  0
 18 19  1  0  0  0  0
 18 25  1  6  0  0  0
 19 20  1  0  0  0  0
 19 26  1  1  0  0  0
 20 21  1  0  0  0  0
 20 23  1  6  0  0  0
 21 22  1  1  0  0  0
 21 24  1  0  0  0  0
 22 27  1  0  0  0  0
 28 12  1  1  0  0  0
 28 29  1  0  0  0  0
 28 33  1  0  0  0  0
 29 30  1  0  0  0  0
 29 36  1  1  0  0  0
 30 31  1  0  0  0  0
 30 37  1  6  0  0  0
 31 32  1  0  0  0  0
 31 34  1  6  0  0  0
 32 33  1  0  0  0  0
 33 35  1  1  0  0  0
M  END
>  <CHROM.1>
-131.69534226,172.79548275,165.38402271,-174.62085148,74.11899479,-47.70470421
18.00517762,-3.21399553,45.83073861,2.08623270,-0.26466201,-1.38543404

>  <Name>
2oe8_lig

>  <RI>
0

>  <Rbt.Current_Directory>
/home/itssahil/PROJECTS/Mol_Feturizer/New_Systems/rnas/2oe8

>  <Rbt.Executable>
rbdock ($Id: //depot/dev/client3/rdock/2013.1/src/exe/rbdock.cxx#4 $)

>  <Rbt.Library>
libRbt.so (2013.1, Build901 2013/11/27)

>  <Rbt.Parameter_File>
/export/apps/rDock/src/rDock_2013.1_src/data/scripts/dock_solv.prm

>  <Rbt.Receptor>
prm/blind_docking_60.prm

>  <SCORE>
-24.1449

>  <SCORE.INTER>
-23.9639

>  <SCORE.INTER.CONST>
1

>  <SCORE.INTER.POLAR>
-2.5053

>  <SCORE.INTER.ROT>
6

>  <SCORE.INTER.SOLV>
17.5654

>  <SCORE.INTER.VDW>
-21.08

>  <SCORE.INTER.norm>
-0.647672

>  <SCORE.INTRA>
-0.181004

>  <SCORE.INTRA.DIHEDRAL>
-7.256

>  <SCORE.INTRA.DIHEDRAL.0>
16.4056

>  <SCORE.INTRA.POLAR>
0

>  <SCORE.INTRA.POLAR.0>
0

>  <SCORE.INTRA.REPUL>
0

>  <SCORE.INTRA.REPUL.0>
0

>  <SCORE.INTRA.SOLV>
0.312683

>  <SCORE.INTRA.SOLV.lig_0>
-90.9627

>  <SCORE.INTRA.VDW>
3.29065

>  <SCORE.INTRA.VDW.0>
-3.28744

>  <SCORE.INTRA.norm>
-0.00489199

>  <SCORE.RESTR>
0

>  <SCORE.RESTR.CAVITY>
0

>  <SCORE.RESTR.norm>
0

>  <SCORE.SYSTEM>
0

>  <SCORE.SYSTEM.CONST>
0

>  <SCORE.SYSTEM.DIHEDRAL>
0

>  <SCORE.SYSTEM.SOLV>
0

>  <SCORE.SYSTEM.norm>
0

>  <SCORE.heavy>
37

>  <SCORE.norm>
-0.652564

>  <RMSD>
11.353

$$$$
2oe8_lig
 OpenBabel11021811463D
libRbt.so/2013.1/901 2013/11/27
 37 40  0  0  0  0  0  0  0  0999 V2000
   16.2387   -4.8790   43.6200 C   0  0  1  0  0  0  0  0  0  0  0  0
   15.4605   -5.1973   44.9529 C   0  0  1  0  0  0  0  0  0  0  0  0
   15.8077   -4.1320   46.0137 C   0  0  0  0  0  0  0  0  0  0  0  0
   17.3518   -4.2174   46.2238 C   0  0  1  0  0  0  0  0  0  0  0  0
   18.1625   -3.9138   44.8612 C   0  0  1  0  0  0  0  0  0  0  0  0
   19.7036   -4.0157   45.0577 C   0  0  1  0  0  0  0  0  0  0  0  0
   20.1032   -2.9859   46.1920 C   0  0  1  0  0  0  0  0  0  0  0  0
   19.2575   -3.2935   47.4765 C   0  0  2  0  0  0  0  0  0  0  0  0
   22.2696   -1.8960   47.1996 C   0  0  0  0  0  0  0  0  0  0  0  0
   13.9830   -5.2027   44.7098 N   0  0  0  0  0  0  0  0  0  0  0  0
   21.5986   -3.0456   46.4912 N   0  0  0  0  0  0  0  0  0  0  0  0
   15.8627   -3.6065   43.0782 O   0  0  0  0  0  0  0  0  0  0  0  0
   17.7155   -4.8665   43.8355 O   0  0  0  0  0  0  0  0  0  0  0  0
   17.7856   -3.2563   47.2314 O   0  0  0  0  0  0  0  0  0  0  0  0
   19.9922   -5.3665   45.4221 O   0  0  0  0  0  0  0  0  0  0  0  0
   19.5592   -2.3580   48.4465 O   0  0  0  0  0  0  0  0  0  0  0  0
   18.8388   -2.5585   49.6745 C   0  0  2  0  0  0  0  0  0  0  0  0
   19.3626   -1.5958   50.7674 C   0  0  1  0  0  0  0  0  0  0  0  0
   20.8339   -1.9211   51.1693 C   0  0  2  0  0  0  0  0  0  0  0  0
   20.9153   -3.3899   51.6804 C   0  0  1  0  0  0  0  0  0  0  0  0
   20.4424   -4.3201   50.4870 C   0  0  1  0  0  0  0  0  0  0  0  0
   20.4620   -5.7969   50.8712 C   0  0  0  0  0  0  0  0  0  0  0  0
   22.3210   -3.7032   52.0655 N   0  0  0  0  0  0  0  0  0  0  0  0
   19.0247   -3.9616   50.1276 O   0  0  0  0  0  0  0  0  0  0  0  0
   19.2268   -0.2558   50.2567 O   0  0  0  0  0  0  0  0  0  0  0  0
   21.2205   -1.0358   52.1995 O   0  0  0  0  0  0  0  0  0  0  0  0
   20.1721   -6.5774   49.7417 O   0  0  0  0  0  0  0  0  0  0  0  0
   15.5153   -3.6541   41.7097 C   0  0  1  0  0  0  0  0  0  0  0  0
   14.6441   -2.3982   41.3849 C   0  0  1  0  0  0  0  0  0  0  0  0
   14.2275   -2.4541   39.8862 C   0  0  2  0  0  0  0  0  0  0  0  0
   15.4841   -2.4837   38.9622 C   0  0  1  0  0  0  0  0  0  0  0  0
   16.3752   -3.7418   39.2904 C   0  0  0  0  0  0  0  0  0  0  0  0
   16.8023   -3.6778   40.8154 C   0  0  2  0  0  0  0  0  0  0  0  0
   15.0597   -2.5425   37.5359 N   0  0  0  0  0  0  0  0  0  0  0  0
   17.6415   -4.8602   41.1140 N   0  0  0  0  0  0  0  0  0  0  0  0
   13.4591   -2.3863   42.2026 O   0  0  0  0  0  0  0  0  0  0  0  0
   13.4455   -1.3021   39.6170 O   0  0  0  0  0  0  0  0  0  0  0  0
  1  2  1  0  0  0  0
  1 12  1  1  0  0  0
  1 13  1  0  0  0  0
  2  3  1  0  0  0  0
  2 10  1  6  0  0  0
  4  3  1  6  0  0  0
  4  5  1  0  0  0  0
  4 14  1  0  0  0  0
  5  6  1  0  0  0  0
  5 13  1  6  0  0  0
  6  7  1  0  0  0  0
  6 15  1  1  0  0  0
  7  8  1  0  0  0  0
  7 11  1  1  0  0  0
  8 14  1  0  0  0  0
  8 16  1  1  0  0  0
  9 11  1  0  0  0  0
 17 16  1  6  0  0  0
 17 18  1  0  0  0  0
 17 24  1  0  0  0  0
 18 19  1  0  0  0  0
 18 25  1  6  0  0  0
 19 20  1  0  0  0  0
 19 26  1  1  0  0  0
 20 21  1  0  0  0  0
 20 23  1  6  0  0  0
 21 22  1  1  0  0  0
 21 24  1  0  0  0  0
 22 27  1  0  0  0  0
 28 12  1  1  0  0  0
 28 29  1  0  0  0  0
 28 33  1  0  0  0  0
 29 30  1  0  0  0  0
 29 36  1  1  0  0  0
 30 31  1  0  0  0  0
 30 37  1  6  0  0  0
 31 32  1  0  0  0  0
 31 34  1  6  0  0  0
 32 33  1  0  0  0  0
 33 35  1  1  0  0  0
M  END
>  <CHROM.1>
-129.62827561,161.03741567,-179.59323788,172.51715525,-173.83976344,159.14963937
18.01999434,-3.41758208,45.78186218,-2.32351898,-0.78895467,0.97835324

>  <Name>
2oe8_lig

>  <RI>
0

>  <Rbt.Current_Directory>
/home/itssahil/PROJECTS/Mol_Feturizer/New_Systems/rnas/2oe8

>  <Rbt.Executable>
rbdock ($Id: //depot/dev/client3/rdock/2013.1/src/exe/rbdock.cxx#4 $)

>  <Rbt.Library>
libRbt.so (2013.1, Build901 2013/11/27)

>  <Rbt.Parameter_File>
/export/apps/rDock/src/rDock_2013.1_src/data/scripts/dock_solv.prm

>  <Rbt.Receptor>
prm/blind_docking_100.prm

>  <SCORE>
-23.1703

>  <SCORE.INTER>
-20.0127

>  <SCORE.INTER.CONST>
1

>  <SCORE.INTER.POLAR>
-1.79036

>  <SCORE.INTER.ROT>
6

>  <SCORE.INTER.SOLV>
12.5476

>  <SCORE.INTER.VDW>
-19.1564

>  <SCORE.INTER.norm>
-0.540884

>  <SCORE.INTRA>
-3.15758

>  <SCORE.INTRA.DIHEDRAL>
-7.01641

>  <SCORE.INTRA.DIHEDRAL.0>
16.4056

>  <SCORE.INTRA.POLAR>
0

>  <SCORE.INTRA.POLAR.0>
0

>  <SCORE.INTRA.REPUL>
0

>  <SCORE.INTRA.REPUL.0>
0

>  <SCORE.INTRA.SOLV>
-0.739581

>  <SCORE.INTRA.SOLV.lig_0>
-90.9627

>  <SCORE.INTRA.VDW>
0.720411

>  <SCORE.INTRA.VDW.0>
-3.28744

>  <SCORE.INTRA.norm>
-0.08534

>  <SCORE.RESTR>
0

>  <SCORE.RESTR.CAVITY>
0

>  <SCORE.RESTR.norm>
0

>  <SCORE.SYSTEM>
0

>  <SCORE.SYSTEM.CONST>
0

>  <SCORE.SYSTEM.DIHEDRAL>
0

>  <SCORE.SYSTEM.SOLV>
0

>  <SCORE.SYSTEM.norm>
0

>  <SCORE.heavy>
37

>  <SCORE.norm>
-0.626224

>  <RMSD>
11.357

$$$$
2oe8_lig
 OpenBabel11021811463D
libRbt.so/2013.1/901 2013/11/27
 37 40  0  0  0  0  0  0  0  0999 V2000
   15.0427   -6.1132   43.8917 C   0  0  1  0  0  0  0  0  0  0  0  0
   15.0704   -7.0662   45.1465 C   0  0  1  0  0  0  0  0  0  0  0  0
   15.5929   -6.2846   46.3699 C   0  0  0  0  0  0  0  0  0  0  0  0
   17.0279   -5.8001   45.9934 C   0  0  1  0  0  0  0  0  0  0  0  0
   17.0179   -4.8389   44.6965 C   0  0  1  0  0  0  0  0  0  0  0  0
   18.4482   -4.3664   44.3027 C   0  0  1  0  0  0  0  0  0  0  0  0
   19.0580   -3.6150   45.5559 C   0  0  1  0  0  0  0  0  0  0  0  0
   19.0032   -4.5724   46.7969 C   0  0  2  0  0  0  0  0  0  0  0  0
   21.5495   -4.1620   44.9317 C   0  0  0  0  0  0  0  0  0  0  0  0
   13.6993   -7.5946   45.4348 N   0  0  0  0  0  0  0  0  0  0  0  0
   20.4862   -3.1518   45.2817 N   0  0  0  0  0  0  0  0  0  0  0  0
   14.1599   -5.0017   44.0902 O   0  0  0  0  0  0  0  0  0  0  0  0
   16.3988   -5.5714   43.5832 O   0  0  0  0  0  0  0  0  0  0  0  0
   17.6255   -5.0607   47.0994 O   0  0  0  0  0  0  0  0  0  0  0  0
   19.1941   -5.5329   43.9511 O   0  0  0  0  0  0  0  0  0  0  0  0
   19.4770   -3.8978   47.9049 O   0  0  0  0  0  0  0  0  0  0  0  0
   19.7335   -4.7576   49.0282 C   0  0  2  0  0  0  0  0  0  0  0  0
   19.1043   -4.1650   50.3122 C   0  0  1  0  0  0  0  0  0  0  0  0
   19.7919   -2.8295   50.7313 C   0  0  2  0  0  0  0  0  0  0  0  0
   21.3115   -3.0823   50.9596 C   0  0  1  0  0  0  0  0  0  0  0  0
   21.9025   -3.6092   49.5862 C   0  0  1  0  0  0  0  0  0  0  0  0
   23.3951   -3.9117   49.6849 C   0  0  0  0  0  0  0  0  0  0  0  0
   21.9711   -1.8068   51.3606 N   0  0  0  0  0  0  0  0  0  0  0  0
   21.2014   -4.8900   49.2182 O   0  0  0  0  0  0  0  0  0  0  0  0
   17.6975   -3.9903   50.0568 O   0  0  0  0  0  0  0  0  0  0  0  0
   19.1980   -2.3799   51.9311 O   0  0  0  0  0  0  0  0  0  0  0  0
   23.5911   -5.0344   50.5036 O   0  0  0  0  0  0  0  0  0  0  0  0
   14.0484   -4.1587   42.9621 C   0  0  1  0  0  0  0  0  0  0  0  0
   12.8441   -4.6565   42.0997 C   0  0  1  0  0  0  0  0  0  0  0  0
   12.7291   -3.7549   40.8360 C   0  0  2  0  0  0  0  0  0  0  0  0
   12.5155   -2.2626   41.2373 C   0  0  1  0  0  0  0  0  0  0  0  0
   13.7207   -1.7548   42.1174 C   0  0  0  0  0  0  0  0  0  0  0  0
   13.8305   -2.6713   43.4058 C   0  0  2  0  0  0  0  0  0  0  0  0
   12.4141   -1.4210   40.0130 N   0  0  0  0  0  0  0  0  0  0  0  0
   14.9615   -2.1853   44.2279 N   0  0  0  0  0  0  0  0  0  0  0  0
   13.0538   -6.0200   41.6875 O   0  0  0  0  0  0  0  0  0  0  0  0
   11.6269   -4.2230   40.0764 O   0  0  0  0  0  0  0  0  0  0  0  0
  1  2  1  0  0  0  0
  1 12  1  1  0  0  0
  1 13  1  0  0  0  0
  2  3  1  0  0  0  0
  2 10  1  1  0  0  0
  4  3  1  1  0  0  0
  4  5  1  0  0  0  0
  4 14  1  0  0  0  0
  5  6  1  0  0  0  0
  5 13  1  6  0  0  0
  6  7  1  0  0  0  0
  6 15  1  1  0  0  0
  7  8  1  0  0  0  0
  7 11  1  6  0  0  0
  8 14  1  0  0  0  0
  8 16  1  1  0  0  0
  9 11  1  0  0  0  0
 17 16  1  6  0  0  0
 17 18  1  0  0  0  0
 17 24  1  0  0  0  0
 18 19  1  0  0  0  0
 18 25  1  6  0  0  0
 19 20  1  0  0  0  0
 19 26  1  1  0  0  0
 20 21  1  0  0  0  0
 20 23  1  6  0  0  0
 21 22  1  1  0  0  0
 21 24  1  0  0  0  0
 22 27  1  0  0  0  0
 28 12  1  1  0  0  0
 28 29  1  0  0  0  0
 28 33  1  0  0  0  0
 29 30  1  0  0  0  0
 29 36  1  6  0  0  0
 30 31  1  0  0  0  0
 30 37  1  6  0  0  0
 31 32  1  0  0  0  0
 31 34  1  6  0  0  0
 32 33  1  0  0  0  0
 33 35  1  1  0  0  0
M  END
>  <CHROM.1>
-176.78008862,-59.46620663,-167.69043317,-131.95096339,69.08704680,91.73459802
17.31386993,-4.23991948,45.89013677,2.53615846,-0.53927559,-0.97435927

>  <Name>
2oe8_lig

>  <RI>
0

>  <Rbt.Current_Directory>
/home/itssahil/PROJECTS/Mol_Feturizer/New_Systems/rnas/2oe8

>  <Rbt.Executable>
rbdock ($Id: //depot/dev/client3/rdock/2013.1/src/exe/rbdock.cxx#4 $)

>  <Rbt.Library>
libRbt.so (2013.1, Build901 2013/11/27)

>  <Rbt.Parameter_File>
/export/apps/rDock/src/rDock_2013.1_src/data/scripts/dock_solv.prm

>  <Rbt.Receptor>
prm/blind_docking_60.prm

>  <SCORE>
-24.9885

>  <SCORE.INTER>
-22.96

>  <SCORE.INTER.CONST>
1

>  <SCORE.INTER.POLAR>
-3.75635

>  <SCORE.INTER.ROT>
6

>  <SCORE.INTER.SOLV>
18.4993

>  <SCORE.INTER.VDW>
-16.5519

>  <SCORE.INTER.norm>
-0.62054

>  <SCORE.INTRA>
-2.02852

>  <SCORE.INTRA.DIHEDRAL>
-4.83563

>  <SCORE.INTRA.DIHEDRAL.0>
16.4056

>  <SCORE.INTRA.POLAR>
0

>  <SCORE.INTRA.POLAR.0>
0

>  <SCORE.INTRA.REPUL>
0

>  <SCORE.INTRA.REPUL.0>
0

>  <SCORE.INTRA.SOLV>
-1.09854

>  <SCORE.INTRA.SOLV.lig_0>
-90.9627

>  <SCORE.INTRA.VDW>
0.938558

>  <SCORE.INTRA.VDW.0>
-3.28744

>  <SCORE.INTRA.norm>
-0.054825

>  <SCORE.RESTR>
0

>  <SCORE.RESTR.CAVITY>
0

>  <SCORE.RESTR.norm>
0

>  <SCORE.SYSTEM>
0

>  <SCORE.SYSTEM.CONST>
0

>  <SCORE.SYSTEM.DIHEDRAL>
0

>  <SCORE.SYSTEM.SOLV>
0

>  <SCORE.SYSTEM.norm>
0

>  <SCORE.heavy>
37

>  <SCORE.norm>
-0.675365

>  <RMSD>
11.386

$$$$
2oe8_lig
 OpenBabel11021811463D
libRbt.so/2013.1/901 2013/11/27
 37 40  0  0  0  0  0  0  0  0999 V2000
   14.4596   -5.9383   44.2071 C   0  0  1  0  0  0  0  0  0  0  0  0
   14.2416   -6.7719   45.5266 C   0  0  1  0  0  0  0  0  0  0  0  0
   14.7976   -5.9801   46.7285 C   0  0  0  0  0  0  0  0  0  0  0  0
   16.3157   -5.7627   46.4387 C   0  0  1  0  0  0  0  0  0  0  0  0
   16.5554   -4.9275   45.0782 C   0  0  1  0  0  0  0  0  0  0  0  0
   18.0680   -4.7226   44.7718 C   0  0  1  0  0  0  0  0  0  0  0  0
   18.7028   -3.9717   46.0128 C   0  0  1  0  0  0  0  0  0  0  0  0
   18.4039   -4.7978   47.3121 C   0  0  2  0  0  0  0  0  0  0  0  0
   20.8993   -2.6291   46.5318 C   0  0  0  0  0  0  0  0  0  0  0  0
   12.7855   -7.0502   45.7373 N   0  0  0  0  0  0  0  0  0  0  0  0
   20.2034   -3.7654   45.8257 N   0  0  0  0  0  0  0  0  0  0  0  0
   13.7595   -4.6885   44.2486 O   0  0  0  0  0  0  0  0  0  0  0  0
   15.9046   -5.6462   43.9740 O   0  0  0  0  0  0  0  0  0  0  0  0
   16.9470   -5.0344   47.5334 O   0  0  0  0  0  0  0  0  0  0  0  0
   18.6352   -6.0182   44.5707 O   0  0  0  0  0  0  0  0  0  0  0  0
   18.9026   -4.1135   48.4030 O   0  0  0  0  0  0  0  0  0  0  0  0
   19.1408   -4.9562   49.5432 C   0  0  2  0  0  0  0  0  0  0  0  0
   19.1524   -4.1126   50.8409 C   0  0  1  0  0  0  0  0  0  0  0  0
   20.3588   -3.1251   50.8792 C   0  0  2  0  0  0  0  0  0  0  0  0
   21.6870   -3.9301   50.7643 C   0  0  1  0  0  0  0  0  0  0  0  0
   21.6396   -4.7024   49.3806 C   0  0  1  0  0  0  0  0  0  0  0  0
   22.8894   -5.5486   49.1554 C   0  0  0  0  0  0  0  0  0  0  0  0
   22.8419   -2.9881   50.8009 N   0  0  0  0  0  0  0  0  0  0  0  0
   20.4550   -5.6320   49.3866 O   0  0  0  0  0  0  0  0  0  0  0  0
   17.8894   -3.4240   50.9138 O   0  0  0  0  0  0  0  0  0  0  0  0
   20.3272   -2.4306   52.1085 O   0  0  0  0  0  0  0  0  0  0  0  0
   22.9006   -6.0232   47.8349 O   0  0  0  0  0  0  0  0  0  0  0  0
   13.7652   -3.9951   43.0177 C   0  0  1  0  0  0  0  0  0  0  0  0
   12.6185   -4.5738   42.1279 C   0  0  1  0  0  0  0  0  0  0  0  0
   12.6333   -3.8398   40.7553 C   0  0  2  0  0  0  0  0  0  0  0  0
   12.4358   -2.3041   40.9458 C   0  0  1  0  0  0  0  0  0  0  0  0
   13.5823   -1.7132   41.8519 C   0  0  0  0  0  0  0  0  0  0  0  0
   13.5598   -2.4587   43.2504 C   0  0  2  0  0  0  0  0  0  0  0  0
   12.4592   -1.6247   39.6208 N   0  0  0  0  0  0  0  0  0  0  0  0
   14.6363   -1.8953   44.0958 N   0  0  0  0  0  0  0  0  0  0  0  0
   12.8171   -5.9832   41.9100 O   0  0  0  0  0  0  0  0  0  0  0  0
   11.5810   -4.3781   39.9718 O   0  0  0  0  0  0  0  0  0  0  0  0
  1  2  1  0  0  0  0
  1 12  1  1  0  0  0
  1 13  1  0  0  0  0
  2  3  1  0  0  0  0
  2 10  1  1  0  0  0
  4  3  1  1  0  0  0
  4  5  1  0  0  0  0
  4 14  1  0  0  0  0
  5  6  1  0  0  0  0
  5 13  1  6  0  0  0
  6  7  1  0  0  0  0
  6 15  1  1  0  0  0
  7  8  1  0  0  0  0
  7 11  1  6  0  0  0
  8 14  1  0  0  0  0
  8 16  1  1  0  0  0
  9 11  1  0  0  0  0
 17 16  1  6  0  0  0
 17 18  1  0  0  0  0
 17 24  1  0  0  0  0
 18 19  1  0  0  0  0
 18 25  1  6  0  0  0
 19 20  1  0  0  0  0
 19 26  1  1  0  0  0
 20 21  1  0  0  0  0
 20 23  1  6  0  0  0
 21 22  1  1  0  0  0
 21 24  1  0  0  0  0
 22 27  1  0  0  0  0
 28 12  1  1  0  0  0
 28 29  1  0  0  0  0
 28 33  1  0  0  0  0
 29 30  1  0  0  0  0
 29 36  1  6  0  0  0
 30 31  1  0  0  0  0
 30 37  1  6  0  0  0
 31 32  1  0  0  0  0
 31 34  1  6  0  0  0
 32 33  1  0  0  0  0
 33 35  1  1  0  0  0
M  END
>  <CHROM.1>
-171.32095910,154.41428164,-158.05942581,-157.85939672,-170.05016142,83.01443862
17.02814220,-4.37938966,46.02312724,2.52453273,-0.50391641,-0.94710086

>  <Name>
2oe8_lig

>  <RI>
0

>  <Rbt.Current_Directory>
/home/itssahil/PROJECTS/Mol_Feturizer/New_Systems/rnas/2oe8

>  <Rbt.Executable>
rbdock ($Id: //depot/dev/client3/rdock/2013.1/src/exe/rbdock.cxx#4 $)

>  <Rbt.Library>
libRbt.so (2013.1, Build901 2013/11/27)

>  <Rbt.Parameter_File>
/export/apps/rDock/src/rDock_2013.1_src/data/scripts/dock_solv.prm

>  <Rbt.Receptor>
prm/blind_docking_60.prm

>  <SCORE>
-24.9922

>  <SCORE.INTER>
-19.5513

>  <SCORE.INTER.CONST>
1

>  <SCORE.INTER.POLAR>
-2.76677

>  <SCORE.INTER.ROT>
6

>  <SCORE.INTER.SOLV>
19.4437

>  <SCORE.INTER.VDW>
-17.8929

>  <SCORE.INTER.norm>
-0.528414

>  <SCORE.INTRA>
-5.44089

>  <SCORE.INTRA.DIHEDRAL>
-8.58685

>  <SCORE.INTRA.DIHEDRAL.0>
16.4056

>  <SCORE.INTRA.POLAR>
0

>  <SCORE.INTRA.POLAR.0>
0

>  <SCORE.INTRA.REPUL>
0

>  <SCORE.INTRA.REPUL.0>
0

>  <SCORE.INTRA.SOLV>
-1.85928

>  <SCORE.INTRA.SOLV.lig_0>
-90.9627

>  <SCORE.INTRA.VDW>
-0.217827

>  <SCORE.INTRA.VDW.0>
-3.28744

>  <SCORE.INTRA.norm>
-0.147051

>  <SCORE.RESTR>
0

>  <SCORE.RESTR.CAVITY>
0

>  <SCORE.RESTR.norm>
0

>  <SCORE.SYSTEM>
0

>  <SCORE.SYSTEM.CONST>
0

>  <SCORE.SYSTEM.DIHEDRAL>
0

>  <SCORE.SYSTEM.SOLV>
0

>  <SCORE.SYSTEM.norm>
0

>  <SCORE.heavy>
37

>  <SCORE.norm>
-0.675465

>  <RMSD>
11.387

$$$$
2oe8_lig
 OpenBabel11021811463D
libRbt.so/2013.1/901 2013/11/27
 37 40  0  0  0  0  0  0  0  0999 V2000
   15.4051   -6.0702   44.2985 C   0  0  1  0  0  0  0  0  0  0  0  0
   14.8061   -6.1724   45.7525 C   0  0  1  0  0  0  0  0  0  0  0  0
   15.2348   -4.9357   46.5695 C   0  0  0  0  0  0  0  0  0  0  0  0
   16.7952   -4.9541   46.5960 C   0  0  1  0  0  0  0  0  0  0  0  0
   17.4235   -4.8708   45.1113 C   0  0  1  0  0  0  0  0  0  0  0  0
   18.9799   -4.9079   45.1277 C   0  0  1  0  0  0  0  0  0  0  0  0
   19.4710   -3.6927   46.0159 C   0  0  1  0  0  0  0  0  0  0  0  0
   18.7987   -3.7938   47.4293 C   0  0  2  0  0  0  0  0  0  0  0  0
   21.8415   -3.7329   44.8865 C   0  0  0  0  0  0  0  0  0  0  0  0
   13.3115   -6.2478   45.7005 N   0  0  0  0  0  0  0  0  0  0  0  0
   20.9927   -3.6716   46.1313 N   0  0  0  0  0  0  0  0  0  0  0  0
   14.9159   -4.9159   43.6040 O   0  0  0  0  0  0  0  0  0  0  0  0
   16.8955   -5.9926   44.3224 O   0  0  0  0  0  0  0  0  0  0  0  0
   17.3078   -3.8275   47.3675 O   0  0  0  0  0  0  0  0  0  0  0  0
   19.3644   -6.1712   45.6726 O   0  0  0  0  0  0  0  0  0  0  0  0
   19.1767   -2.7014   48.1848 O   0  0  0  0  0  0  0  0  0  0  0  0
   18.6719   -2.7377   49.5304 C   0  0  2  0  0  0  0  0  0  0  0  0
   19.4166   -1.7053   50.4110 C   0  0  1  0  0  0  0  0  0  0  0  0
   20.9204   -2.0762   50.5926 C   0  0  2  0  0  0  0  0  0  0  0  0
   21.0278   -3.4901   51.2365 C   0  0  1  0  0  0  0  0  0  0  0  0
   20.3172   -4.5031   50.2454 C   0  0  1  0  0  0  0  0  0  0  0  0
   20.3415   -5.9337   50.7761 C   0  0  0  0  0  0  0  0  0  0  0  0
   22.4647   -3.8469   51.4114 N   0  0  0  0  0  0  0  0  0  0  0  0
   18.8749   -4.0982   50.0929 O   0  0  0  0  0  0  0  0  0  0  0  0
   19.2503   -0.4161   49.7904 O   0  0  0  0  0  0  0  0  0  0  0  0
   21.5159   -1.1188   51.4430 O   0  0  0  0  0  0  0  0  0  0  0  0
   19.8105   -6.8001   49.8084 O   0  0  0  0  0  0  0  0  0  0  0  0
   15.6617   -4.5916   42.4489 C   0  0  1  0  0  0  0  0  0  0  0  0
   15.2701   -5.5969   41.3186 C   0  0  1  0  0  0  0  0  0  0  0  0
   16.1083   -5.2707   40.0482 C   0  0  2  0  0  0  0  0  0  0  0  0
   15.8482   -3.8077   39.5731 C   0  0  1  0  0  0  0  0  0  0  0  0
   16.2301   -2.7865   40.7116 C   0  0  0  0  0  0  0  0  0  0  0  0
   15.3701   -3.1182   42.0009 C   0  0  2  0  0  0  0  0  0  0  0  0
   16.6645   -3.5186   38.3616 N   0  0  0  0  0  0  0  0  0  0  0  0
   15.7320   -2.1528   43.0631 N   0  0  0  0  0  0  0  0  0  0  0  0
   15.5485   -6.9478   41.7319 O   0  0  0  0  0  0  0  0  0  0  0  0
   15.7291   -6.1911   39.0383 O   0  0  0  0  0  0  0  0  0  0  0  0
  1  2  1  0  0  0  0
  1 12  1  1  0  0  0
  1 13  1  0  0  0  0
  2  3  1  0  0  0  0
  2 10  1  6  0  0  0
  4  3  1  6  0  0  0
  4  5  1  0  0  0  0
  4 14  1  0  0  0  0
  5  6  1  0  0  0  0
  5 13  1  6  0  0  0
  6  7  1  0  0  0  0
  6 15  1  1  0  0  0
  7  8  1  0  0  0  0
  7 11  1  1  0  0  0
  8 14  1  0  0  0  0
  8 16  1  1  0  0  0
  9 11  1  0  0  0  0
 17 16  1  6  0  0  0
 17 18  1  0  0  0  0
 17 24  1  0  0  0  0
 18 19  1  0  0  0  0
 18 25  1  6  0  0  0
 19 20  1  0  0  0  0
 19 26  1  1  0  0  0
 20 21  1  0  0  0  0
 20 23  1  6  0  0  0
 21 22  1  1  0  0  0
 21 24  1  0  0  0  0
 22 27  1  0  0  0  0
 28 12  1  1  0  0  0
 28 29  1  0  0  0  0
 28 33  1  0  0  0  0
 29 30  1  0  0  0  0
 29 36  1  1  0  0  0
 30 31  1  0  0  0  0
 30 37  1  6  0  0  0
 31 32  1  0  0  0  0
 31 34  1  6  0  0  0
 32 33  1  0  0  0  0
 33 35  1  1  0  0  0
M  END
>  <CHROM.1>
164.89190709,51.75830248,-176.67515791,165.34201441,-174.68573912,76.25044057
17.89935245,-4.26305078,45.87563350,2.24480111,-0.73994595,-1.25920341

>  <Name>
2oe8_lig

>  <RI>
0

>  <Rbt.Current_Directory>
/home/itssahil/PROJECTS/Mol_Feturizer/New_Systems/rnas/2oe8

>  <Rbt.Executable>
rbdock ($Id: //depot/dev/client3/rdock/2013.1/src/exe/rbdock.cxx#4 $)

>  <Rbt.Library>
libRbt.so (2013.1, Build901 2013/11/27)

>  <Rbt.Parameter_File>
/export/apps/rDock/src/rDock_2013.1_src/data/scripts/dock_solv.prm

>  <Rbt.Receptor>
prm/blind_docking_100.prm

>  <SCORE>
-27.5356

>  <SCORE.INTER>
-22.279

>  <SCORE.INTER.CONST>
1

>  <SCORE.INTER.POLAR>
-2.7514

>  <SCORE.INTER.ROT>
6

>  <SCORE.INTER.SOLV>
18.9127

>  <SCORE.INTER.VDW>
-19.5856

>  <SCORE.INTER.norm>
-0.602134

>  <SCORE.INTRA>
-5.25658

>  <SCORE.INTRA.DIHEDRAL>
-12.8284

>  <SCORE.INTRA.DIHEDRAL.0>
16.4056

>  <SCORE.INTRA.POLAR>
0

>  <SCORE.INTRA.POLAR.0>
0

>  <SCORE.INTRA.REPUL>
0.00527647

>  <SCORE.INTRA.REPUL.0>
0

>  <SCORE.INTRA.SOLV>
-2.68061

>  <SCORE.INTRA.SOLV.lig_0>
-90.9627

>  <SCORE.INTRA.VDW>
2.47154

>  <SCORE.INTRA.VDW.0>
-3.28744

>  <SCORE.INTRA.norm>
-0.14207

>  <SCORE.RESTR>
0

>  <SCORE.RESTR.CAVITY>
0

>  <SCORE.RESTR.norm>
0

>  <SCORE.SYSTEM>
0

>  <SCORE.SYSTEM.CONST>
0

>  <SCORE.SYSTEM.DIHEDRAL>
0

>  <SCORE.SYSTEM.SOLV>
0

>  <SCORE.SYSTEM.norm>
0

>  <SCORE.heavy>
37

>  <SCORE.norm>
-0.744204

>  <RMSD>
11.399

$$$$
2oe8_lig
 OpenBabel11021811463D
libRbt.so/2013.1/901 2013/11/27
 37 40  0  0  0  0  0  0  0  0999 V2000
   15.0471   -5.3207   44.2533 C   0  0  1  0  0  0  0  0  0  0  0  0
   14.7695   -5.5211   45.7915 C   0  0  1  0  0  0  0  0  0  0  0  0
   15.4514   -4.3875   46.5854 C   0  0  0  0  0  0  0  0  0  0  0  0
   16.9755   -4.4911   46.2656 C   0  0  1  0  0  0  0  0  0  0  0  0
   17.2737   -4.3083   44.6896 C   0  0  1  0  0  0  0  0  0  0  0  0
   18.7903   -4.4294   44.3594 C   0  0  1  0  0  0  0  0  0  0  0  0
   19.5468   -3.3268   45.2072 C   0  0  1  0  0  0  0  0  0  0  0  0
   19.1892   -3.5186   46.7222 C   0  0  2  0  0  0  0  0  0  0  0  0
   21.8103   -4.6508   45.3485 C   0  0  0  0  0  0  0  0  0  0  0  0
   13.2972   -5.5120   46.0649 N   0  0  0  0  0  0  0  0  0  0  0  0
   21.0552   -3.3971   44.9854 N   0  0  0  0  0  0  0  0  0  0  0  0
   14.5037   -4.0843   43.7737 O   0  0  0  0  0  0  0  0  0  0  0  0
   16.5093   -5.3249   43.9537 O   0  0  0  0  0  0  0  0  0  0  0  0
   17.7214   -3.4673   46.9884 O   0  0  0  0  0  0  0  0  0  0  0  0
   19.1918   -5.7552   44.7083 O   0  0  0  0  0  0  0  0  0  0  0  0
   19.7982   -2.5202   47.4565 O   0  0  0  0  0  0  0  0  0  0  0  0
   19.7659   -2.7559   48.8744 C   0  0  2  0  0  0  0  0  0  0  0  0
   20.3660   -1.5477   49.6332 C   0  0  1  0  0  0  0  0  0  0  0  0
   21.8889   -1.3792   49.3424 C   0  0  2  0  0  0  0  0  0  0  0  0
   22.6384   -2.6814   49.7520 C   0  0  1  0  0  0  0  0  0  0  0  0
   22.0289   -3.8574   48.8809 C   0  0  1  0  0  0  0  0  0  0  0  0
   22.6751   -5.2017   49.2037 C   0  0  0  0  0  0  0  0  0  0  0  0
   24.0947   -2.5227   49.4752 N   0  0  0  0  0  0  0  0  0  0  0  0
   20.5590   -3.9733   49.1864 O   0  0  0  0  0  0  0  0  0  0  0  0
   19.6112   -0.3833   49.2468 O   0  0  0  0  0  0  0  0  0  0  0  0
   22.3704   -0.2923   50.1047 O   0  0  0  0  0  0  0  0  0  0  0  0
   24.0183   -5.1839   48.7982 O   0  0  0  0  0  0  0  0  0  0  0  0
   13.9315   -4.1790   42.4855 C   0  0  1  0  0  0  0  0  0  0  0  0
   13.5841   -2.7350   41.9999 C   0  0  1  0  0  0  0  0  0  0  0  0
   12.9234   -2.8269   40.5936 C   0  0  2  0  0  0  0  0  0  0  0  0
   13.8831   -3.5149   39.5741 C   0  0  1  0  0  0  0  0  0  0  0  0
   14.2482   -4.9688   40.0615 C   0  0  0  0  0  0  0  0  0  0  0  0
   14.9262   -4.8702   41.4908 C   0  0  2  0  0  0  0  0  0  0  0  0
   13.2270   -3.5958   38.2397 N   0  0  0  0  0  0  0  0  0  0  0  0
   15.2690   -6.2387   41.9389 N   0  0  0  0  0  0  0  0  0  0  0  0
   12.6633   -2.1083   42.9124 O   0  0  0  0  0  0  0  0  0  0  0  0
   12.6253   -1.5054   40.1745 O   0  0  0  0  0  0  0  0  0  0  0  0
  1  2  1  0  0  0  0
  1 12  1  1  0  0  0
  1 13  1  0  0  0  0
  2  3  1  0  0  0  0
  2 10  1  6  0  0  0
  4  3  1  6  0  0  0
  4  5  1  0  0  0  0
  4 14  1  0  0  0  0
  5  6  1  0  0  0  0
  5 13  1  6  0  0  0
  6  7  1  0  0  0  0
  6 15  1  1  0  0  0
  7  8  1  0  0  0  0
  7 11  1  1  0  0  0
  8 14  1  0  0  0  0
  8 16  1  1  0  0  0
  9 11  1  0  0  0  0
 17 16  1  6  0  0  0
 17 18  1  0  0  0  0
 17 24  1  0  0  0  0
 18 19  1  0  0  0  0
 18 25  1  6  0  0  0
 19 20  1  0  0  0  0
 19 26  1  1  0  0  0
 20 21  1  0  0  0  0
 20 23  1  6  0  0  0
 21 22  1  1  0  0  0
 21 24  1  0  0  0  0
 22 27  1  0  0  0  0
 28 12  1  1  0  0  0
 28 29  1  0  0  0  0
 28 33  1  0  0  0  0
 29 30  1  0  0  0  0
 29 36  1  1  0  0  0
 30 31  1  0  0  0  0
 30 37  1  6  0  0  0
 31 32  1  0  0  0  0
 31 34  1  6  0  0  0
 32 33  1  0  0  0  0
 33 35  1  1  0  0  0
M  END
>  <CHROM.1>
-141.05043559,-61.04248424,-167.90434183,-175.60300960,-66.87950007,-171.35127558
17.82179250,-3.66685840,45.41536755,-2.54552729,-0.47573362,0.85156342

>  <Name>
2oe8_lig

>  <RI>
0

>  <Rbt.Current_Directory>
/home/itssahil/PROJECTS/Mol_Feturizer/New_Systems/rnas/2oe8

>  <Rbt.Executable>
rbdock ($Id: //depot/dev/client3/rdock/2013.1/src/exe/rbdock.cxx#4 $)

>  <Rbt.Library>
libRbt.so (2013.1, Build901 2013/11/27)

>  <Rbt.Parameter_File>
/export/apps/rDock/src/rDock_2013.1_src/data/scripts/dock_solv.prm

>  <Rbt.Receptor>
prm/blind_docking_60.prm

>  <SCORE>
-17.2299

>  <SCORE.INTER>
-17.3189

>  <SCORE.INTER.CONST>
1

>  <SCORE.INTER.POLAR>
-1.82108

>  <SCORE.INTER.ROT>
6

>  <SCORE.INTER.SOLV>
14.4797

>  <SCORE.INTER.VDW>
-17.9023

>  <SCORE.INTER.norm>
-0.468079

>  <SCORE.INTRA>
0.0890558

>  <SCORE.INTRA.DIHEDRAL>
-9.82875

>  <SCORE.INTRA.DIHEDRAL.0>
16.4056

>  <SCORE.INTRA.POLAR>
0

>  <SCORE.INTRA.POLAR.0>
0

>  <SCORE.INTRA.REPUL>
0

>  <SCORE.INTRA.REPUL.0>
0

>  <SCORE.INTRA.SOLV>
0.5784

>  <SCORE.INTRA.SOLV.lig_0>
-90.9627

>  <SCORE.INTRA.VDW>
4.71423

>  <SCORE.INTRA.VDW.0>
-3.28744

>  <SCORE.INTRA.norm>
0.00240691

>  <SCORE.RESTR>
0

>  <SCORE.RESTR.CAVITY>
0

>  <SCORE.RESTR.norm>
0

>  <SCORE.SYSTEM>
0

>  <SCORE.SYSTEM.CONST>
0

>  <SCORE.SYSTEM.DIHEDRAL>
0

>  <SCORE.SYSTEM.SOLV>
0

>  <SCORE.SYSTEM.norm>
0

>  <SCORE.heavy>
37

>  <SCORE.norm>
-0.465672

>  <RMSD>
11.403

$$$$
2oe8_lig
 OpenBabel11021811463D
libRbt.so/2013.1/901 2013/11/27
 37 40  0  0  0  0  0  0  0  0999 V2000
   18.5954   -5.0050   44.1761 C   0  0  1  0  0  0  0  0  0  0  0  0
   19.4965   -3.7236   44.3480 C   0  0  1  0  0  0  0  0  0  0  0  0
   20.9614   -4.1552   44.5680 C   0  0  0  0  0  0  0  0  0  0  0  0
   20.9655   -5.0296   45.8608 C   0  0  1  0  0  0  0  0  0  0  0  0
   20.0299   -6.3360   45.7070 C   0  0  1  0  0  0  0  0  0  0  0  0
   20.0134   -7.2039   46.9994 C   0  0  1  0  0  0  0  0  0  0  0  0
   21.5103   -7.6167   47.3091 C   0  0  1  0  0  0  0  0  0  0  0  0
   22.3848   -6.3181   47.4034 C   0  0  2  0  0  0  0  0  0  0  0  0
   21.2338   -9.8984   48.5795 C   0  0  0  0  0  0  0  0  0  0  0  0
   19.4056   -2.8512   43.1344 N   0  0  0  0  0  0  0  0  0  0  0  0
   21.6034   -8.4366   48.5930 N   0  0  0  0  0  0  0  0  0  0  0  0
   18.9840   -5.7760   43.0322 O   0  0  0  0  0  0  0  0  0  0  0  0
   18.6690   -5.8931   45.3733 O   0  0  0  0  0  0  0  0  0  0  0  0
   22.3184   -5.4766   46.1725 O   0  0  0  0  0  0  0  0  0  0  0  0
   19.4436   -6.4031   48.0361 O   0  0  0  0  0  0  0  0  0  0  0  0
   23.7016   -6.6786   47.6116 O   0  0  0  0  0  0  0  0  0  0  0  0
   23.9829   -7.0454   48.9729 C   0  0  2  0  0  0  0  0  0  0  0  0
   24.2422   -5.7809   49.8269 C   0  0  1  0  0  0  0  0  0  0  0  0
   25.5441   -5.0426   49.3887 C   0  0  2  0  0  0  0  0  0  0  0  0
   26.7537   -6.0157   49.5107 C   0  0  1  0  0  0  0  0  0  0  0  0
   26.4565   -7.2430   48.5522 C   0  0  1  0  0  0  0  0  0  0  0  0
   27.5712   -8.2844   48.5950 C   0  0  0  0  0  0  0  0  0  0  0  0
   27.9998   -5.3121   49.0925 N   0  0  0  0  0  0  0  0  0  0  0  0
   25.1878   -7.9147   49.0067 O   0  0  0  0  0  0  0  0  0  0  0  0
   23.0791   -4.9395   49.7079 O   0  0  0  0  0  0  0  0  0  0  0  0
   25.7363   -3.9338   50.2420 O   0  0  0  0  0  0  0  0  0  0  0  0
   27.2633   -9.3346   47.7166 O   0  0  0  0  0  0  0  0  0  0  0  0
   17.9541   -6.6023   42.5298 C   0  0  1  0  0  0  0  0  0  0  0  0
   17.6609   -7.7130   43.5891 C   0  0  1  0  0  0  0  0  0  0  0  0
   16.5488   -8.6503   43.0344 C   0  0  2  0  0  0  0  0  0  0  0  0
   15.2466   -7.8466   42.7315 C   0  0  1  0  0  0  0  0  0  0  0  0
   15.5353   -6.7161   41.6717 C   0  0  0  0  0  0  0  0  0  0  0  0
   16.6635   -5.7604   42.2428 C   0  0  2  0  0  0  0  0  0  0  0  0
   14.2012   -8.7631   42.1977 N   0  0  0  0  0  0  0  0  0  0  0  0
   16.9255   -4.7002   41.2436 N   0  0  0  0  0  0  0  0  0  0  0  0
   18.8472   -8.4888   43.8420 O   0  0  0  0  0  0  0  0  0  0  0  0
   16.2979   -9.6426   44.0159 O   0  0  0  0  0  0  0  0  0  0  0  0
  1  2  1  0  0  0  0
  1 12  1  6  0  0  0
  1 13  1  0  0  0  0
  2  3  1  0  0  0  0
  2 10  1  6  0  0  0
  4  3  1  6  0  0  0
  4  5  1  0  0  0  0
  4 14  1  0  0  0  0
  5  6  1  0  0  0  0
  5 13  1  1  0  0  0
  6  7  1  0  0  0  0
  6 15  1  1  0  0  0
  7  8  1  0  0  0  0
  7 11  1  1  0  0  0
  8 14  1  0  0  0  0
  8 16  1  6  0  0  0
  9 11  1  0  0  0  0
 17 16  1  6  0  0  0
 17 18  1  0  0  0  0
 17 24  1  0  0  0  0
 18 19  1  0  0  0  0
 18 25  1  6  0  0  0
 19 20  1  0  0  0  0
 19 26  1  1  0  0  0
 20 21  1  0  0  0  0
 20 23  1  6  0  0  0
 21 22  1  1  0  0  0
 21 24  1  0  0  0  0
 22 27  1  0  0  0  0
 28 12  1  1  0  0  0
 28 29  1  0  0  0  0
 28 33  1  0  0  0  0
 29 30  1  0  0  0  0
 29 36  1  6  0  0  0
 30 31  1  0  0  0  0
 30 37  1  1  0  0  0
 31 32  1  0  0  0  0
 31 34  1  6  0  0  0
 32 33  1  0  0  0  0
 33 35  1  6  0  0  0
M  END
>  <CHROM.1>
-156.90518850,78.48477668,-78.46254485,-82.81985159,-179.20367935,-67.41467009
21.09225747,-6.57518801,46.10770376,-3.00648197,0.59438143,2.85559027

>  <Name>
2oe8_lig

>  <RI>
0

>  <Rbt.Current_Directory>
/home/itssahil/PROJECTS/Mol_Feturizer/New_Systems/rnas/2oe8

>  <Rbt.Executable>
rbdock ($Id: //depot/dev/client3/rdock/2013.1/src/exe/rbdock.cxx#4 $)

>  <Rbt.Library>
libRbt.so (2013.1, Build901 2013/11/27)

>  <Rbt.Parameter_File>
/export/apps/rDock/src/rDock_2013.1_src/data/scripts/dock_solv.prm

>  <Rbt.Receptor>
prm/pocket_docking_8.prm

>  <SCORE>
-20.119

>  <SCORE.INTER>
-17.5046

>  <SCORE.INTER.CONST>
1

>  <SCORE.INTER.POLAR>
-1

>  <SCORE.INTER.ROT>
6

>  <SCORE.INTER.SOLV>
12.6379

>  <SCORE.INTER.VDW>
-20.149

>  <SCORE.INTER.norm>
-0.473096

>  <SCORE.INTRA>
-2.61439

>  <SCORE.INTRA.DIHEDRAL>
-9.67822

>  <SCORE.INTRA.DIHEDRAL.0>
16.4056

>  <SCORE.INTRA.POLAR>
0

>  <SCORE.INTRA.POLAR.0>
0

>  <SCORE.INTRA.REPUL>
0

>  <SCORE.INTRA.REPUL.0>
0

>  <SCORE.INTRA.SOLV>
0.0512021

>  <SCORE.INTRA.SOLV.lig_0>
-90.9627

>  <SCORE.INTRA.VDW>
2.19912

>  <SCORE.INTRA.VDW.0>
-3.28744

>  <SCORE.INTRA.norm>
-0.0706593

>  <SCORE.RESTR>
0

>  <SCORE.RESTR.CAVITY>
0

>  <SCORE.RESTR.norm>
0

>  <SCORE.SYSTEM>
0

>  <SCORE.SYSTEM.CONST>
0

>  <SCORE.SYSTEM.DIHEDRAL>
0

>  <SCORE.SYSTEM.SOLV>
0

>  <SCORE.SYSTEM.norm>
0

>  <SCORE.heavy>
37

>  <SCORE.norm>
-0.543756

>  <RMSD>
11.403

$$$$
2oe8_lig
 OpenBabel11021811463D
libRbt.so/2013.1/901 2013/11/27
 37 40  0  0  0  0  0  0  0  0999 V2000
   14.3023   -5.6770   44.3047 C   0  0  1  0  0  0  0  0  0  0  0  0
   14.4235   -6.2096   45.7829 C   0  0  1  0  0  0  0  0  0  0  0  0
   15.0562   -5.1165   46.6692 C   0  0  0  0  0  0  0  0  0  0  0  0
   16.4604   -4.8206   46.0556 C   0  0  1  0  0  0  0  0  0  0  0  0
   16.3533   -4.2935   44.5336 C   0  0  1  0  0  0  0  0  0  0  0  0
   17.7511   -4.0141   43.9075 C   0  0  1  0  0  0  0  0  0  0  0  0
   18.4729   -2.9441   44.8245 C   0  0  1  0  0  0  0  0  0  0  0  0
   18.5108   -3.4820   46.2973 C   0  0  2  0  0  0  0  0  0  0  0  0
   20.9302   -3.7183   44.3156 C   0  0  0  0  0  0  0  0  0  0  0  0
   13.0751   -6.5761   46.3212 N   0  0  0  0  0  0  0  0  0  0  0  0
   19.8786   -2.6376   44.3150 N   0  0  0  0  0  0  0  0  0  0  0  0
   13.4528   -4.5255   44.2247 O   0  0  0  0  0  0  0  0  0  0  0  0
   15.6342   -5.3032   43.7443 O   0  0  0  0  0  0  0  0  0  0  0  0
   17.1576   -3.8058   46.8374 O   0  0  0  0  0  0  0  0  0  0  0  0
   18.4507   -5.2591   43.8690 O   0  0  0  0  0  0  0  0  0  0  0  0
   19.0840   -2.5238   47.1099 O   0  0  0  0  0  0  0  0  0  0  0  0
   19.1025   -2.8928   48.4993 C   0  0  2  0  0  0  0  0  0  0  0  0
   19.9867   -1.9097   49.3040 C   0  0  1  0  0  0  0  0  0  0  0  0
   21.4882   -2.0136   48.8957 C   0  0  2  0  0  0  0  0  0  0  0  0
   21.9838   -3.4723   49.1232 C   0  0  1  0  0  0  0  0  0  0  0  0
   21.0894   -4.4106   48.2107 C   0  0  1  0  0  0  0  0  0  0  0  0
   21.4695   -5.8813   48.3576 C   0  0  0  0  0  0  0  0  0  0  0  0
   23.4193   -3.5741   48.7338 N   0  0  0  0  0  0  0  0  0  0  0  0
   19.6513   -4.2673   48.6336 O   0  0  0  0  0  0  0  0  0  0  0  0
   19.4595   -0.5867   49.0880 O   0  0  0  0  0  0  0  0  0  0  0  0
   22.2321   -1.1259   49.7037 O   0  0  0  0  0  0  0  0  0  0  0  0
   21.2779   -6.2826   49.6885 O   0  0  0  0  0  0  0  0  0  0  0  0
   13.4763   -3.8910   42.9627 C   0  0  1  0  0  0  0  0  0  0  0  0
   12.2093   -4.3425   42.1674 C   0  0  1  0  0  0  0  0  0  0  0  0
   12.2386   -3.6749   40.7615 C   0  0  2  0  0  0  0  0  0  0  0  0
   12.2626   -2.1201   40.8865 C   0  0  1  0  0  0  0  0  0  0  0  0
   13.5321   -1.6559   41.6974 C   0  0  0  0  0  0  0  0  0  0  0  0
   13.4952   -2.3327   43.1302 C   0  0  2  0  0  0  0  0  0  0  0  0
   12.2960   -1.5059   39.5303 N   0  0  0  0  0  0  0  0  0  0  0  0
   14.6881   -1.8886   43.8858 N   0  0  0  0  0  0  0  0  0  0  0  0
   12.2017   -5.7735   42.0087 O   0  0  0  0  0  0  0  0  0  0  0  0
   11.0769   -4.0949   40.0650 O   0  0  0  0  0  0  0  0  0  0  0  0
  1  2  1  0  0  0  0
  1 12  1  1  0  0  0
  1 13  1  0  0  0  0
  2  3  1  0  0  0  0
  2 10  1  1  0  0  0
  4  3  1  1  0  0  0
  4  5  1  0  0  0  0
  4 14  1  0  0  0  0
  5  6  1  0  0  0  0
  5 13  1  6  0  0  0
  6  7  1  0  0  0  0
  6 15  1  1  0  0  0
  7  8  1  0  0  0  0
  7 11  1  6  0  0  0
  8 14  1  0  0  0  0
  8 16  1  1  0  0  0
  9 11  1  0  0  0  0
 17 16  1  6  0  0  0
 17 18  1  0  0  0  0
 17 24  1  0  0  0  0
 18 19  1  0  0  0  0
 18 25  1  6  0  0  0
 19 20  1  0  0  0  0
 19 26  1  1  0  0  0
 20 21  1  0  0  0  0
 20 23  1  6  0  0  0
 21 22  1  1  0  0  0
 21 24  1  0  0  0  0
 22 27  1  0  0  0  0
 28 12  1  1  0  0  0
 28 29  1  0  0  0  0
 28 33  1  0  0  0  0
 29 30  1  0  0  0  0
 29 36  1  6  0  0  0
 30 31  1  0  0  0  0
 30 37  1  6  0  0  0
 31 32  1  0  0  0  0
 31 34  1  6  0  0  0
 32 33  1  0  0  0  0
 33 35  1  1  0  0  0
M  END
>  <CHROM.1>
170.79072554,-64.59464828,176.93992362,169.34251373,60.97200362,100.05923305
16.99143450,-3.75717089,45.38697056,2.82425753,-0.60036874,-0.59586426

>  <Name>
2oe8_lig

>  <RI>
0

>  <Rbt.Current_Directory>
/home/itssahil/PROJECTS/Mol_Feturizer/New_Systems/rnas/2oe8

>  <Rbt.Executable>
rbdock ($Id: //depot/dev/client3/rdock/2013.1/src/exe/rbdock.cxx#4 $)

>  <Rbt.Library>
libRbt.so (2013.1, Build901 2013/11/27)

>  <Rbt.Parameter_File>
/export/apps/rDock/src/rDock_2013.1_src/data/scripts/dock_solv.prm

>  <Rbt.Receptor>
prm/blind_docking_60.prm

>  <SCORE>
-27.3845

>  <SCORE.INTER>
-24.081

>  <SCORE.INTER.CONST>
1

>  <SCORE.INTER.POLAR>
-3.24326

>  <SCORE.INTER.ROT>
6

>  <SCORE.INTER.SOLV>
23.9925

>  <SCORE.INTER.VDW>
-20.8406

>  <SCORE.INTER.norm>
-0.650837

>  <SCORE.INTRA>
-3.30353

>  <SCORE.INTRA.DIHEDRAL>
-9.90988

>  <SCORE.INTRA.DIHEDRAL.0>
16.4056

>  <SCORE.INTRA.POLAR>
0

>  <SCORE.INTRA.POLAR.0>
0

>  <SCORE.INTRA.REPUL>
0

>  <SCORE.INTRA.REPUL.0>
0

>  <SCORE.INTRA.SOLV>
0.138237

>  <SCORE.INTRA.SOLV.lig_0>
-90.9627

>  <SCORE.INTRA.VDW>
1.58229

>  <SCORE.INTRA.VDW.0>
-3.28744

>  <SCORE.INTRA.norm>
-0.0892845

>  <SCORE.RESTR>
0

>  <SCORE.RESTR.CAVITY>
0

>  <SCORE.RESTR.norm>
0

>  <SCORE.SYSTEM>
0

>  <SCORE.SYSTEM.CONST>
0

>  <SCORE.SYSTEM.DIHEDRAL>
0

>  <SCORE.SYSTEM.SOLV>
0

>  <SCORE.SYSTEM.norm>
0

>  <SCORE.heavy>
37

>  <SCORE.norm>
-0.740122

>  <RMSD>
11.420

$$$$
2oe8_lig
 OpenBabel11021811463D
libRbt.so/2013.1/901 2013/11/27
 37 40  0  0  0  0  0  0  0  0999 V2000
   14.7207   -6.1454   43.3600 C   0  0  1  0  0  0  0  0  0  0  0  0
   14.1591   -6.9380   44.6009 C   0  0  1  0  0  0  0  0  0  0  0  0
   14.4948   -6.1663   45.8942 C   0  0  0  0  0  0  0  0  0  0  0  0
   16.0512   -6.0619   45.9445 C   0  0  1  0  0  0  0  0  0  0  0  0
   16.6430   -5.2700   44.6683 C   0  0  1  0  0  0  0  0  0  0  0  0
   18.1968   -5.1781   44.7011 C   0  0  1  0  0  0  0  0  0  0  0  0
   18.5977   -4.4520   46.0498 C   0  0  1  0  0  0  0  0  0  0  0  0
   17.9623   -5.2317   47.2533 C   0  0  2  0  0  0  0  0  0  0  0  0
   20.9173   -3.5694   45.1914 C   0  0  0  0  0  0  0  0  0  0  0  0
   12.6759   -7.1088   44.4873 N   0  0  0  0  0  0  0  0  0  0  0  0
   20.1138   -4.3556   46.1964 N   0  0  0  0  0  0  0  0  0  0  0  0
   14.1216   -4.8486   43.2445 O   0  0  0  0  0  0  0  0  0  0  0  0
   16.1991   -5.9604   43.4494 O   0  0  0  0  0  0  0  0  0  0  0  0
   16.4789   -5.3607   47.1497 O   0  0  0  0  0  0  0  0  0  0  0  0
   18.6983   -6.5139   44.6318 O   0  0  0  0  0  0  0  0  0  0  0  0
   18.2587   -4.5652   48.4259 O   0  0  0  0  0  0  0  0  0  0  0  0
   18.3354   -5.4325   49.5699 C   0  0  2  0  0  0  0  0  0  0  0  0
   18.7508   -4.6288   50.8257 C   0  0  1  0  0  0  0  0  0  0  0  0
   20.2054   -4.0790   50.7069 C   0  0  2  0  0  0  0  0  0  0  0  0
   21.1892   -5.2674   50.4948 C   0  0  1  0  0  0  0  0  0  0  0  0
   20.7537   -5.9927   49.1541 C   0  0  1  0  0  0  0  0  0  0  0  0
   21.6391   -7.1958   48.8416 C   0  0  0  0  0  0  0  0  0  0  0  0
   22.5806   -4.7444   50.3812 N   0  0  0  0  0  0  0  0  0  0  0  0
   19.3427   -6.4943   49.3126 O   0  0  0  0  0  0  0  0  0  0  0  0
   17.7869   -3.5717   50.9943 O   0  0  0  0  0  0  0  0  0  0  0  0
   20.5254   -3.4032   51.9049 O   0  0  0  0  0  0  0  0  0  0  0  0
   21.3890   -8.2146   49.7736 O   0  0  0  0  0  0  0  0  0  0  0  0
   14.5325   -4.1351   42.0965 C   0  0  1  0  0  0  0  0  0  0  0  0
   15.9380   -3.5165   42.3852 C   0  0  1  0  0  0  0  0  0  0  0  0
   16.3895   -2.7005   41.1389 C   0  0  2  0  0  0  0  0  0  0  0  0
   16.4585   -3.6120   39.8748 C   0  0  1  0  0  0  0  0  0  0  0  0
   15.0469   -4.2496   39.5822 C   0  0  0  0  0  0  0  0  0  0  0  0
   14.5938   -5.0846   40.8509 C   0  0  2  0  0  0  0  0  0  0  0  0
   16.8867   -2.8082   38.6965 N   0  0  0  0  0  0  0  0  0  0  0  0
   13.2700   -5.6827   40.5664 N   0  0  0  0  0  0  0  0  0  0  0  0
   15.8738   -2.6385   43.5246 O   0  0  0  0  0  0  0  0  0  0  0  0
   17.6678   -2.1570   41.4244 O   0  0  0  0  0  0  0  0  0  0  0  0
  1  2  1  0  0  0  0
  1 12  1  1  0  0  0
  1 13  1  0  0  0  0
  2  3  1  0  0  0  0
  2 10  1  6  0  0  0
  4  3  1  6  0  0  0
  4  5  1  0  0  0  0
  4 14  1  0  0  0  0
  5  6  1  0  0  0  0
  5 13  1  6  0  0  0
  6  7  1  0  0  0  0
  6 15  1  1  0  0  0
  7  8  1  0  0  0  0
  7 11  1  1  0  0  0
  8 14  1  0  0  0  0
  8 16  1  1  0  0  0
  9 11  1  0  0  0  0
 17 16  1  6  0  0  0
 17 18  1  0  0  0  0
 17 24  1  0  0  0  0
 18 19  1  0  0  0  0
 18 25  1  6  0  0  0
 19 20  1  0  0  0  0
 19 26  1  1  0  0  0
 20 21  1  0  0  0  0
 20 23  1  6  0  0  0
 21 22  1  1  0  0  0
 21 24  1  0  0  0  0
 22 27  1  0  0  0  0
 28 12  1  1  0  0  0
 28 29  1  0  0  0  0
 28 33  1  0  0  0  0
 29 30  1  0  0  0  0
 29 36  1  1  0  0  0
 30 31  1  0  0  0  0
 30 37  1  1  0  0  0
 31 32  1  0  0  0  0
 31 34  1  6  0  0  0
 32 33  1  0  0  0  0
 33 35  1  6  0  0  0
M  END
>  <CHROM.1>
-176.18089614,62.41030764,-151.09259060,176.70735273,69.56636571,-79.57213498
17.52734835,-4.95039908,45.65244033,2.16159650,-0.42209293,-1.20440858

>  <Name>
2oe8_lig

>  <RI>
0

>  <Rbt.Current_Directory>
/home/itssahil/PROJECTS/Mol_Feturizer/New_Systems/rnas/2oe8

>  <Rbt.Executable>
rbdock ($Id: //depot/dev/client3/rdock/2013.1/src/exe/rbdock.cxx#4 $)

>  <Rbt.Library>
libRbt.so (2013.1, Build901 2013/11/27)

>  <Rbt.Parameter_File>
/export/apps/rDock/src/rDock_2013.1_src/data/scripts/dock_solv.prm

>  <Rbt.Receptor>
prm/blind_docking_60.prm

>  <SCORE>
-24.8504

>  <SCORE.INTER>
-21.7397

>  <SCORE.INTER.CONST>
1

>  <SCORE.INTER.POLAR>
-3.06185

>  <SCORE.INTER.ROT>
6

>  <SCORE.INTER.SOLV>
14.6242

>  <SCORE.INTER.VDW>
-16.7617

>  <SCORE.INTER.norm>
-0.587561

>  <SCORE.INTRA>
-3.11064

>  <SCORE.INTRA.DIHEDRAL>
-10.7932

>  <SCORE.INTRA.DIHEDRAL.0>
16.4056

>  <SCORE.INTRA.POLAR>
0

>  <SCORE.INTRA.POLAR.0>
0

>  <SCORE.INTRA.REPUL>
0

>  <SCORE.INTRA.REPUL.0>
0

>  <SCORE.INTRA.SOLV>
-0.595944

>  <SCORE.INTRA.SOLV.lig_0>
-90.9627

>  <SCORE.INTRA.VDW>
2.58392

>  <SCORE.INTRA.VDW.0>
-3.28744

>  <SCORE.INTRA.norm>
-0.0840714

>  <SCORE.RESTR>
0

>  <SCORE.RESTR.CAVITY>
0

>  <SCORE.RESTR.norm>
0

>  <SCORE.SYSTEM>
0

>  <SCORE.SYSTEM.CONST>
0

>  <SCORE.SYSTEM.DIHEDRAL>
0

>  <SCORE.SYSTEM.SOLV>
0

>  <SCORE.SYSTEM.norm>
0

>  <SCORE.heavy>
37

>  <SCORE.norm>
-0.671632

>  <RMSD>
11.432

$$$$
2oe8_lig
 OpenBabel11021811463D
libRbt.so/2013.1/901 2013/11/27
 37 40  0  0  0  0  0  0  0  0999 V2000
   14.6977   -6.0130   43.9996 C   0  0  1  0  0  0  0  0  0  0  0  0
   14.5575   -6.9206   45.2803 C   0  0  1  0  0  0  0  0  0  0  0  0
   15.1208   -6.1679   46.5037 C   0  0  0  0  0  0  0  0  0  0  0  0
   16.6185   -5.8726   46.1785 C   0  0  1  0  0  0  0  0  0  0  0  0
   16.7789   -4.9604   44.8563 C   0  0  1  0  0  0  0  0  0  0  0  0
   18.2710   -4.6771   44.5139 C   0  0  1  0  0  0  0  0  0  0  0  0
   18.9160   -3.9638   45.7717 C   0  0  1  0  0  0  0  0  0  0  0  0
   18.6940   -4.8663   47.0351 C   0  0  2  0  0  0  0  0  0  0  0  0
   21.0937   -2.6177   46.3567 C   0  0  0  0  0  0  0  0  0  0  0  0
   13.1216   -7.2700   45.5216 N   0  0  0  0  0  0  0  0  0  0  0  0
   20.4000   -3.6855   45.5489 N   0  0  0  0  0  0  0  0  0  0  0  0
   13.9496   -4.7972   44.1277 O   0  0  0  0  0  0  0  0  0  0  0  0
   16.1212   -5.6491   43.7371 O   0  0  0  0  0  0  0  0  0  0  0  0
   17.2559   -5.1747   47.2892 O   0  0  0  0  0  0  0  0  0  0  0  0
   18.8829   -5.9359   44.2283 O   0  0  0  0  0  0  0  0  0  0  0  0
   19.2008   -4.2177   48.1440 O   0  0  0  0  0  0  0  0  0  0  0  0
   19.3145   -5.0675   49.2981 C   0  0  2  0  0  0  0  0  0  0  0  0
   18.8275   -4.3217   50.5639 C   0  0  1  0  0  0  0  0  0  0  0  0
   19.7561   -3.1211   50.9222 C   0  0  2  0  0  0  0  0  0  0  0  0
   21.2071   -3.6411   51.1447 C   0  0  1  0  0  0  0  0  0  0  0  0
   21.6670   -4.3188   49.7874 C   0  0  1  0  0  0  0  0  0  0  0  0
   23.0800   -4.8874   49.8827 C   0  0  0  0  0  0  0  0  0  0  0  0
   22.0968   -2.4951   51.4877 N   0  0  0  0  0  0  0  0  0  0  0  0
   20.7361   -5.4612   49.4780 O   0  0  0  0  0  0  0  0  0  0  0  0
   17.4725   -3.9002   50.3162 O   0  0  0  0  0  0  0  0  0  0  0  0
   19.2760   -2.5253   52.1092 O   0  0  0  0  0  0  0  0  0  0  0  0
   24.0004   -3.8346   49.9998 O   0  0  0  0  0  0  0  0  0  0  0  0
   13.9101   -4.0292   42.9426 C   0  0  1  0  0  0  0  0  0  0  0  0
   12.8266   -4.6446   41.9998 C   0  0  1  0  0  0  0  0  0  0  0  0
   12.7943   -3.8264   40.6760 C   0  0  2  0  0  0  0  0  0  0  0  0
   12.4650   -2.3279   40.9584 C   0  0  1  0  0  0  0  0  0  0  0  0
   13.5471   -1.7014   41.9182 C   0  0  0  0  0  0  0  0  0  0  0  0
   13.5724   -2.5334   43.2670 C   0  0  2  0  0  0  0  0  0  0  0  0
   12.4454   -1.5663   39.6788 N   0  0  0  0  0  0  0  0  0  0  0  0
   14.5878   -1.9363   44.1635 N   0  0  0  0  0  0  0  0  0  0  0  0
   13.1466   -6.0156   41.6978 O   0  0  0  0  0  0  0  0  0  0  0  0
   11.8003   -4.4004   39.8433 O   0  0  0  0  0  0  0  0  0  0  0  0
  1  2  1  0  0  0  0
  1 12  1  1  0  0  0
  1 13  1  0  0  0  0
  2  3  1  0  0  0  0
  2 10  1  1  0  0  0
  4  3  1  1  0  0  0
  4  5  1  0  0  0  0
  4 14  1  0  0  0  0
  5  6  1  0  0  0  0
  5 13  1  6  0  0  0
  6  7  1  0  0  0  0
  6 15  1  1  0  0  0
  7  8  1  0  0  0  0
  7 11  1  6  0  0  0
  8 14  1  0  0  0  0
  8 16  1  1  0  0  0
  9 11  1  0  0  0  0
 17 16  1  6  0  0  0
 17 18  1  0  0  0  0
 17 24  1  0  0  0  0
 18 19  1  0  0  0  0
 18 25  1  6  0  0  0
 19 20  1  0  0  0  0
 19 26  1  1  0  0  0
 20 21  1  0  0  0  0
 20 23  1  6  0  0  0
 21 22  1  1  0  0  0
 21 24  1  0  0  0  0
 22 27  1  0  0  0  0
 28 12  1  1  0  0  0
 28 29  1  0  0  0  0
 28 33  1  0  0  0  0
 29 30  1  0  0  0  0
 29 36  1  6  0  0  0
 30 31  1  0  0  0  0
 30 37  1  6  0  0  0
 31 32  1  0  0  0  0
 31 34  1  6  0  0  0
 32 33  1  0  0  0  0
 33 35  1  1  0  0  0
M  END
>  <CHROM.1>
-172.58166905,158.40702370,-167.21524012,-137.03249239,-68.06814577,80.01611564
17.11994381,-4.31699051,46.00426487,2.51261230,-0.53951093,-0.97169566

>  <Name>
2oe8_lig

>  <RI>
0

>  <Rbt.Current_Directory>
/home/itssahil/PROJECTS/Mol_Feturizer/New_Systems/rnas/2oe8

>  <Rbt.Executable>
rbdock ($Id: //depot/dev/client3/rdock/2013.1/src/exe/rbdock.cxx#4 $)

>  <Rbt.Library>
libRbt.so (2013.1, Build901 2013/11/27)

>  <Rbt.Parameter_File>
/export/apps/rDock/src/rDock_2013.1_src/data/scripts/dock_solv.prm

>  <Rbt.Receptor>
prm/blind_docking_100.prm

>  <SCORE>
-26.7655

>  <SCORE.INTER>
-22.8236

>  <SCORE.INTER.CONST>
1

>  <SCORE.INTER.POLAR>
-3.62277

>  <SCORE.INTER.ROT>
6

>  <SCORE.INTER.SOLV>
18.8075

>  <SCORE.INTER.VDW>
-17.009

>  <SCORE.INTER.norm>
-0.616854

>  <SCORE.INTRA>
-3.94191

>  <SCORE.INTRA.DIHEDRAL>
-7.05887

>  <SCORE.INTRA.DIHEDRAL.0>
16.4056

>  <SCORE.INTRA.POLAR>
0

>  <SCORE.INTRA.POLAR.0>
0

>  <SCORE.INTRA.REPUL>
0

>  <SCORE.INTRA.REPUL.0>
0

>  <SCORE.INTRA.SOLV>
-1.52882

>  <SCORE.INTRA.SOLV.lig_0>
-90.9627

>  <SCORE.INTRA.VDW>
0.351932

>  <SCORE.INTRA.VDW.0>
-3.28744

>  <SCORE.INTRA.norm>
-0.106538

>  <SCORE.RESTR>
0

>  <SCORE.RESTR.CAVITY>
0

>  <SCORE.RESTR.norm>
0

>  <SCORE.SYSTEM>
0

>  <SCORE.SYSTEM.CONST>
0

>  <SCORE.SYSTEM.DIHEDRAL>
0

>  <SCORE.SYSTEM.SOLV>
0

>  <SCORE.SYSTEM.norm>
0

>  <SCORE.heavy>
37

>  <SCORE.norm>
-0.723392

>  <RMSD>
11.453

$$$$
2oe8_lig
 OpenBabel11021811463D
libRbt.so/2013.1/901 2013/11/27
 37 40  0  0  0  0  0  0  0  0999 V2000
   14.7765   -6.0418   43.8005 C   0  0  1  0  0  0  0  0  0  0  0  0
   14.6561   -7.0556   45.0010 C   0  0  1  0  0  0  0  0  0  0  0  0
   15.0545   -6.3450   46.3113 C   0  0  0  0  0  0  0  0  0  0  0  0
   16.5281   -5.8697   46.1154 C   0  0  1  0  0  0  0  0  0  0  0  0
   16.6707   -4.8460   44.8754 C   0  0  1  0  0  0  0  0  0  0  0  0
   18.1412   -4.3818   44.6611 C   0  0  1  0  0  0  0  0  0  0  0  0
   18.6227   -3.7044   46.0088 C   0  0  1  0  0  0  0  0  0  0  0  0
   18.4218   -4.7204   47.1866 C   0  0  2  0  0  0  0  0  0  0  0  0
   21.1271   -4.2108   45.4019 C   0  0  0  0  0  0  0  0  0  0  0  0
   13.2550   -7.5716   45.1140 N   0  0  0  0  0  0  0  0  0  0  0  0
   20.0782   -3.2553   45.9126 N   0  0  0  0  0  0  0  0  0  0  0  0
   13.8926   -4.9250   43.9598 O   0  0  0  0  0  0  0  0  0  0  0  0
   16.1651   -5.5112   43.6665 O   0  0  0  0  0  0  0  0  0  0  0  0
   17.0131   -5.1969   47.3151 O   0  0  0  0  0  0  0  0  0  0  0  0
   18.9049   -5.5435   44.3323 O   0  0  0  0  0  0  0  0  0  0  0  0
   18.7827   -4.1100   48.3717 O   0  0  0  0  0  0  0  0  0  0  0  0
   19.0070   -5.0394   49.4454 C   0  0  2  0  0  0  0  0  0  0  0  0
   19.0642   -4.2916   50.7993 C   0  0  1  0  0  0  0  0  0  0  0  0
   20.3038   -3.3495   50.8890 C   0  0  2  0  0  0  0  0  0  0  0  0
   21.6022   -4.1875   50.6967 C   0  0  1  0  0  0  0  0  0  0  0  0
   21.5106   -4.8570   49.2627 C   0  0  1  0  0  0  0  0  0  0  0  0
   22.7280   -5.7255   48.9587 C   0  0  0  0  0  0  0  0  0  0  0  0
   22.7888   -3.2890   50.7824 N   0  0  0  0  0  0  0  0  0  0  0  0
   20.2954   -5.7452   49.2209 O   0  0  0  0  0  0  0  0  0  0  0  0
   17.8262   -3.5687   50.9404 O   0  0  0  0  0  0  0  0  0  0  0  0
   20.3118   -2.7440   52.1649 O   0  0  0  0  0  0  0  0  0  0  0  0
   22.7152   -6.0901   47.6037 O   0  0  0  0  0  0  0  0  0  0  0  0
   13.8285   -4.0870   42.8243 C   0  0  1  0  0  0  0  0  0  0  0  0
   12.7251   -4.6453   41.8691 C   0  0  1  0  0  0  0  0  0  0  0  0
   12.6654   -3.7489   40.5979 C   0  0  2  0  0  0  0  0  0  0  0  0
   12.3430   -2.2703   40.9770 C   0  0  1  0  0  0  0  0  0  0  0  0
   13.4454   -1.7020   41.9498 C   0  0  0  0  0  0  0  0  0  0  0  0
   13.4986   -2.6137   43.2452 C   0  0  2  0  0  0  0  0  0  0  0  0
   12.2969   -1.4331   39.7463 N   0  0  0  0  0  0  0  0  0  0  0  0
   14.5331   -2.0709   44.1544 N   0  0  0  0  0  0  0  0  0  0  0  0
   13.0378   -5.9954   41.4785 O   0  0  0  0  0  0  0  0  0  0  0  0
   11.6537   -4.2723   39.7533 O   0  0  0  0  0  0  0  0  0  0  0  0
  1  2  1  0  0  0  0
  1 12  1  1  0  0  0
  1 13  1  0  0  0  0
  2  3  1  0  0  0  0
  2 10  1  1  0  0  0
  4  3  1  1  0  0  0
  4  5  1  0  0  0  0
  4 14  1  0  0  0  0
  5  6  1  0  0  0  0
  5 13  1  6  0  0  0
  6  7  1  0  0  0  0
  6 15  1  1  0  0  0
  7  8  1  0  0  0  0
  7 11  1  6  0  0  0
  8 14  1  0  0  0  0
  8 16  1  1  0  0  0
  9 11  1  0  0  0  0
 17 16  1  6  0  0  0
 17 18  1  0  0  0  0
 17 24  1  0  0  0  0
 18 19  1  0  0  0  0
 18 25  1  6  0  0  0
 19 20  1  0  0  0  0
 19 26  1  1  0  0  0
 20 21  1  0  0  0  0
 20 23  1  6  0  0  0
 21 22  1  1  0  0  0
 21 24  1  0  0  0  0
 22 27  1  0  0  0  0
 28 12  1  1  0  0  0
 28 29  1  0  0  0  0
 28 33  1  0  0  0  0
 29 30  1  0  0  0  0
 29 36  1  6  0  0  0
 30 31  1  0  0  0  0
 30 37  1  6  0  0  0
 31 32  1  0  0  0  0
 31 34  1  6  0  0  0
 32 33  1  0  0  0  0
 33 35  1  1  0  0  0
M  END
>  <CHROM.1>
-171.67365988,-49.17550303,-163.11189389,-166.22720147,-169.27908469,87.65172965
17.06443988,-4.47724430,45.84008999,2.47393399,-0.46780874,-1.00188765

>  <Name>
2oe8_lig

>  <RI>
0

>  <Rbt.Current_Directory>
/home/itssahil/PROJECTS/Mol_Feturizer/New_Systems/rnas/2oe8

>  <Rbt.Executable>
rbdock ($Id: //depot/dev/client3/rdock/2013.1/src/exe/rbdock.cxx#4 $)

>  <Rbt.Library>
libRbt.so (2013.1, Build901 2013/11/27)

>  <Rbt.Parameter_File>
/export/apps/rDock/src/rDock_2013.1_src/data/scripts/dock_solv.prm

>  <Rbt.Receptor>
prm/blind_docking_100.prm

>  <SCORE>
-25.1945

>  <SCORE.INTER>
-20.6335

>  <SCORE.INTER.CONST>
1

>  <SCORE.INTER.POLAR>
-2.91621

>  <SCORE.INTER.ROT>
6

>  <SCORE.INTER.SOLV>
17.5386

>  <SCORE.INTER.VDW>
-17.4811

>  <SCORE.INTER.norm>
-0.557661

>  <SCORE.INTRA>
-4.56108

>  <SCORE.INTRA.DIHEDRAL>
-10.1463

>  <SCORE.INTRA.DIHEDRAL.0>
16.4056

>  <SCORE.INTRA.POLAR>
0

>  <SCORE.INTRA.POLAR.0>
0

>  <SCORE.INTRA.REPUL>
0

>  <SCORE.INTRA.REPUL.0>
0

>  <SCORE.INTRA.SOLV>
-1.5177

>  <SCORE.INTRA.SOLV.lig_0>
-90.9627

>  <SCORE.INTRA.VDW>
1.27093

>  <SCORE.INTRA.VDW.0>
-3.28744

>  <SCORE.INTRA.norm>
-0.123272

>  <SCORE.RESTR>
0

>  <SCORE.RESTR.CAVITY>
0

>  <SCORE.RESTR.norm>
0

>  <SCORE.SYSTEM>
0

>  <SCORE.SYSTEM.CONST>
0

>  <SCORE.SYSTEM.DIHEDRAL>
0

>  <SCORE.SYSTEM.SOLV>
0

>  <SCORE.SYSTEM.norm>
0

>  <SCORE.heavy>
37

>  <SCORE.norm>
-0.680933

>  <RMSD>
11.468

$$$$
2oe8_lig
 OpenBabel11021811463D
libRbt.so/2013.1/901 2013/11/27
 37 40  0  0  0  0  0  0  0  0999 V2000
   15.2170   -6.4637   44.1955 C   0  0  1  0  0  0  0  0  0  0  0  0
   14.5526   -6.6784   45.6083 C   0  0  1  0  0  0  0  0  0  0  0  0
   14.9417   -5.5103   46.5383 C   0  0  0  0  0  0  0  0  0  0  0  0
   16.4993   -5.5336   46.6341 C   0  0  1  0  0  0  0  0  0  0  0  0
   17.1943   -5.3354   45.1906 C   0  0  1  0  0  0  0  0  0  0  0  0
   18.7484   -5.3765   45.2747 C   0  0  1  0  0  0  0  0  0  0  0  0
   19.1964   -4.2354   46.2768 C   0  0  1  0  0  0  0  0  0  0  0  0
   18.4608   -4.4458   47.6459 C   0  0  2  0  0  0  0  0  0  0  0  0
   21.6103   -3.9273   45.2894 C   0  0  0  0  0  0  0  0  0  0  0  0
   13.0621   -6.7468   45.4827 N   0  0  0  0  0  0  0  0  0  0  0  0
   20.7113   -4.2262   46.4626 N   0  0  0  0  0  0  0  0  0  0  0  0
   14.7578   -5.2577   43.5721 O   0  0  0  0  0  0  0  0  0  0  0  0
   16.7045   -6.3909   44.2931 O   0  0  0  0  0  0  0  0  0  0  0  0
   16.9743   -4.4718   47.5140 O   0  0  0  0  0  0  0  0  0  0  0  0
   19.1099   -6.6793   45.7359 O   0  0  0  0  0  0  0  0  0  0  0  0
   18.8021   -3.4166   48.5011 O   0  0  0  0  0  0  0  0  0  0  0  0
   19.8866   -3.7470   49.3851 C   0  0  2  0  0  0  0  0  0  0  0  0
   19.7263   -3.0029   50.7328 C   0  0  1  0  0  0  0  0  0  0  0  0
   19.8725   -1.4595   50.5635 C   0  0  2  0  0  0  0  0  0  0  0  0
   21.2672   -1.1388   49.9492 C   0  0  1  0  0  0  0  0  0  0  0  0
   21.3287   -1.8648   48.5412 C   0  0  1  0  0  0  0  0  0  0  0  0
   22.6648   -1.6384   47.8395 C   0  0  0  0  0  0  0  0  0  0  0  0
   21.4095    0.3362   49.7866 N   0  0  0  0  0  0  0  0  0  0  0  0
   21.1715   -3.3471   48.7546 O   0  0  0  0  0  0  0  0  0  0  0  0
   18.4407   -3.3668   51.2711 O   0  0  0  0  0  0  0  0  0  0  0  0
   19.7631   -0.8592   51.8370 O   0  0  0  0  0  0  0  0  0  0  0  0
   23.6954   -2.2096   48.6015 O   0  0  0  0  0  0  0  0  0  0  0  0
   15.5420   -4.8571   42.4674 C   0  0  1  0  0  0  0  0  0  0  0  0
   15.1826   -5.7767   41.2563 C   0  0  1  0  0  0  0  0  0  0  0  0
   16.0629   -5.3666   40.0399 C   0  0  2  0  0  0  0  0  0  0  0  0
   15.8249   -3.8718   39.6623 C   0  0  1  0  0  0  0  0  0  0  0  0
   16.1745   -2.9369   40.8823 C   0  0  0  0  0  0  0  0  0  0  0  0
   15.2717   -3.3536   42.1167 C   0  0  2  0  0  0  0  0  0  0  0  0
   16.6812   -3.5027   38.5012 N   0  0  0  0  0  0  0  0  0  0  0  0
   15.6034   -2.4687   43.2560 N   0  0  0  0  0  0  0  0  0  0  0  0
   15.4413   -7.1554   41.5809 O   0  0  0  0  0  0  0  0  0  0  0  0
   15.7124   -6.2102   38.9553 O   0  0  0  0  0  0  0  0  0  0  0  0
  1  2  1  0  0  0  0
  1 12  1  1  0  0  0
  1 13  1  0  0  0  0
  2  3  1  0  0  0  0
  2 10  1  6  0  0  0
  4  3  1  6  0  0  0
  4  5  1  0  0  0  0
  4 14  1  0  0  0  0
  5  6  1  0  0  0  0
  5 13  1  6  0  0  0
  6  7  1  0  0  0  0
  6 15  1  1  0  0  0
  7  8  1  0  0  0  0
  7 11  1  1  0  0  0
  8 14  1  0  0  0  0
  8 16  1  1  0  0  0
  9 11  1  0  0  0  0
 17 16  1  6  0  0  0
 17 18  1  0  0  0  0
 17 24  1  0  0  0  0
 18 19  1  0  0  0  0
 18 25  1  6  0  0  0
 19 20  1  0  0  0  0
 19 26  1  1  0  0  0
 20 21  1  0  0  0  0
 20 23  1  6  0  0  0
 21 22  1  1  0  0  0
 21 24  1  0  0  0  0
 22 27  1  0  0  0  0
 28 12  1  1  0  0  0
 28 29  1  0  0  0  0
 28 33  1  0  0  0  0
 29 30  1  0  0  0  0
 29 36  1  1  0  0  0
 30 31  1  0  0  0  0
 30 37  1  6  0  0  0
 31 32  1  0  0  0  0
 31 34  1  6  0  0  0
 32 33  1  0  0  0  0
 33 35  1  1  0  0  0
M  END
>  <CHROM.1>
165.86821147,63.44268404,-95.63358174,-148.52490266,63.35833764,76.09294943
17.95544276,-4.13168715,45.71296427,2.23486859,-0.56385365,-1.54155764

>  <Name>
2oe8_lig

>  <RI>
0

>  <Rbt.Current_Directory>
/home/itssahil/PROJECTS/Mol_Feturizer/New_Systems/rnas/2oe8

>  <Rbt.Executable>
rbdock ($Id: //depot/dev/client3/rdock/2013.1/src/exe/rbdock.cxx#4 $)

>  <Rbt.Library>
libRbt.so (2013.1, Build901 2013/11/27)

>  <Rbt.Parameter_File>
/export/apps/rDock/src/rDock_2013.1_src/data/scripts/dock_solv.prm

>  <Rbt.Receptor>
prm/blind_docking_80.prm

>  <SCORE>
-23.4762

>  <SCORE.INTER>
-21.7439

>  <SCORE.INTER.CONST>
1

>  <SCORE.INTER.POLAR>
-2.91913

>  <SCORE.INTER.ROT>
6

>  <SCORE.INTER.SOLV>
19.2824

>  <SCORE.INTER.VDW>
-18.7929

>  <SCORE.INTER.norm>
-0.587672

>  <SCORE.INTRA>
-1.73234

>  <SCORE.INTRA.DIHEDRAL>
-5.67019

>  <SCORE.INTRA.DIHEDRAL.0>
16.4056

>  <SCORE.INTRA.POLAR>
0

>  <SCORE.INTRA.POLAR.0>
0

>  <SCORE.INTRA.REPUL>
0

>  <SCORE.INTRA.REPUL.0>
0

>  <SCORE.INTRA.SOLV>
-0.479987

>  <SCORE.INTRA.SOLV.lig_0>
-90.9627

>  <SCORE.INTRA.VDW>
1.34275

>  <SCORE.INTRA.VDW.0>
-3.28744

>  <SCORE.INTRA.norm>
-0.0468201

>  <SCORE.RESTR>
0

>  <SCORE.RESTR.CAVITY>
0

>  <SCORE.RESTR.norm>
0

>  <SCORE.SYSTEM>
0

>  <SCORE.SYSTEM.CONST>
0

>  <SCORE.SYSTEM.DIHEDRAL>
0

>  <SCORE.SYSTEM.SOLV>
0

>  <SCORE.SYSTEM.norm>
0

>  <SCORE.heavy>
37

>  <SCORE.norm>
-0.634492

>  <RMSD>
11.471

$$$$
2oe8_lig
 OpenBabel11021811463D
libRbt.so/2013.1/901 2013/11/27
 37 40  0  0  0  0  0  0  0  0999 V2000
   16.7971   -6.3099   43.0843 C   0  0  1  0  0  0  0  0  0  0  0  0
   16.9419   -7.4117   44.2017 C   0  0  1  0  0  0  0  0  0  0  0  0
   16.9348   -6.7362   45.5889 C   0  0  0  0  0  0  0  0  0  0  0  0
   18.1484   -5.7549   45.5988 C   0  0  1  0  0  0  0  0  0  0  0  0
   18.0243   -4.6322   44.4454 C   0  0  1  0  0  0  0  0  0  0  0  0
   19.2408   -3.6607   44.4361 C   0  0  1  0  0  0  0  0  0  0  0  0
   19.3195   -2.9903   45.8684 C   0  0  1  0  0  0  0  0  0  0  0  0
   19.3923   -4.1203   46.9535 C   0  0  2  0  0  0  0  0  0  0  0  0
   21.8428   -2.5730   46.4643 C   0  0  0  0  0  0  0  0  0  0  0  0
   15.8178   -8.3972   44.1161 N   0  0  0  0  0  0  0  0  0  0  0  0
   20.5166   -2.0494   45.9735 N   0  0  0  0  0  0  0  0  0  0  0  0
   15.5588   -5.5978   43.2000 O   0  0  0  0  0  0  0  0  0  0  0  0
   17.9062   -5.3132   43.1485 O   0  0  0  0  0  0  0  0  0  0  0  0
   18.2456   -5.0733   46.8845 O   0  0  0  0  0  0  0  0  0  0  0  0
   20.3993   -4.4407   44.1355 O   0  0  0  0  0  0  0  0  0  0  0  0
   19.3982   -3.5392   48.2063 O   0  0  0  0  0  0  0  0  0  0  0  0
   19.5929   -4.4848   49.2715 C   0  0  2  0  0  0  0  0  0  0  0  0
   18.9172   -3.9786   50.5688 C   0  0  1  0  0  0  0  0  0  0  0  0
   19.6054   -2.6905   51.1159 C   0  0  2  0  0  0  0  0  0  0  0  0
   21.1097   -2.9868   51.3886 C   0  0  1  0  0  0  0  0  0  0  0  0
   21.7522   -3.4203   50.0057 C   0  0  1  0  0  0  0  0  0  0  0  0
   23.2344   -3.7560   50.1444 C   0  0  0  0  0  0  0  0  0  0  0  0
   21.7699   -1.7568   51.9121 N   0  0  0  0  0  0  0  0  0  0  0  0
   21.0491   -4.6573   49.5130 O   0  0  0  0  0  0  0  0  0  0  0  0
   17.5256   -3.7601   50.2680 O   0  0  0  0  0  0  0  0  0  0  0  0
   18.9664   -2.3212   52.3200 O   0  0  0  0  0  0  0  0  0  0  0  0
   23.8780   -3.5461   48.9152 O   0  0  0  0  0  0  0  0  0  0  0  0
   15.4189   -4.5493   42.2636 C   0  0  1  0  0  0  0  0  0  0  0  0
   14.6641   -5.1092   41.0152 C   0  0  1  0  0  0  0  0  0  0  0  0
   14.5307   -3.9716   39.9612 C   0  0  2  0  0  0  0  0  0  0  0  0
   13.7523   -2.7560   40.5530 C   0  0  1  0  0  0  0  0  0  0  0  0
   14.5008   -2.1913   41.8200 C   0  0  0  0  0  0  0  0  0  0  0  0
   14.6290   -3.3507   42.8931 C   0  0  2  0  0  0  0  0  0  0  0  0
   13.6429   -1.6805   39.5287 N   0  0  0  0  0  0  0  0  0  0  0  0
   15.3292   -2.8111   44.0804 N   0  0  0  0  0  0  0  0  0  0  0  0
   15.3985   -6.2038   40.4358 O   0  0  0  0  0  0  0  0  0  0  0  0
   13.8375   -4.5034   38.8442 O   0  0  0  0  0  0  0  0  0  0  0  0
  1  2  1  0  0  0  0
  1 12  1  1  0  0  0
  1 13  1  0  0  0  0
  2  3  1  0  0  0  0
  2 10  1  1  0  0  0
  4  3  1  1  0  0  0
  4  5  1  0  0  0  0
  4 14  1  0  0  0  0
  5  6  1  0  0  0  0
  5 13  1  6  0  0  0
  6  7  1  0  0  0  0
  6 15  1  1  0  0  0
  7  8  1  0  0  0  0
  7 11  1  6  0  0  0
  8 14  1  0  0  0  0
  8 16  1  1  0  0  0
  9 11  1  0  0  0  0
 17 16  1  6  0  0  0
 17 18  1  0  0  0  0
 17 24  1  0  0  0  0
 18 19  1  0  0  0  0
 18 25  1  6  0  0  0
 19 20  1  0  0  0  0
 19 26  1  1  0  0  0
 20 21  1  0  0  0  0
 20 23  1  6  0  0  0
 21 22  1  1  0  0  0
 21 24  1  0  0  0  0
 22 27  1  0  0  0  0
 28 12  1  1  0  0  0
 28 29  1  0  0  0  0
 28 33  1  0  0  0  0
 29 30  1  0  0  0  0
 29 36  1  6  0  0  0
 30 31  1  0  0  0  0
 30 37  1  6  0  0  0
 31 32  1  0  0  0  0
 31 34  1  6  0  0  0
 32 33  1  0  0  0  0
 33 35  1  1  0  0  0
M  END
>  <CHROM.1>
176.66225867,-90.75518148,-174.35320293,-151.75608037,-153.78871032,93.29612442
18.07366195,-4.14400234,45.67230839,-2.69058621,-0.90270579,0.42236390

>  <Name>
2oe8_lig

>  <RI>
0

>  <Rbt.Current_Directory>
/home/itssahil/PROJECTS/Mol_Feturizer/New_Systems/rnas/2oe8

>  <Rbt.Executable>
rbdock ($Id: //depot/dev/client3/rdock/2013.1/src/exe/rbdock.cxx#4 $)

>  <Rbt.Library>
libRbt.so (2013.1, Build901 2013/11/27)

>  <Rbt.Parameter_File>
/export/apps/rDock/src/rDock_2013.1_src/data/scripts/dock_solv.prm

>  <Rbt.Receptor>
prm/blind_docking_60.prm

>  <SCORE>
-23.2484

>  <SCORE.INTER>
-20.7946

>  <SCORE.INTER.CONST>
1

>  <SCORE.INTER.POLAR>
-3.83357

>  <SCORE.INTER.ROT>
6

>  <SCORE.INTER.SOLV>
14.97

>  <SCORE.INTER.VDW>
-13.6745

>  <SCORE.INTER.norm>
-0.562017

>  <SCORE.INTRA>
-2.45371

>  <SCORE.INTRA.DIHEDRAL>
-5.9027

>  <SCORE.INTRA.DIHEDRAL.0>
16.4056

>  <SCORE.INTRA.POLAR>
0

>  <SCORE.INTRA.POLAR.0>
0

>  <SCORE.INTRA.REPUL>
0

>  <SCORE.INTRA.REPUL.0>
0

>  <SCORE.INTRA.SOLV>
-1.19923

>  <SCORE.INTRA.SOLV.lig_0>
-90.9627

>  <SCORE.INTRA.VDW>
1.09725

>  <SCORE.INTRA.VDW.0>
-3.28744

>  <SCORE.INTRA.norm>
-0.0663165

>  <SCORE.RESTR>
0

>  <SCORE.RESTR.CAVITY>
0

>  <SCORE.RESTR.norm>
0

>  <SCORE.SYSTEM>
0

>  <SCORE.SYSTEM.CONST>
0

>  <SCORE.SYSTEM.DIHEDRAL>
0

>  <SCORE.SYSTEM.SOLV>
0

>  <SCORE.SYSTEM.norm>
0

>  <SCORE.heavy>
37

>  <SCORE.norm>
-0.628334

>  <RMSD>
11.479

$$$$
2oe8_lig
 OpenBabel11021811463D
libRbt.so/2013.1/901 2013/11/27
 37 40  0  0  0  0  0  0  0  0999 V2000
   14.4977   -6.0478   43.8627 C   0  0  1  0  0  0  0  0  0  0  0  0
   14.2896   -7.0140   45.0901 C   0  0  1  0  0  0  0  0  0  0  0  0
   14.7419   -6.3026   46.3824 C   0  0  0  0  0  0  0  0  0  0  0  0
   16.2507   -5.9575   46.1812 C   0  0  1  0  0  0  0  0  0  0  0  0
   16.4818   -4.9844   44.9140 C   0  0  1  0  0  0  0  0  0  0  0  0
   17.9866   -4.6505   44.6948 C   0  0  1  0  0  0  0  0  0  0  0  0
   18.5190   -3.9781   46.0257 C   0  0  1  0  0  0  0  0  0  0  0  0
   18.2305   -4.9404   47.2301 C   0  0  2  0  0  0  0  0  0  0  0  0
   20.6295   -3.3935   44.5764 C   0  0  0  0  0  0  0  0  0  0  0  0
   12.8499   -7.4080   45.2100 N   0  0  0  0  0  0  0  0  0  0  0  0
   20.0072   -3.6548   45.9248 N   0  0  0  0  0  0  0  0  0  0  0  0
   13.7096   -4.8572   43.9863 O   0  0  0  0  0  0  0  0  0  0  0  0
   15.9261   -5.6387   43.7214 O   0  0  0  0  0  0  0  0  0  0  0  0
   16.7866   -5.2941   47.3643 O   0  0  0  0  0  0  0  0  0  0  0  0
   18.6516   -5.8806   44.4023 O   0  0  0  0  0  0  0  0  0  0  0  0
   18.6376   -4.3293   48.3997 O   0  0  0  0  0  0  0  0  0  0  0  0
   18.6739   -5.2223   49.5258 C   0  0  2  0  0  0  0  0  0  0  0  0
   18.9095   -4.4281   50.8332 C   0  0  1  0  0  0  0  0  0  0  0  0
   20.3229   -3.7698   50.8647 C   0  0  2  0  0  0  0  0  0  0  0  0
   21.4093   -4.8761   50.7192 C   0  0  1  0  0  0  0  0  0  0  0  0
   21.1557   -5.5911   49.3273 C   0  0  1  0  0  0  0  0  0  0  0  0
   22.1547   -6.7162   49.0723 C   0  0  0  0  0  0  0  0  0  0  0  0
   22.7617   -4.2493   50.7492 N   0  0  0  0  0  0  0  0  0  0  0  0
   19.7782   -6.1993   49.3405 O   0  0  0  0  0  0  0  0  0  0  0  0
   17.8568   -3.4500   50.9341 O   0  0  0  0  0  0  0  0  0  0  0  0
   20.4789   -3.1083   52.1026 O   0  0  0  0  0  0  0  0  0  0  0  0
   21.8876   -7.3049   47.8269 O   0  0  0  0  0  0  0  0  0  0  0  0
   13.7431   -4.0341   42.8387 C   0  0  1  0  0  0  0  0  0  0  0  0
   12.6532   -4.5442   41.8419 C   0  0  1  0  0  0  0  0  0  0  0  0
   12.7004   -3.6650   40.5583 C   0  0  2  0  0  0  0  0  0  0  0  0
   12.4457   -2.1652   40.9039 C   0  0  1  0  0  0  0  0  0  0  0  0
   13.5344   -1.6448   41.9181 C   0  0  0  0  0  0  0  0  0  0  0  0
   13.4787   -2.5385   43.2259 C   0  0  2  0  0  0  0  0  0  0  0  0
   12.5013   -1.3453   39.6620 N   0  0  0  0  0  0  0  0  0  0  0  0
   14.5009   -2.0408   44.1738 N   0  0  0  0  0  0  0  0  0  0  0  0
   12.9062   -5.9153   41.4827 O   0  0  0  0  0  0  0  0  0  0  0  0
   11.6991   -4.1438   39.6756 O   0  0  0  0  0  0  0  0  0  0  0  0
  1  2  1  0  0  0  0
  1 12  1  1  0  0  0
  1 13  1  0  0  0  0
  2  3  1  0  0  0  0
  2 10  1  1  0  0  0
  4  3  1  1  0  0  0
  4  5  1  0  0  0  0
  4 14  1  0  0  0  0
  5  6  1  0  0  0  0
  5 13  1  6  0  0  0
  6  7  1  0  0  0  0
  6 15  1  1  0  0  0
  7  8  1  0  0  0  0
  7 11  1  6  0  0  0
  8 14  1  0  0  0  0
  8 16  1  1  0  0  0
  9 11  1  0  0  0  0
 17 16  1  6  0  0  0
 17 18  1  0  0  0  0
 17 24  1  0  0  0  0
 18 19  1  0  0  0  0
 18 25  1  6  0  0  0
 19 20  1  0  0  0  0
 19 26  1  1  0  0  0
 20 21  1  0  0  0  0
 20 23  1  6  0  0  0
 21 22  1  1  0  0  0
 21 24  1  0  0  0  0
 22 27  1  0  0  0  0
 28 12  1  1  0  0  0
 28 29  1  0  0  0  0
 28 33  1  0  0  0  0
 29 30  1  0  0  0  0
 29 36  1  6  0  0  0
 30 31  1  0  0  0  0
 30 37  1  6  0  0  0
 31 32  1  0  0  0  0
 31 34  1  6  0  0  0
 32 33  1  0  0  0  0
 33 35  1  1  0  0  0
M  END
>  <CHROM.1>
-173.01869180,27.03843148,-167.95967191,-170.72620088,-179.64061506,85.55295795
16.88549535,-4.64720255,45.84337325,2.66697944,-0.69659724,-0.55057055

>  <Name>
2oe8_lig

>  <RI>
0

>  <Rbt.Current_Directory>
/home/itssahil/PROJECTS/Mol_Feturizer/New_Systems/rnas/2oe8

>  <Rbt.Executable>
rbdock ($Id: //depot/dev/client3/rdock/2013.1/src/exe/rbdock.cxx#4 $)

>  <Rbt.Library>
libRbt.so (2013.1, Build901 2013/11/27)

>  <Rbt.Parameter_File>
/export/apps/rDock/src/rDock_2013.1_src/data/scripts/dock_solv.prm

>  <Rbt.Receptor>
prm/blind_docking_60.prm

>  <SCORE>
-25.3396

>  <SCORE.INTER>
-20.2108

>  <SCORE.INTER.CONST>
1

>  <SCORE.INTER.POLAR>
-2.87118

>  <SCORE.INTER.ROT>
6

>  <SCORE.INTER.SOLV>
19.6997

>  <SCORE.INTER.VDW>
-18.0699

>  <SCORE.INTER.norm>
-0.546239

>  <SCORE.INTRA>
-5.13311

>  <SCORE.INTRA.DIHEDRAL>
-11.5376

>  <SCORE.INTRA.DIHEDRAL.0>
16.4056

>  <SCORE.INTRA.POLAR>
0

>  <SCORE.INTRA.POLAR.0>
0

>  <SCORE.INTRA.REPUL>
0

>  <SCORE.INTRA.REPUL.0>
0

>  <SCORE.INTRA.SOLV>
-2.17017

>  <SCORE.INTRA.SOLV.lig_0>
-90.9627

>  <SCORE.INTRA.VDW>
1.72078

>  <SCORE.INTRA.VDW.0>
-3.28744

>  <SCORE.INTRA.norm>
-0.138733

>  <SCORE.RESTR>
0.00432529

>  <SCORE.RESTR.CAVITY>
0.00432529

>  <SCORE.RESTR.norm>
0.0001169

>  <SCORE.SYSTEM>
0

>  <SCORE.SYSTEM.CONST>
0

>  <SCORE.SYSTEM.DIHEDRAL>
0

>  <SCORE.SYSTEM.SOLV>
0

>  <SCORE.SYSTEM.norm>
0

>  <SCORE.heavy>
37

>  <SCORE.norm>
-0.684854

>  <RMSD>
11.518

$$$$
2oe8_lig
 OpenBabel11021811463D
libRbt.so/2013.1/901 2013/11/27
 37 40  0  0  0  0  0  0  0  0999 V2000
   14.4196   -5.8384   44.3944 C   0  0  1  0  0  0  0  0  0  0  0  0
   14.2369   -6.2657   45.9002 C   0  0  1  0  0  0  0  0  0  0  0  0
   14.9402   -5.2383   46.8115 C   0  0  0  0  0  0  0  0  0  0  0  0
   16.4448   -5.2503   46.3967 C   0  0  1  0  0  0  0  0  0  0  0  0
   16.6462   -4.8344   44.8499 C   0  0  1  0  0  0  0  0  0  0  0  0
   18.1430   -4.8624   44.4227 C   0  0  1  0  0  0  0  0  0  0  0  0
   18.9245   -3.8712   45.3787 C   0  0  1  0  0  0  0  0  0  0  0  0
   18.6604   -4.2891   46.8672 C   0  0  2  0  0  0  0  0  0  0  0  0
   21.3356   -2.9199   45.8013 C   0  0  0  0  0  0  0  0  0  0  0  0
   12.7833   -6.3390   46.2525 N   0  0  0  0  0  0  0  0  0  0  0  0
   20.4185   -3.8648   45.0665 N   0  0  0  0  0  0  0  0  0  0  0  0
   13.8231   -4.5624   44.1298 O   0  0  0  0  0  0  0  0  0  0  0  0
   15.8614   -5.7567   44.0174 O   0  0  0  0  0  0  0  0  0  0  0  0
   17.2101   -4.3195   47.2183 O   0  0  0  0  0  0  0  0  0  0  0  0
   18.5921   -6.2122   44.5531 O   0  0  0  0  0  0  0  0  0  0  0  0
   19.2903   -3.3890   47.7040 O   0  0  0  0  0  0  0  0  0  0  0  0
   19.0132   -3.6162   49.0963 C   0  0  2  0  0  0  0  0  0  0  0  0
   19.7980   -2.6089   49.9710 C   0  0  1  0  0  0  0  0  0  0  0  0
   21.3377   -2.8390   49.8799 C   0  0  2  0  0  0  0  0  0  0  0  0
   21.6684   -4.2931   50.3287 C   0  0  1  0  0  0  0  0  0  0  0  0
   20.8976   -5.2663   49.3427 C   0  0  1  0  0  0  0  0  0  0  0  0
   21.1298   -6.7339   49.6909 C   0  0  0  0  0  0  0  0  0  0  0  0
   23.1400   -4.5156   50.2428 N   0  0  0  0  0  0  0  0  0  0  0  0
   19.4201   -4.9991   49.4572 O   0  0  0  0  0  0  0  0  0  0  0  0
   19.4240   -1.2865   49.5392 O   0  0  0  0  0  0  0  0  0  0  0  0
   21.9774   -1.9181   50.7385 O   0  0  0  0  0  0  0  0  0  0  0  0
   20.4440   -7.5456   48.7745 O   0  0  0  0  0  0  0  0  0  0  0  0
   13.8233   -4.2099   42.7618 C   0  0  1  0  0  0  0  0  0  0  0  0
   12.6668   -4.9902   42.0580 C   0  0  1  0  0  0  0  0  0  0  0  0
   12.6752   -4.6350   40.5425 C   0  0  2  0  0  0  0  0  0  0  0  0
   12.4876   -3.1008   40.3317 C   0  0  1  0  0  0  0  0  0  0  0  0
   13.6441   -2.3044   41.0480 C   0  0  0  0  0  0  0  0  0  0  0  0
   13.6280   -2.6640   42.5916 C   0  0  2  0  0  0  0  0  0  0  0  0
   12.5047   -2.7862   38.8762 N   0  0  0  0  0  0  0  0  0  0  0  0
   14.7140   -1.9095   43.2568 N   0  0  0  0  0  0  0  0  0  0  0  0
   12.8560   -6.4094   42.2098 O   0  0  0  0  0  0  0  0  0  0  0  0
   11.6142   -5.3495   39.9305 O   0  0  0  0  0  0  0  0  0  0  0  0
  1  2  1  0  0  0  0
  1 12  1  1  0  0  0
  1 13  1  0  0  0  0
  2  3  1  0  0  0  0
  2 10  1  1  0  0  0
  4  3  1  1  0  0  0
  4  5  1  0  0  0  0
  4 14  1  0  0  0  0
  5  6  1  0  0  0  0
  5 13  1  6  0  0  0
  6  7  1  0  0  0  0
  6 15  1  1  0  0  0
  7  8  1  0  0  0  0
  7 11  1  6  0  0  0
  8 14  1  0  0  0  0
  8 16  1  1  0  0  0
  9 11  1  0  0  0  0
 17 16  1  6  0  0  0
 17 18  1  0  0  0  0
 17 24  1  0  0  0  0
 18 19  1  0  0  0  0
 18 25  1  6  0  0  0
 19 20  1  0  0  0  0
 19 26  1  1  0  0  0
 20 21  1  0  0  0  0
 20 23  1  6  0  0  0
 21 22  1  1  0  0  0
 21 24  1  0  0  0  0
 22 27  1  0  0  0  0
 28 12  1  1  0  0  0
 28 29  1  0  0  0  0
 28 33  1  0  0  0  0
 29 30  1  0  0  0  0
 29 36  1  6  0  0  0
 30 31  1  0  0  0  0
 30 37  1  6  0  0  0
 31 32  1  0  0  0  0
 31 34  1  6  0  0  0
 32 33  1  0  0  0  0
 33 35  1  1  0  0  0
M  END
>  <CHROM.1>
-172.94282764,175.98682369,174.90161402,177.64669350,-179.02084555,78.18441259
17.07102115,-4.38557967,45.71227548,2.75803247,-0.68883783,-0.60725795

>  <Name>
2oe8_lig

>  <RI>
0

>  <Rbt.Current_Directory>
/home/itssahil/PROJECTS/Mol_Feturizer/New_Systems/rnas/2oe8

>  <Rbt.Executable>
rbdock ($Id: //depot/dev/client3/rdock/2013.1/src/exe/rbdock.cxx#4 $)

>  <Rbt.Library>
libRbt.so (2013.1, Build901 2013/11/27)

>  <Rbt.Parameter_File>
/export/apps/rDock/src/rDock_2013.1_src/data/scripts/dock_solv.prm

>  <Rbt.Receptor>
prm/blind_docking_100.prm

>  <SCORE>
-21.6227

>  <SCORE.INTER>
-15.0518

>  <SCORE.INTER.CONST>
1

>  <SCORE.INTER.POLAR>
-2.04448

>  <SCORE.INTER.ROT>
6

>  <SCORE.INTER.SOLV>
17.1356

>  <SCORE.INTER.VDW>
-16.5315

>  <SCORE.INTER.norm>
-0.406806

>  <SCORE.INTRA>
-6.5709

>  <SCORE.INTRA.DIHEDRAL>
-14.4107

>  <SCORE.INTRA.DIHEDRAL.0>
16.4056

>  <SCORE.INTRA.POLAR>
0

>  <SCORE.INTRA.POLAR.0>
0

>  <SCORE.INTRA.REPUL>
0

>  <SCORE.INTRA.REPUL.0>
0

>  <SCORE.INTRA.SOLV>
-2.66024

>  <SCORE.INTRA.SOLV.lig_0>
-90.9627

>  <SCORE.INTRA.VDW>
1.96457

>  <SCORE.INTRA.VDW.0>
-3.28744

>  <SCORE.INTRA.norm>
-0.177592

>  <SCORE.RESTR>
0

>  <SCORE.RESTR.CAVITY>
0

>  <SCORE.RESTR.norm>
0

>  <SCORE.SYSTEM>
0

>  <SCORE.SYSTEM.CONST>
0

>  <SCORE.SYSTEM.DIHEDRAL>
0

>  <SCORE.SYSTEM.SOLV>
0

>  <SCORE.SYSTEM.norm>
0

>  <SCORE.heavy>
37

>  <SCORE.norm>
-0.584398

>  <RMSD>
11.542

$$$$
2oe8_lig
 OpenBabel11021811463D
libRbt.so/2013.1/901 2013/11/27
 37 40  0  0  0  0  0  0  0  0999 V2000
   14.3495   -5.9469   43.8423 C   0  0  1  0  0  0  0  0  0  0  0  0
   14.0295   -6.9787   44.9896 C   0  0  1  0  0  0  0  0  0  0  0  0
   14.2616   -6.3074   46.3594 C   0  0  0  0  0  0  0  0  0  0  0  0
   15.7624   -5.8797   46.3831 C   0  0  1  0  0  0  0  0  0  0  0  0
   16.1103   -4.8380   45.1999 C   0  0  1  0  0  0  0  0  0  0  0  0
   17.6103   -4.4209   45.2048 C   0  0  1  0  0  0  0  0  0  0  0  0
   17.9184   -3.7864   46.6224 C   0  0  1  0  0  0  0  0  0  0  0  0
   17.5217   -4.8172   47.7360 C   0  0  2  0  0  0  0  0  0  0  0  0
   20.0901   -2.7525   45.5682 C   0  0  0  0  0  0  0  0  0  0  0  0
   12.6108   -7.4480   44.8930 N   0  0  0  0  0  0  0  0  0  0  0  0
   19.3863   -3.3862   46.7417 N   0  0  0  0  0  0  0  0  0  0  0  0
   13.4877   -4.8034   43.9027 O   0  0  0  0  0  0  0  0  0  0  0  0
   15.7592   -5.4621   43.9167 O   0  0  0  0  0  0  0  0  0  0  0  0
   16.0947   -5.2470   47.6545 O   0  0  0  0  0  0  0  0  0  0  0  0
   18.3755   -5.6018   44.9587 O   0  0  0  0  0  0  0  0  0  0  0  0
   17.7313   -4.2424   48.9740 O   0  0  0  0  0  0  0  0  0  0  0  0
   18.1804   -5.1791   49.9679 C   0  0  2  0  0  0  0  0  0  0  0  0
   18.9991   -4.4506   51.0609 C   0  0  1  0  0  0  0  0  0  0  0  0
   20.3338   -3.8737   50.4972 C   0  0  2  0  0  0  0  0  0  0  0  0
   21.1803   -5.0321   49.8916 C   0  0  1  0  0  0  0  0  0  0  0  0
   20.3149   -5.6773   48.7307 C   0  0  1  0  0  0  0  0  0  0  0  0
   21.0349   -6.8454   48.0628 C   0  0  0  0  0  0  0  0  0  0  0  0
   22.4571   -4.4830   49.3522 N   0  0  0  0  0  0  0  0  0  0  0  0
   19.0349   -6.2080   49.3201 O   0  0  0  0  0  0  0  0  0  0  0  0
   18.1557   -3.4202   51.6103 O   0  0  0  0  0  0  0  0  0  0  0  0
   21.0423   -3.2705   51.5595 O   0  0  0  0  0  0  0  0  0  0  0  0
   22.1247   -6.3611   47.3233 O   0  0  0  0  0  0  0  0  0  0  0  0
   13.5359   -3.9961   42.7444 C   0  0  1  0  0  0  0  0  0  0  0  0
   12.4609   -4.5218   41.7396 C   0  0  1  0  0  0  0  0  0  0  0  0
   12.5246   -3.6603   40.4448 C   0  0  2  0  0  0  0  0  0  0  0  0
   12.2625   -2.1564   40.7662 C   0  0  1  0  0  0  0  0  0  0  0  0
   13.3359   -1.6200   41.7883 C   0  0  0  0  0  0  0  0  0  0  0  0
   13.2635   -2.4958   43.1073 C   0  0  2  0  0  0  0  0  0  0  0  0
   12.3341   -1.3534   39.5140 N   0  0  0  0  0  0  0  0  0  0  0  0
   14.2715   -1.9832   44.0626 N   0  0  0  0  0  0  0  0  0  0  0  0
   12.7213   -5.8973   41.4028 O   0  0  0  0  0  0  0  0  0  0  0  0
   11.5366   -4.1530   39.5548 O   0  0  0  0  0  0  0  0  0  0  0  0
  1  2  1  0  0  0  0
  1 12  1  1  0  0  0
  1 13  1  0  0  0  0
  2  3  1  0  0  0  0
  2 10  1  1  0  0  0
  4  3  1  1  0  0  0
  4  5  1  0  0  0  0
  4 14  1  0  0  0  0
  5  6  1  0  0  0  0
  5 13  1  6  0  0  0
  6  7  1  0  0  0  0
  6 15  1  1  0  0  0
  7  8  1  0  0  0  0
  7 11  1  6  0  0  0
  8 14  1  0  0  0  0
  8 16  1  1  0  0  0
  9 11  1  0  0  0  0
 17 16  1  6  0  0  0
 17 18  1  0  0  0  0
 17 24  1  0  0  0  0
 18 19  1  0  0  0  0
 18 25  1  6  0  0  0
 19 20  1  0  0  0  0
 19 26  1  1  0  0  0
 20 21  1  0  0  0  0
 20 23  1  6  0  0  0
 21 22  1  1  0  0  0
 21 24  1  0  0  0  0
 22 27  1  0  0  0  0
 28 12  1  1  0  0  0
 28 29  1  0  0  0  0
 28 33  1  0  0  0  0
 29 30  1  0  0  0  0
 29 36  1  6  0  0  0
 30 31  1  0  0  0  0
 30 37  1  6  0  0  0
 31 32  1  0  0  0  0
 31 34  1  6  0  0  0
 32 33  1  0  0  0  0
 33 35  1  1  0  0  0
M  END
>  <CHROM.1>
-167.13393857,40.11733754,-144.99853294,153.67663045,-69.71283734,89.55919895
16.57765983,-4.56891519,45.84577677,2.56055532,-0.61592058,-0.73617674

>  <Name>
2oe8_lig

>  <RI>
0

>  <Rbt.Current_Directory>
/home/itssahil/PROJECTS/Mol_Feturizer/New_Systems/rnas/2oe8

>  <Rbt.Executable>
rbdock ($Id: //depot/dev/client3/rdock/2013.1/src/exe/rbdock.cxx#4 $)

>  <Rbt.Library>
libRbt.so (2013.1, Build901 2013/11/27)

>  <Rbt.Parameter_File>
/export/apps/rDock/src/rDock_2013.1_src/data/scripts/dock_solv.prm

>  <Rbt.Receptor>
prm/blind_docking_60.prm

>  <SCORE>
-23.0837

>  <SCORE.INTER>
-22.6423

>  <SCORE.INTER.CONST>
1

>  <SCORE.INTER.POLAR>
-3.29342

>  <SCORE.INTER.ROT>
6

>  <SCORE.INTER.SOLV>
18.5805

>  <SCORE.INTER.VDW>
-17.9103

>  <SCORE.INTER.norm>
-0.611955

>  <SCORE.INTRA>
-0.441373

>  <SCORE.INTRA.DIHEDRAL>
-4.01173

>  <SCORE.INTRA.DIHEDRAL.0>
16.4056

>  <SCORE.INTRA.POLAR>
0

>  <SCORE.INTRA.POLAR.0>
0

>  <SCORE.INTRA.REPUL>
0

>  <SCORE.INTRA.REPUL.0>
0

>  <SCORE.INTRA.SOLV>
0.869207

>  <SCORE.INTRA.SOLV.lig_0>
-90.9627

>  <SCORE.INTRA.VDW>
1.12989

>  <SCORE.INTRA.VDW.0>
-3.28744

>  <SCORE.INTRA.norm>
-0.011929

>  <SCORE.RESTR>
0

>  <SCORE.RESTR.CAVITY>
0

>  <SCORE.RESTR.norm>
0

>  <SCORE.SYSTEM>
0

>  <SCORE.SYSTEM.CONST>
0

>  <SCORE.SYSTEM.DIHEDRAL>
0

>  <SCORE.SYSTEM.SOLV>
0

>  <SCORE.SYSTEM.norm>
0

>  <SCORE.heavy>
37

>  <SCORE.norm>
-0.623884

>  <RMSD>
11.553

$$$$
2oe8_lig
 OpenBabel11021811463D
libRbt.so/2013.1/901 2013/11/27
 37 40  0  0  0  0  0  0  0  0999 V2000
   16.5571   -4.9821   43.8681 C   0  0  1  0  0  0  0  0  0  0  0  0
   16.2061   -3.7056   44.7230 C   0  0  1  0  0  0  0  0  0  0  0  0
   17.5100   -2.9818   45.1188 C   0  0  0  0  0  0  0  0  0  0  0  0
   18.3410   -4.0097   45.9485 C   0  0  1  0  0  0  0  0  0  0  0  0
   18.6907   -5.3325   45.0919 C   0  0  1  0  0  0  0  0  0  0  0  0
   19.5035   -6.3716   45.9187 C   0  0  1  0  0  0  0  0  0  0  0  0
   20.8260   -5.6527   46.4095 C   0  0  1  0  0  0  0  0  0  0  0  0
   20.4346   -4.3528   47.1950 C   0  0  2  0  0  0  0  0  0  0  0  0
   23.1750   -6.4499   47.2719 C   0  0  0  0  0  0  0  0  0  0  0  0
   15.3309   -2.7749   43.9419 N   0  0  0  0  0  0  0  0  0  0  0  0
   21.6729   -6.5830   47.2737 N   0  0  0  0  0  0  0  0  0  0  0  0
   17.2326   -4.6360   42.6524 O   0  0  0  0  0  0  0  0  0  0  0  0
   17.4306   -5.9268   44.6244 O   0  0  0  0  0  0  0  0  0  0  0  0
   19.5960   -3.4141   46.3929 O   0  0  0  0  0  0  0  0  0  0  0  0
   18.6735   -6.7860   47.0051 O   0  0  0  0  0  0  0  0  0  0  0  0
   21.5874   -3.6915   47.5703 O   0  0  0  0  0  0  0  0  0  0  0  0
   21.3363   -2.4875   48.3147 C   0  0  2  0  0  0  0  0  0  0  0  0
   22.6516   -1.9540   48.9320 C   0  0  1  0  0  0  0  0  0  0  0  0
   23.2175   -2.9222   50.0158 C   0  0  2  0  0  0  0  0  0  0  0  0
   22.1538   -3.1194   51.1359 C   0  0  1  0  0  0  0  0  0  0  0  0
   20.8683   -3.7405   50.4467 C   0  0  1  0  0  0  0  0  0  0  0  0
   19.7377   -3.9681   51.4462 C   0  0  0  0  0  0  0  0  0  0  0  0
   22.6926   -4.0445   52.1735 N   0  0  0  0  0  0  0  0  0  0  0  0
   20.3669   -2.7779   49.4030 O   0  0  0  0  0  0  0  0  0  0  0  0
   23.5808   -1.7539   47.8497 O   0  0  0  0  0  0  0  0  0  0  0  0
   24.3846   -2.3452   50.5629 O   0  0  0  0  0  0  0  0  0  0  0  0
   19.2089   -2.7304   51.8432 O   0  0  0  0  0  0  0  0  0  0  0  0
   16.3633   -4.2153   41.6214 C   0  0  1  0  0  0  0  0  0  0  0  0
   17.2333   -3.6712   40.4430 C   0  0  1  0  0  0  0  0  0  0  0  0
   16.2865   -3.1746   39.3117 C   0  0  2  0  0  0  0  0  0  0  0  0
   15.3710   -4.3325   38.8070 C   0  0  1  0  0  0  0  0  0  0  0  0
   14.4972   -4.8955   39.9920 C   0  0  0  0  0  0  0  0  0  0  0  0
   15.4650   -5.4057   41.1389 C   0  0  2  0  0  0  0  0  0  0  0  0
   14.4721   -3.8316   37.7305 N   0  0  0  0  0  0  0  0  0  0  0  0
   14.6369   -5.9359   42.2454 N   0  0  0  0  0  0  0  0  0  0  0  0
   18.0495   -2.5724   40.8896 O   0  0  0  0  0  0  0  0  0  0  0  0
   17.0999   -2.6936   38.2544 O   0  0  0  0  0  0  0  0  0  0  0  0
  1  2  1  0  0  0  0
  1 12  1  6  0  0  0
  1 13  1  0  0  0  0
  2  3  1  0  0  0  0
  2 10  1  6  0  0  0
  4  3  1  6  0  0  0
  4  5  1  0  0  0  0
  4 14  1  0  0  0  0
  5  6  1  0  0  0  0
  5 13  1  1  0  0  0
  6  7  1  0  0  0  0
  6 15  1  1  0  0  0
  7  8  1  0  0  0  0
  7 11  1  1  0  0  0
  8 14  1  0  0  0  0
  8 16  1  6  0  0  0
  9 11  1  0  0  0  0
 17 16  1  1  0  0  0
 17 18  1  0  0  0  0
 17 24  1  0  0  0  0
 18 19  1  0  0  0  0
 18 25  1  6  0  0  0
 19 20  1  0  0  0  0
 19 26  1  1  0  0  0
 20 21  1  0  0  0  0
 20 23  1  1  0  0  0
 21 22  1  1  0  0  0
 21 24  1  0  0  0  0
 22 27  1  0  0  0  0
 28 12  1  1  0  0  0
 28 29  1  0  0  0  0
 28 33  1  0  0  0  0
 29 30  1  0  0  0  0
 29 36  1  1  0  0  0
 30 31  1  0  0  0  0
 30 37  1  6  0  0  0
 31 32  1  0  0  0  0
 31 34  1  6  0  0  0
 32 33  1  0  0  0  0
 33 35  1  1  0  0  0
M  END
>  <CHROM.1>
-81.18550600,148.80172194,-179.29805191,169.01510722,70.78790957,171.66711407
19.02708408,-4.04371950,45.53793035,2.24434791,-0.52915543,-1.25746923

>  <Name>
2oe8_lig

>  <RI>
0

>  <Rbt.Current_Directory>
/home/itssahil/PROJECTS/Mol_Feturizer/New_Systems/rnas/2oe8

>  <Rbt.Executable>
rbdock ($Id: //depot/dev/client3/rdock/2013.1/src/exe/rbdock.cxx#4 $)

>  <Rbt.Library>
libRbt.so (2013.1, Build901 2013/11/27)

>  <Rbt.Parameter_File>
/export/apps/rDock/src/rDock_2013.1_src/data/scripts/dock_solv.prm

>  <Rbt.Receptor>
prm/blind_docking_60.prm

>  <SCORE>
-22.6506

>  <SCORE.INTER>
-18.7816

>  <SCORE.INTER.CONST>
1

>  <SCORE.INTER.POLAR>
-2.54026

>  <SCORE.INTER.ROT>
6

>  <SCORE.INTER.SOLV>
13.6476

>  <SCORE.INTER.VDW>
-16.2027

>  <SCORE.INTER.norm>
-0.50761

>  <SCORE.INTRA>
-3.86898

>  <SCORE.INTRA.DIHEDRAL>
-12.3884

>  <SCORE.INTRA.DIHEDRAL.0>
16.4056

>  <SCORE.INTRA.POLAR>
0

>  <SCORE.INTRA.POLAR.0>
0

>  <SCORE.INTRA.REPUL>
0

>  <SCORE.INTRA.REPUL.0>
0

>  <SCORE.INTRA.SOLV>
1.2311

>  <SCORE.INTRA.SOLV.lig_0>
-90.9627

>  <SCORE.INTRA.VDW>
1.70966

>  <SCORE.INTRA.VDW.0>
-3.28744

>  <SCORE.INTRA.norm>
-0.104567

>  <SCORE.RESTR>
0

>  <SCORE.RESTR.CAVITY>
0

>  <SCORE.RESTR.norm>
0

>  <SCORE.SYSTEM>
0

>  <SCORE.SYSTEM.CONST>
0

>  <SCORE.SYSTEM.DIHEDRAL>
0

>  <SCORE.SYSTEM.SOLV>
0

>  <SCORE.SYSTEM.norm>
0

>  <SCORE.heavy>
37

>  <SCORE.norm>
-0.612177

>  <RMSD>
11.596

$$$$
2oe8_lig
 OpenBabel11021811463D
libRbt.so/2013.1/901 2013/11/27
 37 40  0  0  0  0  0  0  0  0999 V2000
   16.1072   -2.8812   42.5482 C   0  0  1  0  0  0  0  0  0  0  0  0
   17.5802   -2.7551   42.0026 C   0  0  1  0  0  0  0  0  0  0  0  0
   18.4404   -3.8952   42.5865 C   0  0  0  0  0  0  0  0  0  0  0  0
   18.3927   -3.7230   44.1369 C   0  0  1  0  0  0  0  0  0  0  0  0
   16.8867   -3.8293   44.7084 C   0  0  1  0  0  0  0  0  0  0  0  0
   16.8281   -3.6394   46.2526 C   0  0  1  0  0  0  0  0  0  0  0  0
   17.7553   -4.7481   46.8992 C   0  0  1  0  0  0  0  0  0  0  0  0
   19.1913   -4.6325   46.2793 C   0  0  2  0  0  0  0  0  0  0  0  0
   17.3121   -5.7454   49.2879 C   0  0  0  0  0  0  0  0  0  0  0  0
   17.5944   -2.8291   40.5071 N   0  0  0  0  0  0  0  0  0  0  0  0
   17.8002   -4.6138   48.4189 N   0  0  0  0  0  0  0  0  0  0  0  0
   15.4983   -4.1156   42.1486 O   0  0  0  0  0  0  0  0  0  0  0  0
   16.0653   -2.8114   44.0385 O   0  0  0  0  0  0  0  0  0  0  0  0
   19.1978   -4.7482   44.7912 O   0  0  0  0  0  0  0  0  0  0  0  0
   17.2870   -2.3155   46.5309 O   0  0  0  0  0  0  0  0  0  0  0  0
   19.9849   -5.6378   46.7957 O   0  0  0  0  0  0  0  0  0  0  0  0
   21.3518   -5.5667   46.3559 C   0  0  2  0  0  0  0  0  0  0  0  0
   22.2025   -6.6438   47.0714 C   0  0  1  0  0  0  0  0  0  0  0  0
   22.3143   -6.3708   48.6028 C   0  0  2  0  0  0  0  0  0  0  0  0
   22.9462   -4.9658   48.8305 C   0  0  1  0  0  0  0  0  0  0  0  0
   21.9837   -3.9105   48.1427 C   0  0  1  0  0  0  0  0  0  0  0  0
   22.5063   -2.4837   48.2836 C   0  0  0  0  0  0  0  0  0  0  0  0
   23.0545   -4.7026   50.2939 N   0  0  0  0  0  0  0  0  0  0  0  0
   21.8983   -4.2213   46.6718 O   0  0  0  0  0  0  0  0  0  0  0  0
   21.5959   -7.9205   46.7942 O   0  0  0  0  0  0  0  0  0  0  0  0
   23.1412   -7.3635   49.1730 O   0  0  0  0  0  0  0  0  0  0  0  0
   21.7231   -1.6200   47.5026 O   0  0  0  0  0  0  0  0  0  0  0  0
   14.1582   -3.9747   41.7242 C   0  0  1  0  0  0  0  0  0  0  0  0
   13.7154   -5.3166   41.0572 C   0  0  1  0  0  0  0  0  0  0  0  0
   12.2495   -5.1647   40.5561 C   0  0  2  0  0  0  0  0  0  0  0  0
   11.2929   -4.8167   41.7382 C   0  0  1  0  0  0  0  0  0  0  0  0
   11.7387   -3.4696   42.4246 C   0  0  0  0  0  0  0  0  0  0  0  0
   13.2293   -3.6305   42.9388 C   0  0  2  0  0  0  0  0  0  0  0  0
    9.8995   -4.6714   41.2330 N   0  0  0  0  0  0  0  0  0  0  0  0
   13.6384   -2.3631   43.5850 N   0  0  0  0  0  0  0  0  0  0  0  0
   14.5663   -5.6231   39.9368 O   0  0  0  0  0  0  0  0  0  0  0  0
   11.8713   -6.3959   39.9627 O   0  0  0  0  0  0  0  0  0  0  0  0
  1  2  1  0  0  0  0
  1 12  1  1  0  0  0
  1 13  1  0  0  0  0
  2  3  1  0  0  0  0
  2 10  1  6  0  0  0
  4  3  1  6  0  0  0
  4  5  1  0  0  0  0
  4 14  1  0  0  0  0
  5  6  1  0  0  0  0
  5 13  1  6  0  0  0
  6  7  1  0  0  0  0
  6 15  1  6  0  0  0
  7  8  1  0  0  0  0
  7 11  1  1  0  0  0
  8 14  1  0  0  0  0
  8 16  1  1  0  0  0
  9 11  1  0  0  0  0
 17 16  1  1  0  0  0
 17 18  1  0  0  0  0
 17 24  1  0  0  0  0
 18 19  1  0  0  0  0
 18 25  1  1  0  0  0
 19 20  1  0  0  0  0
 19 26  1  1  0  0  0
 20 21  1  0  0  0  0
 20 23  1  1  0  0  0
 21 22  1  6  0  0  0
 21 24  1  0  0  0  0
 22 27  1  0  0  0  0
 28 12  1  1  0  0  0
 28 29  1  0  0  0  0
 28 33  1  0  0  0  0
 29 30  1  0  0  0  0
 29 36  1  6  0  0  0
 30 31  1  0  0  0  0
 30 37  1  1  0  0  0
 31 32  1  0  0  0  0
 31 34  1  6  0  0  0
 32 33  1  0  0  0  0
 33 35  1  6  0  0  0
M  END
>  <CHROM.1>
-137.39048880,118.91593933,-176.12423538,174.96656684,171.77183806,168.86532574
17.68447309,-4.45094839,44.90370948,-2.83625386,0.59145201,2.72886050

>  <Name>
2oe8_lig

>  <RI>
0

>  <Rbt.Current_Directory>
/home/itssahil/PROJECTS/Mol_Feturizer/New_Systems/rnas/2oe8

>  <Rbt.Executable>
rbdock ($Id: //depot/dev/client3/rdock/2013.1/src/exe/rbdock.cxx#4 $)

>  <Rbt.Library>
libRbt.so (2013.1, Build901 2013/11/27)

>  <Rbt.Parameter_File>
/export/apps/rDock/src/rDock_2013.1_src/data/scripts/dock_solv.prm

>  <Rbt.Receptor>
prm/blind_docking_60.prm

>  <SCORE>
-17.4433

>  <SCORE.INTER>
-14.4604

>  <SCORE.INTER.CONST>
1

>  <SCORE.INTER.POLAR>
-1.00948

>  <SCORE.INTER.ROT>
6

>  <SCORE.INTER.SOLV>
18.5852

>  <SCORE.INTER.VDW>
-20.0704

>  <SCORE.INTER.norm>
-0.390821

>  <SCORE.INTRA>
-2.9829

>  <SCORE.INTRA.DIHEDRAL>
-8.34051

>  <SCORE.INTRA.DIHEDRAL.0>
16.4056

>  <SCORE.INTRA.POLAR>
0

>  <SCORE.INTRA.POLAR.0>
0

>  <SCORE.INTRA.REPUL>
0

>  <SCORE.INTRA.REPUL.0>
0

>  <SCORE.INTRA.SOLV>
-0.755319

>  <SCORE.INTRA.SOLV.lig_0>
-90.9627

>  <SCORE.INTRA.VDW>
1.56501

>  <SCORE.INTRA.VDW.0>
-3.28744

>  <SCORE.INTRA.norm>
-0.080619

>  <SCORE.RESTR>
0

>  <SCORE.RESTR.CAVITY>
0

>  <SCORE.RESTR.norm>
0

>  <SCORE.SYSTEM>
0

>  <SCORE.SYSTEM.CONST>
0

>  <SCORE.SYSTEM.DIHEDRAL>
0

>  <SCORE.SYSTEM.SOLV>
0

>  <SCORE.SYSTEM.norm>
0

>  <SCORE.heavy>
37

>  <SCORE.norm>
-0.47144

>  <RMSD>
11.659

$$$$
2oe8_lig
 OpenBabel11021811463D
libRbt.so/2013.1/901 2013/11/27
 37 40  0  0  0  0  0  0  0  0999 V2000
   16.1954   -2.5833   41.8063 C   0  0  1  0  0  0  0  0  0  0  0  0
   17.6889   -2.5324   41.3063 C   0  0  1  0  0  0  0  0  0  0  0  0
   18.4843   -3.6842   41.9554 C   0  0  0  0  0  0  0  0  0  0  0  0
   18.3938   -3.4577   43.4970 C   0  0  1  0  0  0  0  0  0  0  0  0
   16.8673   -3.4867   44.0212 C   0  0  1  0  0  0  0  0  0  0  0  0
   16.7668   -3.2424   45.5555 C   0  0  1  0  0  0  0  0  0  0  0  0
   17.6284   -4.3633   46.2685 C   0  0  1  0  0  0  0  0  0  0  0  0
   19.0869   -4.3239   45.6933 C   0  0  2  0  0  0  0  0  0  0  0  0
   17.6156   -5.3865   48.6871 C   0  0  0  0  0  0  0  0  0  0  0  0
   17.7480   -2.6576   39.8153 N   0  0  0  0  0  0  0  0  0  0  0  0
   17.6299   -4.1793   47.7836 N   0  0  0  0  0  0  0  0  0  0  0  0
   15.5514   -3.8062   41.4272 O   0  0  0  0  0  0  0  0  0  0  0  0
   16.1086   -2.4614   43.2913 O   0  0  0  0  0  0  0  0  0  0  0  0
   19.1365   -4.4902   44.2109 O   0  0  0  0  0  0  0  0  0  0  0  0
   17.2684   -1.9284   45.8056 O   0  0  0  0  0  0  0  0  0  0  0  0
   19.8233   -5.3408   46.2685 O   0  0  0  0  0  0  0  0  0  0  0  0
   21.2141   -5.0149   46.4309 C   0  0  2  0  0  0  0  0  0  0  0  0
   21.8741   -5.9730   47.4517 C   0  0  1  0  0  0  0  0  0  0  0  0
   21.2996   -5.7745   48.8879 C   0  0  2  0  0  0  0  0  0  0  0  0
   21.5229   -4.2988   49.3323 C   0  0  1  0  0  0  0  0  0  0  0  0
   20.7553   -3.3826   48.2909 C   0  0  1  0  0  0  0  0  0  0  0  0
   20.9123   -1.8987   48.6107 C   0  0  0  0  0  0  0  0  0  0  0  0
   20.9746   -4.1066   50.7053 N   0  0  0  0  0  0  0  0  0  0  0  0
   21.3354   -3.6174   46.9213 O   0  0  0  0  0  0  0  0  0  0  0  0
   21.6711   -7.3154   46.9705 O   0  0  0  0  0  0  0  0  0  0  0  0
   21.9828   -6.6451   49.7653 O   0  0  0  0  0  0  0  0  0  0  0  0
   19.6483   -1.2898   48.6352 O   0  0  0  0  0  0  0  0  0  0  0  0
   14.1742   -3.8418   41.7404 C   0  0  1  0  0  0  0  0  0  0  0  0
   13.4012   -3.0682   40.6243 C   0  0  1  0  0  0  0  0  0  0  0  0
   11.8843   -3.0724   40.9735 C   0  0  2  0  0  0  0  0  0  0  0  0
   11.3443   -4.5320   41.0811 C   0  0  1  0  0  0  0  0  0  0  0  0
   12.1262   -5.3239   42.1975 C   0  0  0  0  0  0  0  0  0  0  0  0
   13.6692   -5.3226   41.8349 C   0  0  2  0  0  0  0  0  0  0  0  0
    9.8946   -4.5093   41.4209 N   0  0  0  0  0  0  0  0  0  0  0  0
   14.3951   -6.0711   42.8857 N   0  0  0  0  0  0  0  0  0  0  0  0
   13.8628   -1.7064   40.5481 O   0  0  0  0  0  0  0  0  0  0  0  0
   11.2070   -2.3715   39.9435 O   0  0  0  0  0  0  0  0  0  0  0  0
  1  2  1  0  0  0  0
  1 12  1  1  0  0  0
  1 13  1  0  0  0  0
  2  3  1  0  0  0  0
  2 10  1  6  0  0  0
  4  3  1  6  0  0  0
  4  5  1  0  0  0  0
  4 14  1  0  0  0  0
  5  6  1  0  0  0  0
  5 13  1  6  0  0  0
  6  7  1  0  0  0  0
  6 15  1  6  0  0  0
  7  8  1  0  0  0  0
  7 11  1  1  0  0  0
  8 14  1  0  0  0  0
  8 16  1  1  0  0  0
  9 11  1  0  0  0  0
 17 16  1  1  0  0  0
 17 18  1  0  0  0  0
 17 24  1  0  0  0  0
 18 19  1  0  0  0  0
 18 25  1  6  0  0  0
 19 20  1  0  0  0  0
 19 26  1  1  0  0  0
 20 21  1  0  0  0  0
 20 23  1  1  0  0  0
 21 22  1  1  0  0  0
 21 24  1  0  0  0  0
 22 27  1  0  0  0  0
 28 12  1  6  0  0  0
 28 29  1  0  0  0  0
 28 33  1  0  0  0  0
 29 30  1  0  0  0  0
 29 36  1  1  0  0  0
 30 31  1  0  0  0  0
 30 37  1  6  0  0  0
 31 32  1  0  0  0  0
 31 34  1  1  0  0  0
 32 33  1  0  0  0  0
 33 35  1  1  0  0  0
M  END
>  <CHROM.1>
-174.18091461,143.65035262,-147.85378353,162.31020783,-129.04820216,81.00615186
17.35680731,-3.96556378,44.69179062,-2.43645608,0.29990062,2.05724675

>  <Name>
2oe8_lig

>  <RI>
0

>  <Rbt.Current_Directory>
/home/itssahil/PROJECTS/Mol_Feturizer/New_Systems/rnas/2oe8

>  <Rbt.Executable>
rbdock ($Id: //depot/dev/client3/rdock/2013.1/src/exe/rbdock.cxx#4 $)

>  <Rbt.Library>
libRbt.so (2013.1, Build901 2013/11/27)

>  <Rbt.Parameter_File>
/export/apps/rDock/src/rDock_2013.1_src/data/scripts/dock_solv.prm

>  <Rbt.Receptor>
prm/blind_docking_80.prm

>  <SCORE>
-18.9518

>  <SCORE.INTER>
-17.0221

>  <SCORE.INTER.CONST>
1

>  <SCORE.INTER.POLAR>
-2.65341

>  <SCORE.INTER.ROT>
6

>  <SCORE.INTER.SOLV>
17.2364

>  <SCORE.INTER.VDW>
-15.8488

>  <SCORE.INTER.norm>
-0.460057

>  <SCORE.INTRA>
-2.01195

>  <SCORE.INTRA.DIHEDRAL>
-3.02432

>  <SCORE.INTRA.DIHEDRAL.0>
16.4056

>  <SCORE.INTRA.POLAR>
0

>  <SCORE.INTRA.POLAR.0>
0

>  <SCORE.INTRA.REPUL>
0

>  <SCORE.INTRA.REPUL.0>
0

>  <SCORE.INTRA.SOLV>
-0.353931

>  <SCORE.INTRA.SOLV.lig_0>
-90.9627

>  <SCORE.INTRA.VDW>
-0.322825

>  <SCORE.INTRA.VDW.0>
-3.28744

>  <SCORE.INTRA.norm>
-0.054377

>  <SCORE.RESTR>
0.0822203

>  <SCORE.RESTR.CAVITY>
0.0822203

>  <SCORE.RESTR.norm>
0.00222217

>  <SCORE.SYSTEM>
0

>  <SCORE.SYSTEM.CONST>
0

>  <SCORE.SYSTEM.DIHEDRAL>
0

>  <SCORE.SYSTEM.SOLV>
0

>  <SCORE.SYSTEM.norm>
0

>  <SCORE.heavy>
37

>  <SCORE.norm>
-0.512212

>  <RMSD>
11.703

$$$$
2oe8_lig
 OpenBabel11021811463D
libRbt.so/2013.1/901 2013/11/27
 37 40  0  0  0  0  0  0  0  0999 V2000
   15.8998   -6.4198   44.0666 C   0  0  1  0  0  0  0  0  0  0  0  0
   15.2541   -5.3094   44.9796 C   0  0  1  0  0  0  0  0  0  0  0  0
   16.3695   -4.5577   45.7356 C   0  0  0  0  0  0  0  0  0  0  0  0
   17.1139   -5.6319   46.5888 C   0  0  1  0  0  0  0  0  0  0  0  0
   17.7634   -6.7878   45.6680 C   0  0  1  0  0  0  0  0  0  0  0  0
   18.4917   -7.8739   46.5130 C   0  0  1  0  0  0  0  0  0  0  0  0
   19.6064   -7.1395   47.3645 C   0  0  1  0  0  0  0  0  0  0  0  0
   18.9331   -5.9989   48.2044 C   0  0  2  0  0  0  0  0  0  0  0  0
   21.4211   -9.0100   47.6880 C   0  0  0  0  0  0  0  0  0  0  0  0
   14.4666   -4.3415   44.1517 N   0  0  0  0  0  0  0  0  0  0  0  0
   20.3493   -8.1211   48.2667 N   0  0  0  0  0  0  0  0  0  0  0  0
   16.7704   -5.8532   43.0791 O   0  0  0  0  0  0  0  0  0  0  0  0
   16.6922   -7.3981   44.8683 O   0  0  0  0  0  0  0  0  0  0  0  0
   18.1848   -5.0173   47.3651 O   0  0  0  0  0  0  0  0  0  0  0  0
   17.5041   -8.5003   47.3333 O   0  0  0  0  0  0  0  0  0  0  0  0
   19.9118   -5.3170   48.9002 O   0  0  0  0  0  0  0  0  0  0  0  0
   19.7928   -5.4488   50.3268 C   0  0  2  0  0  0  0  0  0  0  0  0
   18.8707   -4.3421   50.8930 C   0  0  1  0  0  0  0  0  0  0  0  0
   19.4972   -2.9239   50.7252 C   0  0  2  0  0  0  0  0  0  0  0  0
   20.8751   -2.8808   51.4495 C   0  0  1  0  0  0  0  0  0  0  0  0
   21.7895   -3.9811   50.7665 C   0  0  1  0  0  0  0  0  0  0  0  0
   23.1743   -4.0494   51.4041 C   0  0  0  0  0  0  0  0  0  0  0  0
   21.4761   -1.5257   51.2906 N   0  0  0  0  0  0  0  0  0  0  0  0
   21.1393   -5.3276   50.9438 O   0  0  0  0  0  0  0  0  0  0  0  0
   17.6035   -4.4552   50.2175 O   0  0  0  0  0  0  0  0  0  0  0  0
   18.6233   -1.9791   51.3066 O   0  0  0  0  0  0  0  0  0  0  0  0
   23.8579   -2.8471   51.1667 O   0  0  0  0  0  0  0  0  0  0  0  0
   16.0893   -5.3255   41.9595 C   0  0  1  0  0  0  0  0  0  0  0  0
   17.1347   -4.6034   41.0499 C   0  0  1  0  0  0  0  0  0  0  0  0
   16.3924   -3.9895   39.8271 C   0  0  2  0  0  0  0  0  0  0  0  0
   15.6540   -5.0970   39.0137 C   0  0  1  0  0  0  0  0  0  0  0  0
   14.6047   -5.8388   39.9267 C   0  0  0  0  0  0  0  0  0  0  0  0
   15.3653   -6.4677   41.1669 C   0  0  2  0  0  0  0  0  0  0  0  0
   14.9481   -4.4847   37.8542 N   0  0  0  0  0  0  0  0  0  0  0  0
   14.3739   -7.1651   42.0165 N   0  0  0  0  0  0  0  0  0  0  0  0
   17.7901   -3.5497   41.7801 O   0  0  0  0  0  0  0  0  0  0  0  0
   17.3630   -3.3478   39.0165 O   0  0  0  0  0  0  0  0  0  0  0  0
  1  2  1  0  0  0  0
  1 12  1  6  0  0  0
  1 13  1  0  0  0  0
  2  3  1  0  0  0  0
  2 10  1  6  0  0  0
  4  3  1  6  0  0  0
  4  5  1  0  0  0  0
  4 14  1  0  0  0  0
  5  6  1  0  0  0  0
  5 13  1  1  0  0  0
  6  7  1  0  0  0  0
  6 15  1  1  0  0  0
  7  8  1  0  0  0  0
  7 11  1  1  0  0  0
  8 14  1  0  0  0  0
  8 16  1  6  0  0  0
  9 11  1  0  0  0  0
 17 16  1  6  0  0  0
 17 18  1  0  0  0  0
 17 24  1  0  0  0  0
 18 19  1  0  0  0  0
 18 25  1  6  0  0  0
 19 20  1  0  0  0  0
 19 26  1  1  0  0  0
 20 21  1  0  0  0  0
 20 23  1  6  0  0  0
 21 22  1  1  0  0  0
 21 24  1  0  0  0  0
 22 27  1  0  0  0  0
 28 12  1  1  0  0  0
 28 29  1  0  0  0  0
 28 33  1  0  0  0  0
 29 30  1  0  0  0  0
 29 36  1  1  0  0  0
 30 31  1  0  0  0  0
 30 37  1  6  0  0  0
 31 32  1  0  0  0  0
 31 34  1  6  0  0  0
 32 33  1  0  0  0  0
 33 35  1  1  0  0  0
M  END
>  <CHROM.1>
-79.87023382,78.58789990,-115.34049973,-88.52563135,-65.29167217,173.69906745
18.17523375,-5.20383564,46.12065756,2.90812346,-1.08405143,-0.36366285

>  <Name>
2oe8_lig

>  <RI>
0

>  <Rbt.Current_Directory>
/home/itssahil/PROJECTS/Mol_Feturizer/New_Systems/rnas/2oe8

>  <Rbt.Executable>
rbdock ($Id: //depot/dev/client3/rdock/2013.1/src/exe/rbdock.cxx#4 $)

>  <Rbt.Library>
libRbt.so (2013.1, Build901 2013/11/27)

>  <Rbt.Parameter_File>
/export/apps/rDock/src/rDock_2013.1_src/data/scripts/dock_solv.prm

>  <Rbt.Receptor>
prm/blind_docking_60.prm

>  <SCORE>
-19.6758

>  <SCORE.INTER>
-20.6294

>  <SCORE.INTER.CONST>
1

>  <SCORE.INTER.POLAR>
-2.36987

>  <SCORE.INTER.ROT>
6

>  <SCORE.INTER.SOLV>
8.90044

>  <SCORE.INTER.VDW>
-16.4202

>  <SCORE.INTER.norm>
-0.557552

>  <SCORE.INTRA>
0.953677

>  <SCORE.INTRA.DIHEDRAL>
-3.66866

>  <SCORE.INTRA.DIHEDRAL.0>
16.4056

>  <SCORE.INTRA.POLAR>
0

>  <SCORE.INTRA.POLAR.0>
0

>  <SCORE.INTRA.REPUL>
0

>  <SCORE.INTRA.REPUL.0>
0

>  <SCORE.INTRA.SOLV>
2.52305

>  <SCORE.INTRA.SOLV.lig_0>
-90.9627

>  <SCORE.INTRA.VDW>
1.52648

>  <SCORE.INTRA.VDW.0>
-3.28744

>  <SCORE.INTRA.norm>
0.025775

>  <SCORE.RESTR>
0

>  <SCORE.RESTR.CAVITY>
0

>  <SCORE.RESTR.norm>
0

>  <SCORE.SYSTEM>
0

>  <SCORE.SYSTEM.CONST>
0

>  <SCORE.SYSTEM.DIHEDRAL>
0

>  <SCORE.SYSTEM.SOLV>
0

>  <SCORE.SYSTEM.norm>
0

>  <SCORE.heavy>
37

>  <SCORE.norm>
-0.531777

>  <RMSD>
11.738

$$$$
2oe8_lig
 OpenBabel11021811463D
libRbt.so/2013.1/901 2013/11/27
 37 40  0  0  0  0  0  0  0  0999 V2000
   18.2860   -5.8481   42.6402 C   0  0  1  0  0  0  0  0  0  0  0  0
   18.0621   -6.9519   43.7424 C   0  0  1  0  0  0  0  0  0  0  0  0
   17.9048   -6.2739   45.1194 C   0  0  0  0  0  0  0  0  0  0  0  0
   19.2283   -5.4848   45.3671 C   0  0  1  0  0  0  0  0  0  0  0  0
   19.4819   -4.3636   44.2337 C   0  0  1  0  0  0  0  0  0  0  0  0
   20.8102   -3.5845   44.4628 C   0  0  1  0  0  0  0  0  0  0  0  0
   20.7274   -2.9242   45.8995 C   0  0  1  0  0  0  0  0  0  0  0  0
   20.4352   -4.0454   46.9565 C   0  0  2  0  0  0  0  0  0  0  0  0
   22.2313   -1.6495   47.6344 C   0  0  0  0  0  0  0  0  0  0  0  0
   16.8387   -7.7592   43.4361 N   0  0  0  0  0  0  0  0  0  0  0  0
   22.0117   -2.1718   46.2370 N   0  0  0  0  0  0  0  0  0  0  0  0
   17.1663   -4.9584   42.5465 O   0  0  0  0  0  0  0  0  0  0  0  0
   19.5003   -5.0276   42.9228 O   0  0  0  0  0  0  0  0  0  0  0  0
   19.1916   -4.8169   46.6632 O   0  0  0  0  0  0  0  0  0  0  0  0
   21.8755   -4.5306   44.3588 O   0  0  0  0  0  0  0  0  0  0  0  0
   20.3009   -3.4636   48.2017 O   0  0  0  0  0  0  0  0  0  0  0  0
   20.3440   -4.4124   49.2810 C   0  0  2  0  0  0  0  0  0  0  0  0
   19.3571   -3.9985   50.3992 C   0  0  1  0  0  0  0  0  0  0  0  0
   19.7873   -2.6671   51.0881 C   0  0  2  0  0  0  0  0  0  0  0  0
   21.2162   -2.8342   51.6842 C   0  0  1  0  0  0  0  0  0  0  0  0
   22.1828   -3.1767   50.4753 C   0  0  1  0  0  0  0  0  0  0  0  0
   23.6232   -3.3819   50.9358 C   0  0  0  0  0  0  0  0  0  0  0  0
   21.6297   -1.5627   52.3437 N   0  0  0  0  0  0  0  0  0  0  0  0
   21.7216   -4.4598   49.8364 O   0  0  0  0  0  0  0  0  0  0  0  0
   18.0509   -3.8982   49.8002 O   0  0  0  0  0  0  0  0  0  0  0  0
   18.8691   -2.3841   52.1231 O   0  0  0  0  0  0  0  0  0  0  0  0
   23.8672   -4.7528   51.1099 O   0  0  0  0  0  0  0  0  0  0  0  0
   16.8020   -4.6445   41.2181 C   0  0  1  0  0  0  0  0  0  0  0  0
   15.3451   -5.1565   40.9791 C   0  0  1  0  0  0  0  0  0  0  0  0
   14.9419   -4.8450   39.5083 C   0  0  2  0  0  0  0  0  0  0  0  0
   15.0211   -3.3131   39.2243 C   0  0  1  0  0  0  0  0  0  0  0  0
   16.4853   -2.7853   39.4737 C   0  0  0  0  0  0  0  0  0  0  0  0
   16.8896   -3.0987   40.9739 C   0  0  2  0  0  0  0  0  0  0  0  0
   14.6365   -3.0419   37.8114 N   0  0  0  0  0  0  0  0  0  0  0  0
   18.2636   -2.5967   41.2005 N   0  0  0  0  0  0  0  0  0  0  0  0
   15.2725   -6.5780   41.1960 O   0  0  0  0  0  0  0  0  0  0  0  0
   13.6163   -5.3126   39.3208 O   0  0  0  0  0  0  0  0  0  0  0  0
  1  2  1  0  0  0  0
  1 12  1  1  0  0  0
  1 13  1  0  0  0  0
  2  3  1  0  0  0  0
  2 10  1  6  0  0  0
  4  3  1  6  0  0  0
  4  5  1  0  0  0  0
  4 14  1  0  0  0  0
  5  6  1  0  0  0  0
  5 13  1  6  0  0  0
  6  7  1  0  0  0  0
  6 15  1  1  0  0  0
  7  8  1  0  0  0  0
  7 11  1  1  0  0  0
  8 14  1  0  0  0  0
  8 16  1  1  0  0  0
  9 11  1  0  0  0  0
 17 16  1  6  0  0  0
 17 18  1  0  0  0  0
 17 24  1  0  0  0  0
 18 19  1  0  0  0  0
 18 25  1  6  0  0  0
 19 20  1  0  0  0  0
 19 26  1  1  0  0  0
 20 21  1  0  0  0  0
 20 23  1  6  0  0  0
 21 22  1  1  0  0  0
 21 24  1  0  0  0  0
 22 27  1  0  0  0  0
 28 12  1  1  0  0  0
 28 29  1  0  0  0  0
 28 33  1  0  0  0  0
 29 30  1  0  0  0  0
 29 36  1  6  0  0  0
 30 31  1  0  0  0  0
 30 37  1  1  0  0  0
 31 32  1  0  0  0  0
 31 34  1  6  0  0  0
 32 33  1  0  0  0  0
 33 35  1  6  0  0  0
M  END
>  <CHROM.1>
-137.58839240,-170.57741025,-166.23994536,-143.10593977,96.41979742,118.10784446
18.98833026,-4.13957907,45.46041068,-2.13417846,0.47206445,1.71446632

>  <Name>
2oe8_lig

>  <RI>
0

>  <Rbt.Current_Directory>
/home/itssahil/PROJECTS/Mol_Feturizer/New_Systems/rnas/2oe8

>  <Rbt.Executable>
rbdock ($Id: //depot/dev/client3/rdock/2013.1/src/exe/rbdock.cxx#4 $)

>  <Rbt.Library>
libRbt.so (2013.1, Build901 2013/11/27)

>  <Rbt.Parameter_File>
/export/apps/rDock/src/rDock_2013.1_src/data/scripts/dock_solv.prm

>  <Rbt.Receptor>
prm/blind_docking_80.prm

>  <SCORE>
-14.8161

>  <SCORE.INTER>
-19.6862

>  <SCORE.INTER.CONST>
1

>  <SCORE.INTER.POLAR>
-2.01145

>  <SCORE.INTER.ROT>
6

>  <SCORE.INTER.SOLV>
14.9768

>  <SCORE.INTER.VDW>
-19.0116

>  <SCORE.INTER.norm>
-0.53206

>  <SCORE.INTRA>
4.87013

>  <SCORE.INTRA.DIHEDRAL>
5.90677

>  <SCORE.INTRA.DIHEDRAL.0>
16.4056

>  <SCORE.INTRA.POLAR>
0

>  <SCORE.INTRA.POLAR.0>
0

>  <SCORE.INTRA.REPUL>
0

>  <SCORE.INTRA.REPUL.0>
0

>  <SCORE.INTRA.SOLV>
0.151723

>  <SCORE.INTRA.SOLV.lig_0>
-90.9627

>  <SCORE.INTRA.VDW>
1.84089

>  <SCORE.INTRA.VDW.0>
-3.28744

>  <SCORE.INTRA.norm>
0.131625

>  <SCORE.RESTR>
0

>  <SCORE.RESTR.CAVITY>
0

>  <SCORE.RESTR.norm>
0

>  <SCORE.SYSTEM>
0

>  <SCORE.SYSTEM.CONST>
0

>  <SCORE.SYSTEM.DIHEDRAL>
0

>  <SCORE.SYSTEM.SOLV>
0

>  <SCORE.SYSTEM.norm>
0

>  <SCORE.heavy>
37

>  <SCORE.norm>
-0.400435

>  <RMSD>
11.757

$$$$
2oe8_lig
 OpenBabel11021811463D
libRbt.so/2013.1/901 2013/11/27
 37 40  0  0  0  0  0  0  0  0999 V2000
   17.6421   -4.4226   41.3916 C   0  0  1  0  0  0  0  0  0  0  0  0
   16.9999   -5.6165   42.1949 C   0  0  1  0  0  0  0  0  0  0  0  0
   16.8535   -5.2143   43.6773 C   0  0  0  0  0  0  0  0  0  0  0  0
   18.2954   -4.8993   44.1848 C   0  0  1  0  0  0  0  0  0  0  0  0
   18.9745   -3.6912   43.3570 C   0  0  1  0  0  0  0  0  0  0  0  0
   20.4207   -3.3833   43.8445 C   0  0  1  0  0  0  0  0  0  0  0  0
   20.3335   -3.0308   45.3856 C   0  0  1  0  0  0  0  0  0  0  0  0
   19.6270   -4.2126   46.1366 C   0  0  2  0  0  0  0  0  0  0  0  0
   21.8516   -1.9547   47.2388 C   0  0  0  0  0  0  0  0  0  0  0  0
   15.6564   -5.9650   41.6330 N   0  0  0  0  0  0  0  0  0  0  0  0
   21.7170   -2.7574   45.9694 N   0  0  0  0  0  0  0  0  0  0  0  0
   16.8157   -3.2523   41.4311 O   0  0  0  0  0  0  0  0  0  0  0  0
   18.9833   -4.0544   41.9331 O   0  0  0  0  0  0  0  0  0  0  0  0
   18.2720   -4.5245   45.5941 O   0  0  0  0  0  0  0  0  0  0  0  0
   21.2053   -4.5511   43.5965 O   0  0  0  0  0  0  0  0  0  0  0  0
   19.4941   -3.8804   47.4705 O   0  0  0  0  0  0  0  0  0  0  0  0
   19.2944   -5.0201   48.3238 C   0  0  2  0  0  0  0  0  0  0  0  0
   18.6607   -4.5812   49.6660 C   0  0  1  0  0  0  0  0  0  0  0  0
   19.6296   -3.6874   50.4993 C   0  0  2  0  0  0  0  0  0  0  0  0
   20.9471   -4.4715   50.7721 C   0  0  1  0  0  0  0  0  0  0  0  0
   21.5791   -4.8165   49.3598 C   0  0  1  0  0  0  0  0  0  0  0  0
   22.8783   -5.6061   49.4926 C   0  0  0  0  0  0  0  0  0  0  0  0
   21.8750   -3.6191   51.5689 N   0  0  0  0  0  0  0  0  0  0  0  0
   20.6050   -5.6682   48.5896 O   0  0  0  0  0  0  0  0  0  0  0  0
   17.4310   -3.8988   49.3545 O   0  0  0  0  0  0  0  0  0  0  0  0
   19.0012   -3.3704   51.7236 O   0  0  0  0  0  0  0  0  0  0  0  0
   23.3858   -5.8889   48.2153 O   0  0  0  0  0  0  0  0  0  0  0  0
   15.6508   -3.3547   40.6385 C   0  0  1  0  0  0  0  0  0  0  0  0
   14.5740   -2.3885   41.2290 C   0  0  1  0  0  0  0  0  0  0  0  0
   13.2732   -2.5145   40.3834 C   0  0  2  0  0  0  0  0  0  0  0  0
   13.5465   -2.1579   38.8895 C   0  0  1  0  0  0  0  0  0  0  0  0
   14.6402   -3.1207   38.2882 C   0  0  0  0  0  0  0  0  0  0  0  0
   15.9647   -2.9847   39.1481 C   0  0  2  0  0  0  0  0  0  0  0  0
   12.2899   -2.2911   38.1014 N   0  0  0  0  0  0  0  0  0  0  0  0
   16.9870   -3.8888   38.5747 N   0  0  0  0  0  0  0  0  0  0  0  0
   14.2829   -2.7385   42.5950 O   0  0  0  0  0  0  0  0  0  0  0  0
   12.3172   -1.6242   40.9351 O   0  0  0  0  0  0  0  0  0  0  0  0
  1  2  1  0  0  0  0
  1 12  1  1  0  0  0
  1 13  1  0  0  0  0
  2  3  1  0  0  0  0
  2 10  1  6  0  0  0
  4  3  1  6  0  0  0
  4  5  1  0  0  0  0
  4 14  1  0  0  0  0
  5  6  1  0  0  0  0
  5 13  1  6  0  0  0
  6  7  1  0  0  0  0
  6 15  1  1  0  0  0
  7  8  1  0  0  0  0
  7 11  1  1  0  0  0
  8 14  1  0  0  0  0
  8 16  1  1  0  0  0
  9 11  1  0  0  0  0
 17 16  1  6  0  0  0
 17 18  1  0  0  0  0
 17 24  1  0  0  0  0
 18 19  1  0  0  0  0
 18 25  1  6  0  0  0
 19 20  1  0  0  0  0
 19 26  1  1  0  0  0
 20 21  1  0  0  0  0
 20 23  1  1  0  0  0
 21 22  1  1  0  0  0
 21 24  1  0  0  0  0
 22 27  1  0  0  0  0
 28 12  1  1  0  0  0
 28 29  1  0  0  0  0
 28 33  1  0  0  0  0
 29 30  1  0  0  0  0
 29 36  1  1  0  0  0
 30 31  1  0  0  0  0
 30 37  1  1  0  0  0
 31 32  1  0  0  0  0
 31 34  1  6  0  0  0
 32 33  1  0  0  0  0
 33 35  1  6  0  0  0
M  END
>  <CHROM.1>
-72.70602796,158.61501444,-159.88754644,-159.71699275,179.64564233,154.81977952
18.18214288,-3.86839176,44.68323921,-2.17093827,-0.24759427,1.53970153

>  <Name>
2oe8_lig

>  <RI>
0

>  <Rbt.Current_Directory>
/home/itssahil/PROJECTS/Mol_Feturizer/New_Systems/rnas/2oe8

>  <Rbt.Executable>
rbdock ($Id: //depot/dev/client3/rdock/2013.1/src/exe/rbdock.cxx#4 $)

>  <Rbt.Library>
libRbt.so (2013.1, Build901 2013/11/27)

>  <Rbt.Parameter_File>
/export/apps/rDock/src/rDock_2013.1_src/data/scripts/dock_solv.prm

>  <Rbt.Receptor>
prm/blind_docking_60.prm

>  <SCORE>
-27.4635

>  <SCORE.INTER>
-23.5776

>  <SCORE.INTER.CONST>
1

>  <SCORE.INTER.POLAR>
-2.81652

>  <SCORE.INTER.ROT>
6

>  <SCORE.INTER.SOLV>
14.4403

>  <SCORE.INTER.VDW>
-18.7434

>  <SCORE.INTER.norm>
-0.637232

>  <SCORE.INTRA>
-3.88586

>  <SCORE.INTRA.DIHEDRAL>
-8.88876

>  <SCORE.INTRA.DIHEDRAL.0>
16.4056

>  <SCORE.INTRA.POLAR>
0

>  <SCORE.INTRA.POLAR.0>
0

>  <SCORE.INTRA.REPUL>
0

>  <SCORE.INTRA.REPUL.0>
0

>  <SCORE.INTRA.SOLV>
1.10931

>  <SCORE.INTRA.SOLV.lig_0>
-90.9627

>  <SCORE.INTRA.VDW>
0.00386697

>  <SCORE.INTRA.VDW.0>
-3.28744

>  <SCORE.INTRA.norm>
-0.105023

>  <SCORE.RESTR>
0

>  <SCORE.RESTR.CAVITY>
0

>  <SCORE.RESTR.norm>
0

>  <SCORE.SYSTEM>
0

>  <SCORE.SYSTEM.CONST>
0

>  <SCORE.SYSTEM.DIHEDRAL>
0

>  <SCORE.SYSTEM.SOLV>
0

>  <SCORE.SYSTEM.norm>
0

>  <SCORE.heavy>
37

>  <SCORE.norm>
-0.742256

>  <RMSD>
11.835

$$$$
2oe8_lig
 OpenBabel11021811463D
libRbt.so/2013.1/901 2013/11/27
 37 40  0  0  0  0  0  0  0  0999 V2000
   15.4493   -5.2015   42.9325 C   0  0  1  0  0  0  0  0  0  0  0  0
   14.6343   -5.1451   44.2802 C   0  0  1  0  0  0  0  0  0  0  0  0
   15.1787   -3.9993   45.1585 C   0  0  0  0  0  0  0  0  0  0  0  0
   16.6820   -4.3292   45.4177 C   0  0  1  0  0  0  0  0  0  0  0  0
   17.5260   -4.4107   44.0440 C   0  0  1  0  0  0  0  0  0  0  0  0
   19.0231   -4.7584   44.2925 C   0  0  1  0  0  0  0  0  0  0  0  0
   19.6129   -3.6443   45.2505 C   0  0  1  0  0  0  0  0  0  0  0  0
   18.7332   -3.5733   46.5470 C   0  0  2  0  0  0  0  0  0  0  0  0
   22.1246   -3.8544   44.5131 C   0  0  0  0  0  0  0  0  0  0  0  0
   13.1796   -4.9209   44.0050 N   0  0  0  0  0  0  0  0  0  0  0  0
   21.0736   -3.9256   45.5921 N   0  0  0  0  0  0  0  0  0  0  0  0
   15.3109   -3.9904   42.1788 O   0  0  0  0  0  0  0  0  0  0  0  0
   16.9045   -5.4234   43.1792 O   0  0  0  0  0  0  0  0  0  0  0  0
   17.2919   -3.3092   46.2630 O   0  0  0  0  0  0  0  0  0  0  0  0
   19.0601   -6.0591   44.8821 O   0  0  0  0  0  0  0  0  0  0  0  0
   19.2084   -2.5601   47.3562 O   0  0  0  0  0  0  0  0  0  0  0  0
   20.2732   -2.9789   48.2267 C   0  0  2  0  0  0  0  0  0  0  0  0
   19.6956   -3.6392   49.5019 C   0  0  1  0  0  0  0  0  0  0  0  0
   18.9101   -2.6166   50.3790 C   0  0  2  0  0  0  0  0  0  0  0  0
   19.8565   -1.4456   50.7767 C   0  0  1  0  0  0  0  0  0  0  0  0
   20.3437   -0.7686   49.4285 C   0  0  1  0  0  0  0  0  0  0  0  0
   21.2988    0.3937   49.6854 C   0  0  0  0  0  0  0  0  0  0  0  0
   19.1078   -0.4666   51.6155 N   0  0  0  0  0  0  0  0  0  0  0  0
   21.0842   -1.7949   48.6127 O   0  0  0  0  0  0  0  0  0  0  0  0
   18.8636   -4.7351   49.0757 O   0  0  0  0  0  0  0  0  0  0  0  0
   18.4588   -3.2804   51.5409 O   0  0  0  0  0  0  0  0  0  0  0  0
   20.6426    1.3802   50.4373 O   0  0  0  0  0  0  0  0  0  0  0  0
   15.1901   -4.2002   40.7870 C   0  0  1  0  0  0  0  0  0  0  0  0
   14.6470   -2.8847   40.1419 C   0  0  1  0  0  0  0  0  0  0  0  0
   14.4790   -3.1120   38.6112 C   0  0  2  0  0  0  0  0  0  0  0  0
   15.8396   -3.5038   37.9563 C   0  0  1  0  0  0  0  0  0  0  0  0
   16.4009   -4.8244   38.6089 C   0  0  0  0  0  0  0  0  0  0  0  0
   16.5764   -4.5866   40.1661 C   0  0  2  0  0  0  0  0  0  0  0  0
   15.6518   -3.7210   36.4951 N   0  0  0  0  0  0  0  0  0  0  0  0
   17.1071   -5.8295   40.7701 N   0  0  0  0  0  0  0  0  0  0  0  0
   13.3695   -2.5394   40.7093 O   0  0  0  0  0  0  0  0  0  0  0  0
   13.9928   -1.9036   38.0507 O   0  0  0  0  0  0  0  0  0  0  0  0
  1  2  1  0  0  0  0
  1 12  1  1  0  0  0
  1 13  1  0  0  0  0
  2  3  1  0  0  0  0
  2 10  1  6  0  0  0
  4  3  1  6  0  0  0
  4  5  1  0  0  0  0
  4 14  1  0  0  0  0
  5  6  1  0  0  0  0
  5 13  1  6  0  0  0
  6  7  1  0  0  0  0
  6 15  1  1  0  0  0
  7  8  1  0  0  0  0
  7 11  1  1  0  0  0
  8 14  1  0  0  0  0
  8 16  1  1  0  0  0
  9 11  1  0  0  0  0
 17 16  1  6  0  0  0
 17 18  1  0  0  0  0
 17 24  1  0  0  0  0
 18 19  1  0  0  0  0
 18 25  1  6  0  0  0
 19 20  1  0  0  0  0
 19 26  1  1  0  0  0
 20 21  1  0  0  0  0
 20 23  1  1  0  0  0
 21 22  1  1  0  0  0
 21 24  1  0  0  0  0
 22 27  1  0  0  0  0
 28 12  1  1  0  0  0
 28 29  1  0  0  0  0
 28 33  1  0  0  0  0
 29 30  1  0  0  0  0
 29 36  1  1  0  0  0
 30 31  1  0  0  0  0
 30 37  1  6  0  0  0
 31 32  1  0  0  0  0
 31 34  1  6  0  0  0
 32 33  1  0  0  0  0
 33 35  1  1  0  0  0
M  END
>  <CHROM.1>
-140.35039703,66.63281462,-86.26489382,-83.60415962,-61.00306346,164.10322761
17.65660656,-3.39274609,44.83735651,2.01057348,-0.02978239,-1.75973652

>  <Name>
2oe8_lig

>  <RI>
0

>  <Rbt.Current_Directory>
/home/itssahil/PROJECTS/Mol_Feturizer/New_Systems/rnas/2oe8

>  <Rbt.Executable>
rbdock ($Id: //depot/dev/client3/rdock/2013.1/src/exe/rbdock.cxx#4 $)

>  <Rbt.Library>
libRbt.so (2013.1, Build901 2013/11/27)

>  <Rbt.Parameter_File>
/export/apps/rDock/src/rDock_2013.1_src/data/scripts/dock_solv.prm

>  <Rbt.Receptor>
prm/blind_docking_60.prm

>  <SCORE>
-14.4637

>  <SCORE.INTER>
-14.9067

>  <SCORE.INTER.CONST>
1

>  <SCORE.INTER.POLAR>
-1.03923

>  <SCORE.INTER.ROT>
6

>  <SCORE.INTER.SOLV>
14.5174

>  <SCORE.INTER.VDW>
-18.9128

>  <SCORE.INTER.norm>
-0.402882

>  <SCORE.INTRA>
0.442925

>  <SCORE.INTRA.DIHEDRAL>
-4.53128

>  <SCORE.INTRA.DIHEDRAL.0>
16.4056

>  <SCORE.INTRA.POLAR>
0

>  <SCORE.INTRA.POLAR.0>
0

>  <SCORE.INTRA.REPUL>
0

>  <SCORE.INTRA.REPUL.0>
0

>  <SCORE.INTRA.SOLV>
1.4566

>  <SCORE.INTRA.SOLV.lig_0>
-90.9627

>  <SCORE.INTRA.VDW>
1.98027

>  <SCORE.INTRA.VDW.0>
-3.28744

>  <SCORE.INTRA.norm>
0.011971

>  <SCORE.RESTR>
0

>  <SCORE.RESTR.CAVITY>
0

>  <SCORE.RESTR.norm>
0

>  <SCORE.SYSTEM>
0

>  <SCORE.SYSTEM.CONST>
0

>  <SCORE.SYSTEM.DIHEDRAL>
0

>  <SCORE.SYSTEM.SOLV>
0

>  <SCORE.SYSTEM.norm>
0

>  <SCORE.heavy>
37

>  <SCORE.norm>
-0.390911

>  <RMSD>
12.094

$$$$
2oe8_lig
 OpenBabel11021811463D
libRbt.so/2013.1/901 2013/11/27
 37 40  0  0  0  0  0  0  0  0999 V2000
   17.3391   -4.2464   40.8050 C   0  0  1  0  0  0  0  0  0  0  0  0
   16.8532   -5.6649   41.2899 C   0  0  1  0  0  0  0  0  0  0  0  0
   16.4588   -5.5878   42.7796 C   0  0  0  0  0  0  0  0  0  0  0  0
   17.7419   -5.1354   43.5443 C   0  0  1  0  0  0  0  0  0  0  0  0
   18.2637   -3.6922   43.0435 C   0  0  1  0  0  0  0  0  0  0  0  0
   19.5547   -3.2419   43.7882 C   0  0  1  0  0  0  0  0  0  0  0  0
   19.2207   -3.2141   45.3357 C   0  0  1  0  0  0  0  0  0  0  0  0
   18.6760   -4.6218   45.7620 C   0  0  2  0  0  0  0  0  0  0  0  0
   21.5388   -3.8371   46.4011 C   0  0  0  0  0  0  0  0  0  0  0  0
   15.6789   -6.1224   40.4813 N   0  0  0  0  0  0  0  0  0  0  0  0
   20.4461   -2.8265   46.1589 N   0  0  0  0  0  0  0  0  0  0  0  0
   16.3010   -3.2645   40.9159 O   0  0  0  0  0  0  0  0  0  0  0  0
   18.5098   -3.7663   41.5966 O   0  0  0  0  0  0  0  0  0  0  0  0
   17.4810   -5.0496   44.9767 O   0  0  0  0  0  0  0  0  0  0  0  0
   20.5759   -4.1882   43.4684 O   0  0  0  0  0  0  0  0  0  0  0  0
   18.3257   -4.5814   47.0971 O   0  0  0  0  0  0  0  0  0  0  0  0
   17.9038   -5.8550   47.6137 C   0  0  2  0  0  0  0  0  0  0  0  0
   17.8548   -5.8172   49.1603 C   0  0  1  0  0  0  0  0  0  0  0  0
   19.2748   -5.6424   49.7809 C   0  0  2  0  0  0  0  0  0  0  0  0
   20.1889   -6.8131   49.3129 C   0  0  1  0  0  0  0  0  0  0  0  0
   20.2568   -6.7407   47.7307 C   0  0  1  0  0  0  0  0  0  0  0  0
   21.1178   -7.8558   47.1441 C   0  0  0  0  0  0  0  0  0  0  0  0
   21.5471   -6.6483   49.9052 N   0  0  0  0  0  0  0  0  0  0  0  0
   18.8648   -6.9021   47.1795 O   0  0  0  0  0  0  0  0  0  0  0  0
   16.9676   -4.7455   49.5333 O   0  0  0  0  0  0  0  0  0  0  0  0
   19.1522   -5.6664   51.1876 O   0  0  0  0  0  0  0  0  0  0  0  0
   22.4542   -7.6646   47.5269 O   0  0  0  0  0  0  0  0  0  0  0  0
   15.2013   -3.5042   40.0620 C   0  0  1  0  0  0  0  0  0  0  0  0
   13.9709   -2.7201   40.6214 C   0  0  1  0  0  0  0  0  0  0  0  0
   12.7428   -3.0007   39.7070 C   0  0  2  0  0  0  0  0  0  0  0  0
   13.0325   -2.5596   38.2390 C   0  0  1  0  0  0  0  0  0  0  0  0
   14.2797   -3.3375   37.6698 C   0  0  0  0  0  0  0  0  0  0  0  0
   15.5291   -3.0443   38.5999 C   0  0  2  0  0  0  0  0  0  0  0  0
   11.8464   -2.8429   37.3842 N   0  0  0  0  0  0  0  0  0  0  0  0
   16.6960   -3.7751   38.0563 N   0  0  0  0  0  0  0  0  0  0  0  0
   13.6687   -3.1530   41.9610 O   0  0  0  0  0  0  0  0  0  0  0  0
   11.6444   -2.2734   40.2320 O   0  0  0  0  0  0  0  0  0  0  0  0
  1  2  1  0  0  0  0
  1 12  1  1  0  0  0
  1 13  1  0  0  0  0
  2  3  1  0  0  0  0
  2 10  1  6  0  0  0
  4  3  1  6  0  0  0
  4  5  1  0  0  0  0
  4 14  1  0  0  0  0
  5  6  1  0  0  0  0
  5 13  1  6  0  0  0
  6  7  1  0  0  0  0
  6 15  1  1  0  0  0
  7  8  1  0  0  0  0
  7 11  1  1  0  0  0
  8 14  1  0  0  0  0
  8 16  1  1  0  0  0
  9 11  1  0  0  0  0
 17 16  1  1  0  0  0
 17 18  1  0  0  0  0
 17 24  1  0  0  0  0
 18 19  1  0  0  0  0
 18 25  1  6  0  0  0
 19 20  1  0  0  0  0
 19 26  1  1  0  0  0
 20 21  1  0  0  0  0
 20 23  1  1  0  0  0
 21 22  1  6  0  0  0
 21 24  1  0  0  0  0
 22 27  1  0  0  0  0
 28 12  1  1  0  0  0
 28 29  1  0  0  0  0
 28 33  1  0  0  0  0
 29 30  1  0  0  0  0
 29 36  1  1  0  0  0
 30 31  1  0  0  0  0
 30 37  1  1  0  0  0
 31 32  1  0  0  0  0
 31 34  1  6  0  0  0
 32 33  1  0  0  0  0
 33 35  1  6  0  0  0
M  END
>  <CHROM.1>
-65.36502857,-76.53490787,-175.71717949,166.50457892,-66.40796859,159.79111487
17.51163610,-4.59020238,44.00366538,-2.12632368,-0.19404514,1.73675482

>  <Name>
2oe8_lig

>  <RI>
0

>  <Rbt.Current_Directory>
/home/itssahil/PROJECTS/Mol_Feturizer/New_Systems/rnas/2oe8

>  <Rbt.Executable>
rbdock ($Id: //depot/dev/client3/rdock/2013.1/src/exe/rbdock.cxx#4 $)

>  <Rbt.Library>
libRbt.so (2013.1, Build901 2013/11/27)

>  <Rbt.Parameter_File>
/export/apps/rDock/src/rDock_2013.1_src/data/scripts/dock_solv.prm

>  <Rbt.Receptor>
prm/blind_docking_80.prm

>  <SCORE>
-20.7176

>  <SCORE.INTER>
-17.9482

>  <SCORE.INTER.CONST>
1

>  <SCORE.INTER.POLAR>
-1.83094

>  <SCORE.INTER.ROT>
6

>  <SCORE.INTER.SOLV>
13.7695

>  <SCORE.INTER.VDW>
-18.0522

>  <SCORE.INTER.norm>
-0.485088

>  <SCORE.INTRA>
-2.77815

>  <SCORE.INTRA.DIHEDRAL>
-13.0498

>  <SCORE.INTRA.DIHEDRAL.0>
16.4056

>  <SCORE.INTRA.POLAR>
0

>  <SCORE.INTRA.POLAR.0>
0

>  <SCORE.INTRA.REPUL>
0

>  <SCORE.INTRA.REPUL.0>
0

>  <SCORE.INTRA.SOLV>
3.1352

>  <SCORE.INTRA.SOLV.lig_0>
-90.9627

>  <SCORE.INTRA.VDW>
2.17915

>  <SCORE.INTRA.VDW.0>
-3.28744

>  <SCORE.INTRA.norm>
-0.075085

>  <SCORE.RESTR>
0.00883864

>  <SCORE.RESTR.CAVITY>
0.00883864

>  <SCORE.RESTR.norm>
0.000238882

>  <SCORE.SYSTEM>
0

>  <SCORE.SYSTEM.CONST>
0

>  <SCORE.SYSTEM.DIHEDRAL>
0

>  <SCORE.SYSTEM.SOLV>
0

>  <SCORE.SYSTEM.norm>
0

>  <SCORE.heavy>
37

>  <SCORE.norm>
-0.559934

>  <RMSD>
12.312

$$$$
2oe8_lig
 OpenBabel11021811463D
libRbt.so/2013.1/901 2013/11/27
 37 40  0  0  0  0  0  0  0  0999 V2000
   13.6624   -6.8683   42.5739 C   0  0  1  0  0  0  0  0  0  0  0  0
   13.5235   -7.9620   43.7000 C   0  0  1  0  0  0  0  0  0  0  0  0
   13.9438   -7.3559   45.0552 C   0  0  0  0  0  0  0  0  0  0  0  0
   15.4272   -6.9018   44.8849 C   0  0  1  0  0  0  0  0  0  0  0  0
   15.5884   -5.7958   43.7200 C   0  0  1  0  0  0  0  0  0  0  0  0
   17.0684   -5.3514   43.5307 C   0  0  1  0  0  0  0  0  0  0  0  0
   17.5712   -4.7829   44.9203 C   0  0  1  0  0  0  0  0  0  0  0  0
   17.3516   -5.8753   46.0240 C   0  0  2  0  0  0  0  0  0  0  0  0
   19.5493   -3.2685   45.7509 C   0  0  0  0  0  0  0  0  0  0  0  0
   12.1112   -8.4525   43.7842 N   0  0  0  0  0  0  0  0  0  0  0  0
   19.0363   -4.3616   44.8477 N   0  0  0  0  0  0  0  0  0  0  0  0
   12.8054   -5.7457   42.8174 O   0  0  0  0  0  0  0  0  0  0  0  0
   15.0623   -6.3615   42.4698 O   0  0  0  0  0  0  0  0  0  0  0  0
   15.9328   -6.3274   46.1265 O   0  0  0  0  0  0  0  0  0  0  0  0
   17.8034   -6.5039   43.1156 O   0  0  0  0  0  0  0  0  0  0  0  0
   17.7317   -5.3594   47.2473 O   0  0  0  0  0  0  0  0  0  0  0  0
   17.6453   -6.3135   48.3192 C   0  0  2  0  0  0  0  0  0  0  0  0
   17.9482   -5.6282   49.6735 C   0  0  1  0  0  0  0  0  0  0  0  0
   19.4273   -5.1414   49.7586 C   0  0  2  0  0  0  0  0  0  0  0  0
   20.3813   -6.3561   49.5598 C   0  0  1  0  0  0  0  0  0  0  0  0
   20.0710   -6.9560   48.1256 C   0  0  1  0  0  0  0  0  0  0  0  0
   20.9380   -8.1730   47.8154 C   0  0  0  0  0  0  0  0  0  0  0  0
   21.7962   -5.8933   49.6409 N   0  0  0  0  0  0  0  0  0  0  0  0
   18.6326   -7.3999   48.0884 O   0  0  0  0  0  0  0  0  0  0  0  0
   17.0137   -4.5419   49.8207 O   0  0  0  0  0  0  0  0  0  0  0  0
   19.6371   -4.5744   51.0349 O   0  0  0  0  0  0  0  0  0  0  0  0
   22.2779   -7.7737   47.6953 O   0  0  0  0  0  0  0  0  0  0  0  0
   13.0332   -4.6593   41.9436 C   0  0  1  0  0  0  0  0  0  0  0  0
   12.3272   -4.9711   40.5850 C   0  0  1  0  0  0  0  0  0  0  0  0
   12.5968   -3.7954   39.6012 C   0  0  2  0  0  0  0  0  0  0  0  0
   12.0604   -2.4512   40.1836 C   0  0  1  0  0  0  0  0  0  0  0  0
   12.7592   -2.1338   41.5605 C   0  0  0  0  0  0  0  0  0  0  0  0
   12.4771   -3.3303   42.5610 C   0  0  2  0  0  0  0  0  0  0  0  0
   12.3348   -1.3426   39.2279 N   0  0  0  0  0  0  0  0  0  0  0  0
   13.1332   -3.0225   43.8518 N   0  0  0  0  0  0  0  0  0  0  0  0
   12.8482   -6.1878   40.0181 O   0  0  0  0  0  0  0  0  0  0  0  0
   11.9407   -4.1000   38.3815 O   0  0  0  0  0  0  0  0  0  0  0  0
  1  2  1  0  0  0  0
  1 12  1  1  0  0  0
  1 13  1  0  0  0  0
  2  3  1  0  0  0  0
  2 10  1  1  0  0  0
  4  3  1  1  0  0  0
  4  5  1  0  0  0  0
  4 14  1  0  0  0  0
  5  6  1  0  0  0  0
  5 13  1  6  0  0  0
  6  7  1  0  0  0  0
  6 15  1  1  0  0  0
  7  8  1  0  0  0  0
  7 11  1  6  0  0  0
  8 14  1  0  0  0  0
  8 16  1  1  0  0  0
  9 11  1  0  0  0  0
 17 16  1  6  0  0  0
 17 18  1  0  0  0  0
 17 24  1  0  0  0  0
 18 19  1  0  0  0  0
 18 25  1  6  0  0  0
 19 20  1  0  0  0  0
 19 26  1  1  0  0  0
 20 21  1  0  0  0  0
 20 23  1  6  0  0  0
 21 22  1  1  0  0  0
 21 24  1  0  0  0  0
 22 27  1  0  0  0  0
 28 12  1  1  0  0  0
 28 29  1  0  0  0  0
 28 33  1  0  0  0  0
 29 30  1  0  0  0  0
 29 36  1  6  0  0  0
 30 31  1  0  0  0  0
 30 37  1  6  0  0  0
 31 32  1  0  0  0  0
 31 34  1  6  0  0  0
 32 33  1  0  0  0  0
 33 35  1  1  0  0  0
M  END
>  <CHROM.1>
171.42166741,151.99029677,-176.43200771,-174.33501901,-66.98737808,79.49603679
16.12787443,-5.47342978,44.83186131,2.82322962,-0.79786840,-0.21379126

>  <Name>
2oe8_lig

>  <RI>
0

>  <Rbt.Current_Directory>
/home/itssahil/PROJECTS/Mol_Feturizer/New_Systems/rnas/2oe8

>  <Rbt.Executable>
rbdock ($Id: //depot/dev/client3/rdock/2013.1/src/exe/rbdock.cxx#4 $)

>  <Rbt.Library>
libRbt.so (2013.1, Build901 2013/11/27)

>  <Rbt.Parameter_File>
/export/apps/rDock/src/rDock_2013.1_src/data/scripts/dock_solv.prm

>  <Rbt.Receptor>
prm/blind_docking_100.prm

>  <SCORE>
-21.2443

>  <SCORE.INTER>
-14.7395

>  <SCORE.INTER.CONST>
1

>  <SCORE.INTER.POLAR>
-1.69622

>  <SCORE.INTER.ROT>
6

>  <SCORE.INTER.SOLV>
11.7528

>  <SCORE.INTER.VDW>
-15.6899

>  <SCORE.INTER.norm>
-0.398366

>  <SCORE.INTRA>
-6.50477

>  <SCORE.INTRA.DIHEDRAL>
-13.3298

>  <SCORE.INTRA.DIHEDRAL.0>
16.4056

>  <SCORE.INTRA.POLAR>
0

>  <SCORE.INTRA.POLAR.0>
0

>  <SCORE.INTRA.REPUL>
0

>  <SCORE.INTRA.REPUL.0>
0

>  <SCORE.INTRA.SOLV>
-1.84836

>  <SCORE.INTRA.SOLV.lig_0>
-90.9627

>  <SCORE.INTRA.VDW>
1.08432

>  <SCORE.INTRA.VDW.0>
-3.28744

>  <SCORE.INTRA.norm>
-0.175805

>  <SCORE.RESTR>
0

>  <SCORE.RESTR.CAVITY>
0

>  <SCORE.RESTR.norm>
0

>  <SCORE.SYSTEM>
0

>  <SCORE.SYSTEM.CONST>
0

>  <SCORE.SYSTEM.DIHEDRAL>
0

>  <SCORE.SYSTEM.SOLV>
0

>  <SCORE.SYSTEM.norm>
0

>  <SCORE.heavy>
37

>  <SCORE.norm>
-0.574171

>  <RMSD>
12.420

$$$$
2oe8_lig
 OpenBabel11021811463D
libRbt.so/2013.1/901 2013/11/27
 37 40  0  0  0  0  0  0  0  0999 V2000
   13.6224   -6.8748   42.5607 C   0  0  1  0  0  0  0  0  0  0  0  0
   13.4524   -7.9653   43.6855 C   0  0  1  0  0  0  0  0  0  0  0  0
   13.8916   -7.3735   45.0410 C   0  0  0  0  0  0  0  0  0  0  0  0
   15.3877   -6.9630   44.8698 C   0  0  1  0  0  0  0  0  0  0  0  0
   15.5802   -5.8609   43.7061 C   0  0  1  0  0  0  0  0  0  0  0  0
   17.0725   -5.4600   43.5159 C   0  0  1  0  0  0  0  0  0  0  0  0
   17.5932   -4.9083   44.9056 C   0  0  1  0  0  0  0  0  0  0  0  0
   17.3426   -5.9952   46.0083 C   0  0  2  0  0  0  0  0  0  0  0  0
   19.6066   -3.4238   45.7049 C   0  0  0  0  0  0  0  0  0  0  0  0
   12.0263   -8.4140   43.7706 N   0  0  0  0  0  0  0  0  0  0  0  0
   19.0700   -4.5303   44.8322 N   0  0  0  0  0  0  0  0  0  0  0  0
   12.7990   -5.7277   42.8064 O   0  0  0  0  0  0  0  0  0  0  0  0
   15.0366   -6.4092   42.4558 O   0  0  0  0  0  0  0  0  0  0  0  0
   15.9112   -6.4053   46.1116 O   0  0  0  0  0  0  0  0  0  0  0  0
   17.7728   -6.6332   43.0987 O   0  0  0  0  0  0  0  0  0  0  0  0
   17.7388   -5.4921   47.2318 O   0  0  0  0  0  0  0  0  0  0  0  0
   17.6649   -6.4571   48.2950 C   0  0  2  0  0  0  0  0  0  0  0  0
   18.0285   -5.7957   49.6463 C   0  0  1  0  0  0  0  0  0  0  0  0
   19.5208   -5.3449   49.6878 C   0  0  2  0  0  0  0  0  0  0  0  0
   20.4385   -6.5792   49.4436 C   0  0  1  0  0  0  0  0  0  0  0  0
   20.0670   -7.1540   48.0136 C   0  0  1  0  0  0  0  0  0  0  0  0
   20.8939   -8.3871   47.6609 C   0  0  0  0  0  0  0  0  0  0  0  0
   21.8659   -6.1508   49.4831 N   0  0  0  0  0  0  0  0  0  0  0  0
   18.6179   -7.5635   48.0191 O   0  0  0  0  0  0  0  0  0  0  0  0
   17.1256   -4.6897   49.8369 O   0  0  0  0  0  0  0  0  0  0  0  0
   19.7859   -4.7987   50.9629 O   0  0  0  0  0  0  0  0  0  0  0  0
   20.5624   -8.8176   46.3671 O   0  0  0  0  0  0  0  0  0  0  0  0
   13.0507   -4.6511   41.9270 C   0  0  1  0  0  0  0  0  0  0  0  0
   12.3511   -4.9616   40.5647 C   0  0  1  0  0  0  0  0  0  0  0  0
   12.6469   -3.7971   39.5751 C   0  0  2  0  0  0  0  0  0  0  0  0
   12.1266   -2.4408   40.1437 C   0  0  1  0  0  0  0  0  0  0  0  0
   12.8189   -2.1245   41.5240 C   0  0  0  0  0  0  0  0  0  0  0  0
   12.5102   -3.3093   42.5305 C   0  0  2  0  0  0  0  0  0  0  0  0
   12.4260   -1.3433   39.1826 N   0  0  0  0  0  0  0  0  0  0  0  0
   13.1603   -3.0026   43.8245 N   0  0  0  0  0  0  0  0  0  0  0  0
   12.8579   -6.1902   40.0106 O   0  0  0  0  0  0  0  0  0  0  0  0
   11.9962   -4.1003   38.3521 O   0  0  0  0  0  0  0  0  0  0  0  0
  1  2  1  0  0  0  0
  1 12  1  1  0  0  0
  1 13  1  0  0  0  0
  2  3  1  0  0  0  0
  2 10  1  1  0  0  0
  4  3  1  1  0  0  0
  4  5  1  0  0  0  0
  4 14  1  0  0  0  0
  5  6  1  0  0  0  0
  5 13  1  6  0  0  0
  6  7  1  0  0  0  0
  6 15  1  1  0  0  0
  7  8  1  0  0  0  0
  7 11  1  6  0  0  0
  8 14  1  0  0  0  0
  8 16  1  1  0  0  0
  9 11  1  0  0  0  0
 17 16  1  6  0  0  0
 17 18  1  0  0  0  0
 17 24  1  0  0  0  0
 18 19  1  0  0  0  0
 18 25  1  6  0  0  0
 19 20  1  0  0  0  0
 19 26  1  1  0  0  0
 20 21  1  0  0  0  0
 20 23  1  6  0  0  0
 21 22  1  1  0  0  0
 21 24  1  0  0  0  0
 22 27  1  0  0  0  0
 28 12  1  1  0  0  0
 28 29  1  0  0  0  0
 28 33  1  0  0  0  0
 29 30  1  0  0  0  0
 29 36  1  6  0  0  0
 30 31  1  0  0  0  0
 30 37  1  6  0  0  0
 31 32  1  0  0  0  0
 31 34  1  6  0  0  0
 32 33  1  0  0  0  0
 33 35  1  1  0  0  0
M  END
>  <CHROM.1>
171.88588203,150.04576501,-174.60167003,-176.07447645,-177.58868142,78.32569833
16.09433957,-5.58742774,44.75590580,2.88427690,-0.82704677,-0.09495300

>  <Name>
2oe8_lig

>  <RI>
0

>  <Rbt.Current_Directory>
/home/itssahil/PROJECTS/Mol_Feturizer/New_Systems/rnas/2oe8

>  <Rbt.Executable>
rbdock ($Id: //depot/dev/client3/rdock/2013.1/src/exe/rbdock.cxx#4 $)

>  <Rbt.Library>
libRbt.so (2013.1, Build901 2013/11/27)

>  <Rbt.Parameter_File>
/export/apps/rDock/src/rDock_2013.1_src/data/scripts/dock_solv.prm

>  <Rbt.Receptor>
prm/blind_docking_100.prm

>  <SCORE>
-21.9186

>  <SCORE.INTER>
-14.5462

>  <SCORE.INTER.CONST>
1

>  <SCORE.INTER.POLAR>
-1.6723

>  <SCORE.INTER.ROT>
6

>  <SCORE.INTER.SOLV>
12.4735

>  <SCORE.INTER.VDW>
-15.8809

>  <SCORE.INTER.norm>
-0.39314

>  <SCORE.INTRA>
-7.37246

>  <SCORE.INTRA.DIHEDRAL>
-13.6474

>  <SCORE.INTRA.DIHEDRAL.0>
16.4056

>  <SCORE.INTRA.POLAR>
0

>  <SCORE.INTRA.POLAR.0>
0

>  <SCORE.INTRA.REPUL>
0

>  <SCORE.INTRA.REPUL.0>
0

>  <SCORE.INTRA.SOLV>
-2.92628

>  <SCORE.INTRA.SOLV.lig_0>
-90.9627

>  <SCORE.INTRA.VDW>
0.914361

>  <SCORE.INTRA.VDW.0>
-3.28744

>  <SCORE.INTRA.norm>
-0.199256

>  <SCORE.RESTR>
0

>  <SCORE.RESTR.CAVITY>
0

>  <SCORE.RESTR.norm>
0

>  <SCORE.SYSTEM>
0

>  <SCORE.SYSTEM.CONST>
0

>  <SCORE.SYSTEM.DIHEDRAL>
0

>  <SCORE.SYSTEM.SOLV>
0

>  <SCORE.SYSTEM.norm>
0

>  <SCORE.heavy>
37

>  <SCORE.norm>
-0.592395

>  <RMSD>
12.437

$$$$
2oe8_lig
 OpenBabel11021811463D
libRbt.so/2013.1/901 2013/11/27
 37 40  0  0  0  0  0  0  0  0999 V2000
   13.5370   -6.9433   42.5540 C   0  0  1  0  0  0  0  0  0  0  0  0
   13.3659   -8.0206   43.6914 C   0  0  1  0  0  0  0  0  0  0  0  0
   13.8612   -7.4334   45.0295 C   0  0  0  0  0  0  0  0  0  0  0  0
   15.3636   -7.0701   44.8132 C   0  0  1  0  0  0  0  0  0  0  0  0
   15.5565   -5.9822   43.6362 C   0  0  1  0  0  0  0  0  0  0  0  0
   17.0543   -5.6285   43.4009 C   0  0  1  0  0  0  0  0  0  0  0  0
   17.6307   -5.0837   44.7713 C   0  0  1  0  0  0  0  0  0  0  0  0
   17.3785   -6.1549   45.8888 C   0  0  2  0  0  0  0  0  0  0  0  0
   19.5569   -3.5599   43.8416 C   0  0  0  0  0  0  0  0  0  0  0  0
   11.9298   -8.4248   43.8199 N   0  0  0  0  0  0  0  0  0  0  0  0
   19.1157   -4.7515   44.6535 N   0  0  0  0  0  0  0  0  0  0  0  0
   12.7562   -5.7700   42.8140 O   0  0  0  0  0  0  0  0  0  0  0  0
   14.9612   -6.5220   42.4058 O   0  0  0  0  0  0  0  0  0  0  0  0
   15.9388   -6.5203   46.0355 O   0  0  0  0  0  0  0  0  0  0  0  0
   17.7065   -6.8253   42.9731 O   0  0  0  0  0  0  0  0  0  0  0  0
   17.8244   -5.6561   47.0968 O   0  0  0  0  0  0  0  0  0  0  0  0
   17.7455   -6.6092   48.1703 C   0  0  2  0  0  0  0  0  0  0  0  0
   18.0555   -5.9220   49.5220 C   0  0  1  0  0  0  0  0  0  0  0  0
   19.5346   -5.4333   49.5978 C   0  0  2  0  0  0  0  0  0  0  0  0
   20.4889   -6.6471   49.3947 C   0  0  1  0  0  0  0  0  0  0  0  0
   20.1708   -7.2489   47.9630 C   0  0  1  0  0  0  0  0  0  0  0  0
   21.0374   -8.4652   47.6490 C   0  0  0  0  0  0  0  0  0  0  0  0
   21.9036   -6.1825   49.4670 N   0  0  0  0  0  0  0  0  0  0  0  0
   18.7328   -7.6946   47.9348 O   0  0  0  0  0  0  0  0  0  0  0  0
   17.1206   -4.8366   49.6736 O   0  0  0  0  0  0  0  0  0  0  0  0
   19.7512   -4.8647   50.8722 O   0  0  0  0  0  0  0  0  0  0  0  0
   20.7781   -9.4778   48.5852 O   0  0  0  0  0  0  0  0  0  0  0  0
   13.0247   -4.7031   41.9277 C   0  0  1  0  0  0  0  0  0  0  0  0
   12.3018   -5.0009   40.5747 C   0  0  1  0  0  0  0  0  0  0  0  0
   12.6152   -3.8477   39.5773 C   0  0  2  0  0  0  0  0  0  0  0  0
   12.1358   -2.4767   40.1466 C   0  0  1  0  0  0  0  0  0  0  0  0
   12.8517   -2.1730   41.5176 C   0  0  0  0  0  0  0  0  0  0  0  0
   12.5250   -3.3461   42.5322 C   0  0  2  0  0  0  0  0  0  0  0  0
   12.4514   -1.3906   39.1779 N   0  0  0  0  0  0  0  0  0  0  0  0
   13.1976   -3.0511   43.8174 N   0  0  0  0  0  0  0  0  0  0  0  0
   12.7711   -6.2438   40.0196 O   0  0  0  0  0  0  0  0  0  0  0  0
   11.9430   -4.1388   38.3630 O   0  0  0  0  0  0  0  0  0  0  0  0
  1  2  1  0  0  0  0
  1 12  1  1  0  0  0
  1 13  1  0  0  0  0
  2  3  1  0  0  0  0
  2 10  1  1  0  0  0
  4  3  1  1  0  0  0
  4  5  1  0  0  0  0
  4 14  1  0  0  0  0
  5  6  1  0  0  0  0
  5 13  1  6  0  0  0
  6  7  1  0  0  0  0
  6 15  1  1  0  0  0
  7  8  1  0  0  0  0
  7 11  1  6  0  0  0
  8 14  1  0  0  0  0
  8 16  1  1  0  0  0
  9 11  1  0  0  0  0
 17 16  1  6  0  0  0
 17 18  1  0  0  0  0
 17 24  1  0  0  0  0
 18 19  1  0  0  0  0
 18 25  1  6  0  0  0
 19 20  1  0  0  0  0
 19 26  1  1  0  0  0
 20 21  1  0  0  0  0
 20 23  1  6  0  0  0
 21 22  1  1  0  0  0
 21 24  1  0  0  0  0
 22 27  1  0  0  0  0
 28 12  1  1  0  0  0
 28 29  1  0  0  0  0
 28 33  1  0  0  0  0
 29 30  1  0  0  0  0
 29 36  1  6  0  0  0
 30 31  1  0  0  0  0
 30 37  1  6  0  0  0
 31 32  1  0  0  0  0
 31 34  1  6  0  0  0
 32 33  1  0  0  0  0
 33 35  1  1  0  0  0
M  END
>  <CHROM.1>
171.31869144,70.62992151,-174.87661846,-171.46869922,61.57814805,77.66913482
16.10126031,-5.69818739,44.72111666,2.65149671,-0.73740674,-0.39282638

>  <Name>
2oe8_lig

>  <RI>
0

>  <Rbt.Current_Directory>
/home/itssahil/PROJECTS/Mol_Feturizer/New_Systems/rnas/2oe8

>  <Rbt.Executable>
rbdock ($Id: //depot/dev/client3/rdock/2013.1/src/exe/rbdock.cxx#4 $)

>  <Rbt.Library>
libRbt.so (2013.1, Build901 2013/11/27)

>  <Rbt.Parameter_File>
/export/apps/rDock/src/rDock_2013.1_src/data/scripts/dock_solv.prm

>  <Rbt.Receptor>
prm/blind_docking_100.prm

>  <SCORE>
-22.2526

>  <SCORE.INTER>
-15.5753

>  <SCORE.INTER.CONST>
1

>  <SCORE.INTER.POLAR>
-1.67615

>  <SCORE.INTER.ROT>
6

>  <SCORE.INTER.SOLV>
12.2168

>  <SCORE.INTER.VDW>
-16.4686

>  <SCORE.INTER.norm>
-0.420955

>  <SCORE.INTRA>
-6.67731

>  <SCORE.INTRA.DIHEDRAL>
-13.9576

>  <SCORE.INTRA.DIHEDRAL.0>
16.4056

>  <SCORE.INTRA.POLAR>
0

>  <SCORE.INTRA.POLAR.0>
0

>  <SCORE.INTRA.REPUL>
0

>  <SCORE.INTRA.REPUL.0>
0

>  <SCORE.INTRA.SOLV>
-2.29393

>  <SCORE.INTRA.SOLV.lig_0>
-90.9627

>  <SCORE.INTRA.VDW>
1.44844

>  <SCORE.INTRA.VDW.0>
-3.28744

>  <SCORE.INTRA.norm>
-0.180468

>  <SCORE.RESTR>
0

>  <SCORE.RESTR.CAVITY>
0

>  <SCORE.RESTR.norm>
0

>  <SCORE.SYSTEM>
0

>  <SCORE.SYSTEM.CONST>
0

>  <SCORE.SYSTEM.DIHEDRAL>
0

>  <SCORE.SYSTEM.SOLV>
0

>  <SCORE.SYSTEM.norm>
0

>  <SCORE.heavy>
37

>  <SCORE.norm>
-0.601423

>  <RMSD>
12.525

$$$$
2oe8_lig
 OpenBabel11021811463D
libRbt.so/2013.1/901 2013/11/27
 37 40  0  0  0  0  0  0  0  0999 V2000
   13.8431   -7.2856   43.2939 C   0  0  1  0  0  0  0  0  0  0  0  0
   13.7905   -7.6142   44.8343 C   0  0  1  0  0  0  0  0  0  0  0  0
   14.4788   -6.4801   45.6221 C   0  0  0  0  0  0  0  0  0  0  0  0
   15.9499   -6.4239   45.1037 C   0  0  1  0  0  0  0  0  0  0  0  0
   16.0192   -6.1085   43.5220 C   0  0  1  0  0  0  0  0  0  0  0  0
   17.4829   -6.0697   42.9929 C   0  0  1  0  0  0  0  0  0  0  0  0
   18.2546   -4.9634   43.8221 C   0  0  1  0  0  0  0  0  0  0  0  0
   18.1191   -5.2890   45.3503 C   0  0  2  0  0  0  0  0  0  0  0  0
   20.5721   -3.7292   43.8737 C   0  0  0  0  0  0  0  0  0  0  0  0
   12.3720   -7.7564   45.2926 N   0  0  0  0  0  0  0  0  0  0  0  0
   19.7206   -4.8822   43.4053 N   0  0  0  0  0  0  0  0  0  0  0  0
   13.1427   -6.0736   42.9866 O   0  0  0  0  0  0  0  0  0  0  0  0
   15.2477   -7.1376   42.8113 O   0  0  0  0  0  0  0  0  0  0  0  0
   16.7008   -5.3884   45.8044 O   0  0  0  0  0  0  0  0  0  0  0  0
   18.0328   -7.3745   43.1821 O   0  0  0  0  0  0  0  0  0  0  0  0
   18.7383   -4.2918   46.0778 O   0  0  0  0  0  0  0  0  0  0  0  0
   18.4996   -4.3872   47.4923 C   0  0  2  0  0  0  0  0  0  0  0  0
   18.4768   -2.9766   48.1290 C   0  0  1  0  0  0  0  0  0  0  0  0
   19.8730   -2.2856   48.0570 C   0  0  2  0  0  0  0  0  0  0  0  0
   20.9250   -3.1735   48.7852 C   0  0  1  0  0  0  0  0  0  0  0  0
   20.9512   -4.5684   48.0323 C   0  0  1  0  0  0  0  0  0  0  0  0
   21.9408   -5.5416   48.6667 C   0  0  0  0  0  0  0  0  0  0  0  0
   22.2607   -2.5149   48.7179 N   0  0  0  0  0  0  0  0  0  0  0  0
   19.5823   -5.1897   48.1185 O   0  0  0  0  0  0  0  0  0  0  0  0
   17.4627   -2.2158   47.4450 O   0  0  0  0  0  0  0  0  0  0  0  0
   19.7827   -1.0306   48.6982 O   0  0  0  0  0  0  0  0  0  0  0  0
   21.9709   -6.7298   47.9208 O   0  0  0  0  0  0  0  0  0  0  0  0
   13.1520   -5.7470   41.6122 C   0  0  1  0  0  0  0  0  0  0  0  0
   12.1302   -6.6781   40.8838 C   0  0  1  0  0  0  0  0  0  0  0  0
   12.1532   -6.3502   39.3623 C   0  0  2  0  0  0  0  0  0  0  0  0
   11.7839   -4.8555   39.1116 C   0  0  1  0  0  0  0  0  0  0  0  0
   12.8032   -3.9083   39.8523 C   0  0  0  0  0  0  0  0  0  0  0  0
   12.7721   -4.2410   41.4017 C   0  0  2  0  0  0  0  0  0  0  0  0
   11.8182   -4.5658   37.6513 N   0  0  0  0  0  0  0  0  0  0  0  0
   13.7288   -3.3450   42.0896 N   0  0  0  0  0  0  0  0  0  0  0  0
   12.4891   -8.0596   41.0729 O   0  0  0  0  0  0  0  0  0  0  0  0
   11.2142   -7.2025   38.7275 O   0  0  0  0  0  0  0  0  0  0  0  0
  1  2  1  0  0  0  0
  1 12  1  1  0  0  0
  1 13  1  0  0  0  0
  2  3  1  0  0  0  0
  2 10  1  1  0  0  0
  4  3  1  1  0  0  0
  4  5  1  0  0  0  0
  4 14  1  0  0  0  0
  5  6  1  0  0  0  0
  5 13  1  6  0  0  0
  6  7  1  0  0  0  0
  6 15  1  1  0  0  0
  7  8  1  0  0  0  0
  7 11  1  6  0  0  0
  8 14  1  0  0  0  0
  8 16  1  1  0  0  0
  9 11  1  0  0  0  0
 17 16  1  6  0  0  0
 17 18  1  0  0  0  0
 17 24  1  0  0  0  0
 18 19  1  0  0  0  0
 18 25  1  6  0  0  0
 19 20  1  0  0  0  0
 19 26  1  1  0  0  0
 20 21  1  0  0  0  0
 20 23  1  6  0  0  0
 21 22  1  1  0  0  0
 21 24  1  0  0  0  0
 22 27  1  0  0  0  0
 28 12  1  1  0  0  0
 28 29  1  0  0  0  0
 28 33  1  0  0  0  0
 29 30  1  0  0  0  0
 29 36  1  6  0  0  0
 30 31  1  0  0  0  0
 30 37  1  6  0  0  0
 31 32  1  0  0  0  0
 31 34  1  6  0  0  0
 32 33  1  0  0  0  0
 33 35  1  1  0  0  0
M  END
>  <CHROM.1>
-179.37219910,168.40208876,171.17458152,-148.05682831,-177.02036040,76.09407721
16.47030233,-5.21016953,44.34153328,3.06345884,-0.75926275,-0.41019094

>  <Name>
2oe8_lig

>  <RI>
0

>  <Rbt.Current_Directory>
/home/itssahil/PROJECTS/Mol_Feturizer/New_Systems/rnas/2oe8

>  <Rbt.Executable>
rbdock ($Id: //depot/dev/client3/rdock/2013.1/src/exe/rbdock.cxx#4 $)

>  <Rbt.Library>
libRbt.so (2013.1, Build901 2013/11/27)

>  <Rbt.Parameter_File>
/export/apps/rDock/src/rDock_2013.1_src/data/scripts/dock_solv.prm

>  <Rbt.Receptor>
prm/blind_docking_100.prm

>  <SCORE>
-14.456

>  <SCORE.INTER>
-9.36964

>  <SCORE.INTER.CONST>
1

>  <SCORE.INTER.POLAR>
-1.15513

>  <SCORE.INTER.ROT>
6

>  <SCORE.INTER.SOLV>
13.4997

>  <SCORE.INTER.VDW>
-14.4959

>  <SCORE.INTER.norm>
-0.253233

>  <SCORE.INTRA>
-5.08641

>  <SCORE.INTRA.DIHEDRAL>
-10.6494

>  <SCORE.INTRA.DIHEDRAL.0>
16.4056

>  <SCORE.INTRA.POLAR>
0

>  <SCORE.INTRA.POLAR.0>
0

>  <SCORE.INTRA.REPUL>
0

>  <SCORE.INTRA.REPUL.0>
0

>  <SCORE.INTRA.SOLV>
-3.05828

>  <SCORE.INTRA.SOLV.lig_0>
-90.9627

>  <SCORE.INTRA.VDW>
1.76741

>  <SCORE.INTRA.VDW.0>
-3.28744

>  <SCORE.INTRA.norm>
-0.137471

>  <SCORE.RESTR>
0

>  <SCORE.RESTR.CAVITY>
0

>  <SCORE.RESTR.norm>
0

>  <SCORE.SYSTEM>
0

>  <SCORE.SYSTEM.CONST>
0

>  <SCORE.SYSTEM.DIHEDRAL>
0

>  <SCORE.SYSTEM.SOLV>
0

>  <SCORE.SYSTEM.norm>
0

>  <SCORE.heavy>
37

>  <SCORE.norm>
-0.390704

>  <RMSD>
12.769

$$$$
2oe8_lig
 OpenBabel11021811463D
libRbt.so/2013.1/901 2013/11/27
 37 40  0  0  0  0  0  0  0  0999 V2000
   12.6770   -4.3678   42.9149 C   0  0  1  0  0  0  0  0  0  0  0  0
   12.9619   -2.8652   43.2949 C   0  0  1  0  0  0  0  0  0  0  0  0
   14.4672   -2.6882   43.5839 C   0  0  0  0  0  0  0  0  0  0  0  0
   14.7955   -3.6461   44.7715 C   0  0  1  0  0  0  0  0  0  0  0  0
   14.4890   -5.1878   44.4040 C   0  0  1  0  0  0  0  0  0  0  0  0
   14.7959   -6.1482   45.5903 C   0  0  1  0  0  0  0  0  0  0  0  0
   16.3199   -5.9528   45.9727 C   0  0  1  0  0  0  0  0  0  0  0  0
   16.5758   -4.4354   46.2756 C   0  0  2  0  0  0  0  0  0  0  0  0
   17.0081   -8.2873   46.9592 C   0  0  0  0  0  0  0  0  0  0  0  0
   12.5532   -1.9547   42.1786 N   0  0  0  0  0  0  0  0  0  0  0  0
   16.7069   -6.8241   47.1645 N   0  0  0  0  0  0  0  0  0  0  0  0
   13.3823   -4.7572   41.7296 O   0  0  0  0  0  0  0  0  0  0  0  0
   13.0769   -5.2974   44.0119 O   0  0  0  0  0  0  0  0  0  0  0  0
   16.2026   -3.5407   45.1407 O   0  0  0  0  0  0  0  0  0  0  0  0
   13.9164   -5.7916   46.6580 O   0  0  0  0  0  0  0  0  0  0  0  0
   17.9171   -4.2527   46.5486 O   0  0  0  0  0  0  0  0  0  0  0  0
   18.1951   -3.0232   47.2398 C   0  0  2  0  0  0  0  0  0  0  0  0
   19.6704   -2.6079   47.0240 C   0  0  1  0  0  0  0  0  0  0  0  0
   20.6588   -3.6134   47.6904 C   0  0  2  0  0  0  0  0  0  0  0  0
   20.3552   -3.6998   49.2153 C   0  0  1  0  0  0  0  0  0  0  0  0
   18.8598   -4.2059   49.3597 C   0  0  1  0  0  0  0  0  0  0  0  0
   18.4328   -4.3175   50.8206 C   0  0  0  0  0  0  0  0  0  0  0  0
   21.2991   -4.6604   49.8548 N   0  0  0  0  0  0  0  0  0  0  0  0
   17.9467   -3.2114   48.6928 O   0  0  0  0  0  0  0  0  0  0  0  0
   19.8817   -2.5057   45.6028 O   0  0  0  0  0  0  0  0  0  0  0  0
   21.9752   -3.1418   47.4923 O   0  0  0  0  0  0  0  0  0  0  0  0
   18.3607   -3.0350   51.3855 O   0  0  0  0  0  0  0  0  0  0  0  0
   12.8512   -4.1992   40.5454 C   0  0  1  0  0  0  0  0  0  0  0  0
   13.9551   -4.2599   39.4411 C   0  0  1  0  0  0  0  0  0  0  0  0
   13.3934   -3.6190   38.1385 C   0  0  2  0  0  0  0  0  0  0  0  0
   12.1158   -4.3730   37.6560 C   0  0  1  0  0  0  0  0  0  0  0  0
   11.0001   -4.3266   38.7686 C   0  0  0  0  0  0  0  0  0  0  0  0
   11.5737   -4.9856   40.0910 C   0  0  2  0  0  0  0  0  0  0  0  0
   11.5952   -3.7385   36.4134 N   0  0  0  0  0  0  0  0  0  0  0  0
   10.5190   -4.9414   41.1287 N   0  0  0  0  0  0  0  0  0  0  0  0
   15.1224   -3.5285   39.8599 O   0  0  0  0  0  0  0  0  0  0  0  0
   14.4105   -3.6933   37.1531 O   0  0  0  0  0  0  0  0  0  0  0  0
  1  2  1  0  0  0  0
  1 12  1  6  0  0  0
  1 13  1  0  0  0  0
  2  3  1  0  0  0  0
  2 10  1  6  0  0  0
  4  3  1  6  0  0  0
  4  5  1  0  0  0  0
  4 14  1  0  0  0  0
  5  6  1  0  0  0  0
  5 13  1  1  0  0  0
  6  7  1  0  0  0  0
  6 15  1  1  0  0  0
  7  8  1  0  0  0  0
  7 11  1  1  0  0  0
  8 14  1  0  0  0  0
  8 16  1  6  0  0  0
  9 11  1  0  0  0  0
 17 16  1  6  0  0  0
 17 18  1  0  0  0  0
 17 24  1  0  0  0  0
 18 19  1  0  0  0  0
 18 25  1  6  0  0  0
 19 20  1  0  0  0  0
 19 26  1  1  0  0  0
 20 21  1  0  0  0  0
 20 23  1  1  0  0  0
 21 22  1  1  0  0  0
 21 24  1  0  0  0  0
 22 27  1  0  0  0  0
 28 12  1  1  0  0  0
 28 29  1  0  0  0  0
 28 33  1  0  0  0  0
 29 30  1  0  0  0  0
 29 36  1  1  0  0  0
 30 31  1  0  0  0  0
 30 37  1  6  0  0  0
 31 32  1  0  0  0  0
 31 34  1  6  0  0  0
 32 33  1  0  0  0  0
 33 35  1  1  0  0  0
M  END
>  <CHROM.1>
-72.59616316,79.95918112,-161.43326607,-157.62691633,67.73340139,159.95556261
15.71995638,-4.20286780,44.38294983,2.26598465,-0.41576734,-1.25426383

>  <Name>
2oe8_lig

>  <RI>
0

>  <Rbt.Current_Directory>
/home/itssahil/PROJECTS/Mol_Feturizer/New_Systems/rnas/2oe8

>  <Rbt.Executable>
rbdock ($Id: //depot/dev/client3/rdock/2013.1/src/exe/rbdock.cxx#4 $)

>  <Rbt.Library>
libRbt.so (2013.1, Build901 2013/11/27)

>  <Rbt.Parameter_File>
/export/apps/rDock/src/rDock_2013.1_src/data/scripts/dock_solv.prm

>  <Rbt.Receptor>
prm/blind_docking_100.prm

>  <SCORE>
-22.0517

>  <SCORE.INTER>
-18.7314

>  <SCORE.INTER.CONST>
1

>  <SCORE.INTER.POLAR>
-1.8771

>  <SCORE.INTER.ROT>
6

>  <SCORE.INTER.SOLV>
15.055

>  <SCORE.INTER.VDW>
-18.8489

>  <SCORE.INTER.norm>
-0.506254

>  <SCORE.INTRA>
-3.32033

>  <SCORE.INTRA.DIHEDRAL>
-9.5127

>  <SCORE.INTRA.DIHEDRAL.0>
16.4056

>  <SCORE.INTRA.POLAR>
0

>  <SCORE.INTRA.POLAR.0>
0

>  <SCORE.INTRA.REPUL>
0

>  <SCORE.INTRA.REPUL.0>
0

>  <SCORE.INTRA.SOLV>
1.6122

>  <SCORE.INTRA.SOLV.lig_0>
-90.9627

>  <SCORE.INTRA.VDW>
0.629916

>  <SCORE.INTRA.VDW.0>
-3.28744

>  <SCORE.INTRA.norm>
-0.0897387

>  <SCORE.RESTR>
0

>  <SCORE.RESTR.CAVITY>
0

>  <SCORE.RESTR.norm>
0

>  <SCORE.SYSTEM>
0

>  <SCORE.SYSTEM.CONST>
0

>  <SCORE.SYSTEM.DIHEDRAL>
0

>  <SCORE.SYSTEM.SOLV>
0

>  <SCORE.SYSTEM.norm>
0

>  <SCORE.heavy>
37

>  <SCORE.norm>
-0.595993

>  <RMSD>
13.035

$$$$
2oe8_lig
 OpenBabel11021811463D
libRbt.so/2013.1/901 2013/11/27
 37 40  0  0  0  0  0  0  0  0999 V2000
   15.1838   -3.1043   40.3300 C   0  0  1  0  0  0  0  0  0  0  0  0
   16.5569   -2.3956   40.0206 C   0  0  1  0  0  0  0  0  0  0  0  0
   17.6947   -3.1515   40.7379 C   0  0  0  0  0  0  0  0  0  0  0  0
   17.3581   -3.0965   42.2609 C   0  0  1  0  0  0  0  0  0  0  0  0
   15.9435   -3.8009   42.5907 C   0  0  1  0  0  0  0  0  0  0  0  0
   15.5911   -3.7334   44.1057 C   0  0  1  0  0  0  0  0  0  0  0  0
   16.7687   -4.4382   44.8953 C   0  0  1  0  0  0  0  0  0  0  0  0
   18.1230   -3.7492   44.5067 C   0  0  2  0  0  0  0  0  0  0  0  0
   16.6172   -5.6432   47.2237 C   0  0  0  0  0  0  0  0  0  0  0  0
   16.8170   -2.3758   38.5461 N   0  0  0  0  0  0  0  0  0  0  0  0
   16.5356   -4.3811   46.4025 N   0  0  0  0  0  0  0  0  0  0  0  0
   15.1635   -4.4535   39.8470 O   0  0  0  0  0  0  0  0  0  0  0  0
   14.9007   -3.1382   41.7951 O   0  0  0  0  0  0  0  0  0  0  0  0
   18.3911   -3.7712   43.0386 O   0  0  0  0  0  0  0  0  0  0  0  0
   15.4579   -2.3522   44.4450 O   0  0  0  0  0  0  0  0  0  0  0  0
   19.1580   -4.4024   45.1463 O   0  0  0  0  0  0  0  0  0  0  0  0
   20.1608   -3.5111   45.6629 C   0  0  2  0  0  0  0  0  0  0  0  0
   21.5406   -4.2121   45.6876 C   0  0  1  0  0  0  0  0  0  0  0  0
   21.5708   -5.3962   46.7020 C   0  0  2  0  0  0  0  0  0  0  0  0
   21.2264   -4.8644   48.1246 C   0  0  1  0  0  0  0  0  0  0  0  0
   19.7738   -4.2349   48.0421 C   0  0  1  0  0  0  0  0  0  0  0  0
   19.3236   -3.6591   49.3818 C   0  0  0  0  0  0  0  0  0  0  0  0
   21.2549   -5.9947   49.0963 N   0  0  0  0  0  0  0  0  0  0  0  0
   19.7919   -3.1071   47.0445 O   0  0  0  0  0  0  0  0  0  0  0  0
   21.8231   -4.6462   44.3435 O   0  0  0  0  0  0  0  0  0  0  0  0
   22.8699   -5.9501   46.7017 O   0  0  0  0  0  0  0  0  0  0  0  0
   18.0054   -3.1913   49.2701 O   0  0  0  0  0  0  0  0  0  0  0  0
   13.9267   -5.1071   40.0443 C   0  0  1  0  0  0  0  0  0  0  0  0
   12.9432   -4.6360   38.9252 C   0  0  1  0  0  0  0  0  0  0  0  0
   11.5655   -5.3250   39.1492 C   0  0  2  0  0  0  0  0  0  0  0  0
   11.7098   -6.8778   39.1119 C   0  0  1  0  0  0  0  0  0  0  0  0
   12.7092   -7.3616   40.2308 C   0  0  0  0  0  0  0  0  0  0  0  0
   14.1122   -6.6627   39.9955 C   0  0  2  0  0  0  0  0  0  0  0  0
   10.3812   -7.5129   39.3339 N   0  0  0  0  0  0  0  0  0  0  0  0
   15.0451   -7.1252   41.0476 N   0  0  0  0  0  0  0  0  0  0  0  0
   12.7696   -3.2077   38.9804 O   0  0  0  0  0  0  0  0  0  0  0  0
   10.6961   -4.8864   38.1183 O   0  0  0  0  0  0  0  0  0  0  0  0
  1  2  1  0  0  0  0
  1 12  1  1  0  0  0
  1 13  1  0  0  0  0
  2  3  1  0  0  0  0
  2 10  1  6  0  0  0
  4  3  1  6  0  0  0
  4  5  1  0  0  0  0
  4 14  1  0  0  0  0
  5  6  1  0  0  0  0
  5 13  1  6  0  0  0
  6  7  1  0  0  0  0
  6 15  1  1  0  0  0
  7  8  1  0  0  0  0
  7 11  1  1  0  0  0
  8 14  1  0  0  0  0
  8 16  1  1  0  0  0
  9 11  1  0  0  0  0
 17 16  1  1  0  0  0
 17 18  1  0  0  0  0
 17 24  1  0  0  0  0
 18 19  1  0  0  0  0
 18 25  1  6  0  0  0
 19 20  1  0  0  0  0
 19 26  1  1  0  0  0
 20 21  1  0  0  0  0
 20 23  1  1  0  0  0
 21 22  1  1  0  0  0
 21 24  1  0  0  0  0
 22 27  1  0  0  0  0
 28 12  1  6  0  0  0
 28 29  1  0  0  0  0
 28 33  1  0  0  0  0
 29 30  1  0  0  0  0
 29 36  1  1  0  0  0
 30 31  1  0  0  0  0
 30 37  1  6  0  0  0
 31 32  1  0  0  0  0
 31 34  1  1  0  0  0
 32 33  1  0  0  0  0
 33 35  1  1  0  0  0
M  END
>  <CHROM.1>
-177.06045061,128.57394192,-139.16123606,-150.88325385,-176.43186701,79.51810771
16.76145507,-4.45265573,43.29572430,-2.39552262,0.37568157,1.86612225

>  <Name>
2oe8_lig

>  <RI>
0

>  <Rbt.Current_Directory>
/home/itssahil/PROJECTS/Mol_Feturizer/New_Systems/rnas/2oe8

>  <Rbt.Executable>
rbdock ($Id: //depot/dev/client3/rdock/2013.1/src/exe/rbdock.cxx#4 $)

>  <Rbt.Library>
libRbt.so (2013.1, Build901 2013/11/27)

>  <Rbt.Parameter_File>
/export/apps/rDock/src/rDock_2013.1_src/data/scripts/dock_solv.prm

>  <Rbt.Receptor>
prm/blind_docking_100.prm

>  <SCORE>
-27.12

>  <SCORE.INTER>
-23.6994

>  <SCORE.INTER.CONST>
1

>  <SCORE.INTER.POLAR>
-2.88153

>  <SCORE.INTER.ROT>
6

>  <SCORE.INTER.SOLV>
14.4324

>  <SCORE.INTER.VDW>
-18.6053

>  <SCORE.INTER.norm>
-0.640525

>  <SCORE.INTRA>
-3.42055

>  <SCORE.INTRA.DIHEDRAL>
-4.4757

>  <SCORE.INTRA.DIHEDRAL.0>
16.4056

>  <SCORE.INTRA.POLAR>
0

>  <SCORE.INTRA.POLAR.0>
0

>  <SCORE.INTRA.REPUL>
0

>  <SCORE.INTRA.REPUL.0>
0

>  <SCORE.INTRA.SOLV>
-1.51476

>  <SCORE.INTRA.SOLV.lig_0>
-90.9627

>  <SCORE.INTRA.VDW>
-0.425324

>  <SCORE.INTRA.VDW.0>
-3.28744

>  <SCORE.INTRA.norm>
-0.0924473

>  <SCORE.RESTR>
0

>  <SCORE.RESTR.CAVITY>
0

>  <SCORE.RESTR.norm>
0

>  <SCORE.SYSTEM>
0

>  <SCORE.SYSTEM.CONST>
0

>  <SCORE.SYSTEM.DIHEDRAL>
0

>  <SCORE.SYSTEM.SOLV>
0

>  <SCORE.SYSTEM.norm>
0

>  <SCORE.heavy>
37

>  <SCORE.norm>
-0.732973

>  <RMSD>
13.078

$$$$
2oe8_lig
 OpenBabel11021811463D
libRbt.so/2013.1/901 2013/11/27
 37 40  0  0  0  0  0  0  0  0999 V2000
   15.0257   -3.2431   39.8302 C   0  0  1  0  0  0  0  0  0  0  0  0
   16.5963   -3.2742   39.7047 C   0  0  1  0  0  0  0  0  0  0  0  0
   17.1519   -4.4488   40.5366 C   0  0  0  0  0  0  0  0  0  0  0  0
   16.7052   -4.1861   42.0088 C   0  0  1  0  0  0  0  0  0  0  0  0
   15.0980   -4.1310   42.1496 C   0  0  1  0  0  0  0  0  0  0  0  0
   14.6443   -3.8501   43.6122 C   0  0  1  0  0  0  0  0  0  0  0  0
   15.2503   -4.9957   44.5218 C   0  0  1  0  0  0  0  0  0  0  0  0
   16.8044   -5.0382   44.3150 C   0  0  2  0  0  0  0  0  0  0  0  0
   15.2520   -5.8324   47.0111 C   0  0  0  0  0  0  0  0  0  0  0  0
   17.0056   -3.4333   38.2731 N   0  0  0  0  0  0  0  0  0  0  0  0
   14.8970   -4.7803   45.9909 N   0  0  0  0  0  0  0  0  0  0  0  0
   14.4297   -4.4416   39.3178 O   0  0  0  0  0  0  0  0  0  0  0  0
   14.5908   -3.0861   41.2493 O   0  0  0  0  0  0  0  0  0  0  0  0
   17.2003   -5.2377   42.8898 O   0  0  0  0  0  0  0  0  0  0  0  0
   15.1380   -2.5567   43.9642 O   0  0  0  0  0  0  0  0  0  0  0  0
   17.3275   -6.0769   45.0597 O   0  0  0  0  0  0  0  0  0  0  0  0
   18.7297   -6.2939   44.8277 C   0  0  2  0  0  0  0  0  0  0  0  0
   19.3568   -7.0653   46.0140 C   0  0  1  0  0  0  0  0  0  0  0  0
   19.3471   -6.2204   47.3247 C   0  0  2  0  0  0  0  0  0  0  0  0
   20.1290   -4.8945   47.0884 C   0  0  1  0  0  0  0  0  0  0  0  0
   19.3859   -4.1232   45.9196 C   0  0  1  0  0  0  0  0  0  0  0  0
   20.0717   -2.8029   45.5798 C   0  0  0  0  0  0  0  0  0  0  0  0
   20.1214   -4.0850   48.3402 N   0  0  0  0  0  0  0  0  0  0  0  0
   19.4108   -4.9811   44.6823 O   0  0  0  0  0  0  0  0  0  0  0  0
   18.6215   -8.2953   46.1599 O   0  0  0  0  0  0  0  0  0  0  0  0
   19.9764   -6.9700   48.3427 O   0  0  0  0  0  0  0  0  0  0  0  0
   19.4291   -2.2118   44.4813 O   0  0  0  0  0  0  0  0  0  0  0  0
   13.0231   -4.3715   39.2060 C   0  0  1  0  0  0  0  0  0  0  0  0
   12.6765   -3.7038   37.8365 C   0  0  1  0  0  0  0  0  0  0  0  0
   11.1288   -3.5914   37.7138 C   0  0  2  0  0  0  0  0  0  0  0  0
   10.4620   -4.9988   37.8037 C   0  0  1  0  0  0  0  0  0  0  0  0
   10.8155   -5.6851   39.1781 C   0  0  0  0  0  0  0  0  0  0  0  0
   12.3917   -5.8032   39.2962 C   0  0  2  0  0  0  0  0  0  0  0  0
    8.9833   -4.8643   37.6895 N   0  0  0  0  0  0  0  0  0  0  0  0
   12.7146   -6.4518   40.5871 N   0  0  0  0  0  0  0  0  0  0  0  0
   13.2513   -2.3857   37.7627 O   0  0  0  0  0  0  0  0  0  0  0  0
   10.8421   -2.9899   36.4620 O   0  0  0  0  0  0  0  0  0  0  0  0
  1  2  1  0  0  0  0
  1 12  1  1  0  0  0
  1 13  1  0  0  0  0
  2  3  1  0  0  0  0
  2 10  1  6  0  0  0
  4  3  1  6  0  0  0
  4  5  1  0  0  0  0
  4 14  1  0  0  0  0
  5  6  1  0  0  0  0
  5 13  1  6  0  0  0
  6  7  1  0  0  0  0
  6 15  1  1  0  0  0
  7  8  1  0  0  0  0
  7 11  1  1  0  0  0
  8 14  1  0  0  0  0
  8 16  1  1  0  0  0
  9 11  1  0  0  0  0
 17 16  1  1  0  0  0
 17 18  1  0  0  0  0
 17 24  1  0  0  0  0
 18 19  1  0  0  0  0
 18 25  1  1  0  0  0
 19 20  1  0  0  0  0
 19 26  1  1  0  0  0
 20 21  1  0  0  0  0
 20 23  1  1  0  0  0
 21 22  1  6  0  0  0
 21 24  1  0  0  0  0
 22 27  1  0  0  0  0
 28 12  1  6  0  0  0
 28 29  1  0  0  0  0
 28 33  1  0  0  0  0
 29 30  1  0  0  0  0
 29 36  1  1  0  0  0
 30 31  1  0  0  0  0
 30 37  1  6  0  0  0
 31 32  1  0  0  0  0
 31 34  1  1  0  0  0
 32 33  1  0  0  0  0
 33 35  1  1  0  0  0
M  END
>  <CHROM.1>
-170.18006548,173.60762205,173.66474376,159.05306397,175.89485469,84.95631426
15.81039260,-4.62627761,42.53210639,-2.36923615,0.44931417,2.14531776

>  <Name>
2oe8_lig

>  <RI>
0

>  <Rbt.Current_Directory>
/home/itssahil/PROJECTS/Mol_Feturizer/New_Systems/rnas/2oe8

>  <Rbt.Executable>
rbdock ($Id: //depot/dev/client3/rdock/2013.1/src/exe/rbdock.cxx#4 $)

>  <Rbt.Library>
libRbt.so (2013.1, Build901 2013/11/27)

>  <Rbt.Parameter_File>
/export/apps/rDock/src/rDock_2013.1_src/data/scripts/dock_solv.prm

>  <Rbt.Receptor>
prm/blind_docking_100.prm

>  <SCORE>
-22.2969

>  <SCORE.INTER>
-17.7337

>  <SCORE.INTER.CONST>
1

>  <SCORE.INTER.POLAR>
-2.82852

>  <SCORE.INTER.ROT>
6

>  <SCORE.INTER.SOLV>
11.0551

>  <SCORE.INTER.VDW>
-13.6791

>  <SCORE.INTER.norm>
-0.47929

>  <SCORE.INTRA>
-4.56314

>  <SCORE.INTRA.DIHEDRAL>
-10.9677

>  <SCORE.INTRA.DIHEDRAL.0>
16.4056

>  <SCORE.INTRA.POLAR>
0

>  <SCORE.INTRA.POLAR.0>
0

>  <SCORE.INTRA.REPUL>
0

>  <SCORE.INTRA.REPUL.0>
0

>  <SCORE.INTRA.SOLV>
-1.92173

>  <SCORE.INTRA.SOLV.lig_0>
-90.9627

>  <SCORE.INTRA.VDW>
1.88157

>  <SCORE.INTRA.VDW.0>
-3.28744

>  <SCORE.INTRA.norm>
-0.123328

>  <SCORE.RESTR>
0

>  <SCORE.RESTR.CAVITY>
0

>  <SCORE.RESTR.norm>
0

>  <SCORE.SYSTEM>
0

>  <SCORE.SYSTEM.CONST>
0

>  <SCORE.SYSTEM.DIHEDRAL>
0

>  <SCORE.SYSTEM.SOLV>
0

>  <SCORE.SYSTEM.norm>
0

>  <SCORE.heavy>
37

>  <SCORE.norm>
-0.602618

>  <RMSD>
13.744

$$$$
2oe8_lig
 OpenBabel11021811463D
libRbt.so/2013.1/901 2013/11/27
 37 40  0  0  0  0  0  0  0  0999 V2000
   11.1399  -10.2726   29.6451 C   0  0  1  0  0  0  0  0  0  0  0  0
   11.3716  -11.3263   30.7939 C   0  0  1  0  0  0  0  0  0  0  0  0
   12.8549  -11.3016   31.2178 C   0  0  0  0  0  0  0  0  0  0  0  0
   13.6761  -11.6642   29.9410 C   0  0  1  0  0  0  0  0  0  0  0  0
   13.4328  -10.6045   28.7477 C   0  0  1  0  0  0  0  0  0  0  0  0
   14.2338  -10.9697   27.4636 C   0  0  1  0  0  0  0  0  0  0  0  0
   15.7648  -11.0261   27.8632 C   0  0  1  0  0  0  0  0  0  0  0  0
   15.9412  -12.0323   29.0533 C   0  0  2  0  0  0  0  0  0  0  0  0
   15.9898  -11.9817   25.4275 C   0  0  0  0  0  0  0  0  0  0  0  0
   10.5054  -11.0145   31.9749 N   0  0  0  0  0  0  0  0  0  0  0  0
   16.6326  -11.4252   26.6728 N   0  0  0  0  0  0  0  0  0  0  0  0
   11.4311   -8.9393   30.0828 O   0  0  0  0  0  0  0  0  0  0  0  0
   11.9934  -10.5605   28.4551 O   0  0  0  0  0  0  0  0  0  0  0  0
   15.1034  -11.6887   30.2398 O   0  0  0  0  0  0  0  0  0  0  0  0
   13.7433  -12.2313   27.0070 O   0  0  0  0  0  0  0  0  0  0  0  0
   17.2657  -12.0364   29.4444 O   0  0  0  0  0  0  0  0  0  0  0  0
   17.7763  -10.7251   29.7388 C   0  0  2  0  0  0  0  0  0  0  0  0
   19.2839  -10.8007   30.0812 C   0  0  1  0  0  0  0  0  0  0  0  0
   19.5385  -11.5799   31.4078 C   0  0  2  0  0  0  0  0  0  0  0  0
   18.7704  -10.8831   32.5696 C   0  0  1  0  0  0  0  0  0  0  0  0
   17.2319  -10.9139   32.1888 C   0  0  1  0  0  0  0  0  0  0  0  0
   16.3668  -10.2405   33.2505 C   0  0  0  0  0  0  0  0  0  0  0  0
   19.0125  -11.6262   33.8393 N   0  0  0  0  0  0  0  0  0  0  0  0
   17.0383  -10.1614   30.8990 O   0  0  0  0  0  0  0  0  0  0  0  0
   19.9462  -11.4152   28.9593 O   0  0  0  0  0  0  0  0  0  0  0  0
   20.9250  -11.5630   31.6754 O   0  0  0  0  0  0  0  0  0  0  0  0
   16.4609  -10.9572   34.4533 O   0  0  0  0  0  0  0  0  0  0  0  0
   11.3598   -7.9765   29.0514 C   0  0  1  0  0  0  0  0  0  0  0  0
   12.6571   -8.0911   28.1881 C   0  0  1  0  0  0  0  0  0  0  0  0
   12.6063   -7.0137   27.0658 C   0  0  2  0  0  0  0  0  0  0  0  0
   11.3482   -7.2108   26.1647 C   0  0  1  0  0  0  0  0  0  0  0  0
   10.0343   -7.1079   27.0295 C   0  0  0  0  0  0  0  0  0  0  0  0
   10.0871   -8.2104   28.1670 C   0  0  2  0  0  0  0  0  0  0  0  0
   11.3194   -6.1662   25.1037 N   0  0  0  0  0  0  0  0  0  0  0  0
    8.8486   -8.1093   28.9713 N   0  0  0  0  0  0  0  0  0  0  0  0
   13.8223   -7.8665   29.0036 O   0  0  0  0  0  0  0  0  0  0  0  0
   13.7893   -7.1441   26.2948 O   0  0  0  0  0  0  0  0  0  0  0  0
  1  2  1  0  0  0  0
  1 12  1  1  0  0  0
  1 13  1  0  0  0  0
  2  3  1  0  0  0  0
  2 10  1  1  0  0  0
  4  3  1  1  0  0  0
  4  5  1  0  0  0  0
  4 14  1  0  0  0  0
  5  6  1  0  0  0  0
  5 13  1  6  0  0  0
  6  7  1  0  0  0  0
  6 15  1  1  0  0  0
  7  8  1  0  0  0  0
  7 11  1  6  0  0  0
  8 14  1  0  0  0  0
  8 16  1  1  0  0  0
  9 11  1  0  0  0  0
 17 16  1  1  0  0  0
 17 18  1  0  0  0  0
 17 24  1  0  0  0  0
 18 19  1  0  0  0  0
 18 25  1  6  0  0  0
 19 20  1  0  0  0  0
 19 26  1  1  0  0  0
 20 21  1  0  0  0  0
 20 23  1  1  0  0  0
 21 22  1  1  0  0  0
 21 24  1  0  0  0  0
 22 27  1  0  0  0  0
 28 12  1  1  0  0  0
 28 29  1  0  0  0  0
 28 33  1  0  0  0  0
 29 30  1  0  0  0  0
 29 36  1  1  0  0  0
 30 31  1  0  0  0  0
 30 37  1  6  0  0  0
 31 32  1  0  0  0  0
 31 34  1  6  0  0  0
 32 33  1  0  0  0  0
 33 35  1  1  0  0  0
M  END
>  <CHROM.1>
174.32897832,-12.81045150,53.35971843,-176.42066840,-63.82242378,-77.18488807
14.62381730,-10.14792627,29.41620547,2.64267610,0.29114852,-1.34456698

>  <Name>
2oe8_lig

>  <RI>
0

>  <Rbt.Current_Directory>
/home/itssahil/PROJECTS/Mol_Feturizer/New_Systems/rnas/2oe8

>  <Rbt.Executable>
rbdock ($Id: //depot/dev/client3/rdock/2013.1/src/exe/rbdock.cxx#4 $)

>  <Rbt.Library>
libRbt.so (2013.1, Build901 2013/11/27)

>  <Rbt.Parameter_File>
/export/apps/rDock/src/rDock_2013.1_src/data/scripts/dock_solv.prm

>  <Rbt.Receptor>
prm/blind_docking_40.prm

>  <SCORE>
36.4373

>  <SCORE.INTER>
2.25108

>  <SCORE.INTER.CONST>
1

>  <SCORE.INTER.POLAR>
-0.832787

>  <SCORE.INTER.ROT>
6

>  <SCORE.INTER.SOLV>
15.7751

>  <SCORE.INTER.VDW>
-8.5817

>  <SCORE.INTER.norm>
0.0608399

>  <SCORE.INTRA>
3.10984

>  <SCORE.INTRA.DIHEDRAL>
-13.4182

>  <SCORE.INTRA.DIHEDRAL.0>
16.4056

>  <SCORE.INTRA.POLAR>
0

>  <SCORE.INTRA.POLAR.0>
0

>  <SCORE.INTRA.REPUL>
0.0135826

>  <SCORE.INTRA.REPUL.0>
0

>  <SCORE.INTRA.SOLV>
0.302626

>  <SCORE.INTRA.SOLV.lig_0>
-90.9627

>  <SCORE.INTRA.VDW>
9.5997

>  <SCORE.INTRA.VDW.0>
-3.28744

>  <SCORE.INTRA.norm>
0.0840498

>  <SCORE.RESTR>
31.0764

>  <SCORE.RESTR.CAVITY>
31.0764

>  <SCORE.RESTR.norm>
0.839903

>  <SCORE.SYSTEM>
0

>  <SCORE.SYSTEM.CONST>
0

>  <SCORE.SYSTEM.DIHEDRAL>
0

>  <SCORE.SYSTEM.SOLV>
0

>  <SCORE.SYSTEM.norm>
0

>  <SCORE.heavy>
37

>  <SCORE.norm>
0.984793

>  <RMSD>
25.515

$$$$
2oe8_lig
 OpenBabel11021811463D
libRbt.so/2013.1/901 2013/11/27
 37 40  0  0  0  0  0  0  0  0999 V2000
   17.0588  -11.9406   28.4461 C   0  0  1  0  0  0  0  0  0  0  0  0
   16.5129  -12.0943   26.9758 C   0  0  1  0  0  0  0  0  0  0  0  0
   15.4249  -11.0302   26.7213 C   0  0  0  0  0  0  0  0  0  0  0  0
   14.3038  -11.2971   27.7737 C   0  0  1  0  0  0  0  0  0  0  0  0
   14.8533  -11.1636   29.2858 C   0  0  1  0  0  0  0  0  0  0  0  0
   13.7453  -11.4472   30.3422 C   0  0  1  0  0  0  0  0  0  0  0  0
   12.5686  -10.4213   30.0780 C   0  0  1  0  0  0  0  0  0  0  0  0
   12.1021  -10.5582   28.5869 C   0  0  2  0  0  0  0  0  0  0  0  0
   11.6745  -10.8118   32.5162 C   0  0  0  0  0  0  0  0  0  0  0  0
   17.6221  -11.9273   25.9838 N   0  0  0  0  0  0  0  0  0  0  0  0
   11.4071  -10.6524   31.0407 N   0  0  0  0  0  0  0  0  0  0  0  0
   17.6656  -10.6591   28.6545 O   0  0  0  0  0  0  0  0  0  0  0  0
   15.9714  -12.1019   29.4557 O   0  0  0  0  0  0  0  0  0  0  0  0
   13.2076  -10.3499   27.6059 O   0  0  0  0  0  0  0  0  0  0  0  0
   13.3347  -12.8041   30.1664 O   0  0  0  0  0  0  0  0  0  0  0  0
   11.1185   -9.6216   28.3370 O   0  0  0  0  0  0  0  0  0  0  0  0
   11.6081   -8.2699   28.3309 C   0  0  2  0  0  0  0  0  0  0  0  0
   10.4901   -7.2962   27.8860 C   0  0  1  0  0  0  0  0  0  0  0  0
   10.0803   -7.5252   26.3989 C   0  0  2  0  0  0  0  0  0  0  0  0
   11.3292   -7.3428   25.4867 C   0  0  1  0  0  0  0  0  0  0  0  0
   12.3966   -8.4213   25.9456 C   0  0  1  0  0  0  0  0  0  0  0  0
   13.6841   -8.3336   25.1310 C   0  0  0  0  0  0  0  0  0  0  0  0
   10.9399   -7.5610   24.0642 N   0  0  0  0  0  0  0  0  0  0  0  0
   12.7511   -8.1674   27.3869 O   0  0  0  0  0  0  0  0  0  0  0  0
    9.3804   -7.4806   28.7857 O   0  0  0  0  0  0  0  0  0  0  0  0
    9.0963   -6.5720   26.0561 O   0  0  0  0  0  0  0  0  0  0  0  0
   13.4021   -8.5957   23.7816 O   0  0  0  0  0  0  0  0  0  0  0  0
   18.1744  -10.4790   29.9601 C   0  0  1  0  0  0  0  0  0  0  0  0
   16.9647  -10.3737   30.9436 C   0  0  1  0  0  0  0  0  0  0  0  0
   17.5106  -10.1433   32.3830 C   0  0  2  0  0  0  0  0  0  0  0  0
   18.4473  -11.3138   32.8146 C   0  0  1  0  0  0  0  0  0  0  0  0
   19.6652  -11.4349   31.8212 C   0  0  0  0  0  0  0  0  0  0  0  0
   19.1053  -11.6756   30.3581 C   0  0  2  0  0  0  0  0  0  0  0  0
   18.9602  -11.0677   34.1908 N   0  0  0  0  0  0  0  0  0  0  0  0
   20.2550  -11.7918   29.4329 N   0  0  0  0  0  0  0  0  0  0  0  0
   16.1181   -9.2677   30.5788 O   0  0  0  0  0  0  0  0  0  0  0  0
   16.3950  -10.0586   33.2543 O   0  0  0  0  0  0  0  0  0  0  0  0
  1  2  1  0  0  0  0
  1 12  1  6  0  0  0
  1 13  1  0  0  0  0
  2  3  1  0  0  0  0
  2 10  1  6  0  0  0
  4  3  1  6  0  0  0
  4  5  1  0  0  0  0
  4 14  1  0  0  0  0
  5  6  1  0  0  0  0
  5 13  1  6  0  0  0
  6  7  1  0  0  0  0
  6 15  1  6  0  0  0
  7  8  1  0  0  0  0
  7 11  1  1  0  0  0
  8 14  1  0  0  0  0
  8 16  1  6  0  0  0
  9 11  1  0  0  0  0
 17 16  1  6  0  0  0
 17 18  1  0  0  0  0
 17 24  1  0  0  0  0
 18 19  1  0  0  0  0
 18 25  1  1  0  0  0
 19 20  1  0  0  0  0
 19 26  1  6  0  0  0
 20 21  1  0  0  0  0
 20 23  1  6  0  0  0
 21 22  1  6  0  0  0
 21 24  1  0  0  0  0
 22 27  1  0  0  0  0
 28 12  1  6  0  0  0
 28 29  1  0  0  0  0
 28 33  1  0  0  0  0
 29 30  1  0  0  0  0
 29 36  1  6  0  0  0
 30 31  1  0  0  0  0
 30 37  1  1  0  0  0
 31 32  1  0  0  0  0
 31 34  1  1  0  0  0
 32 33  1  0  0  0  0
 33 35  1  6  0  0  0
M  END
>  <CHROM.1>
-179.77679411,47.68506091,69.23729254,173.50501231,-61.94202037,-69.78279687
14.41984786,-10.03670013,28.82860985,-0.59018075,0.34130865,-1.42262628

>  <Name>
2oe8_lig

>  <RI>
0

>  <Rbt.Current_Directory>
/home/itssahil/PROJECTS/Mol_Feturizer/New_Systems/rnas/2oe8

>  <Rbt.Executable>
rbdock ($Id: //depot/dev/client3/rdock/2013.1/src/exe/rbdock.cxx#4 $)

>  <Rbt.Library>
libRbt.so (2013.1, Build901 2013/11/27)

>  <Rbt.Parameter_File>
/export/apps/rDock/src/rDock_2013.1_src/data/scripts/dock_solv.prm

>  <Rbt.Receptor>
prm/blind_docking_40.prm

>  <SCORE>
31.018

>  <SCORE.INTER>
-1.16815

>  <SCORE.INTER.CONST>
1

>  <SCORE.INTER.POLAR>
-0.970993

>  <SCORE.INTER.ROT>
6

>  <SCORE.INTER.SOLV>
16.7891

>  <SCORE.INTER.VDW>
-10.7385

>  <SCORE.INTER.norm>
-0.0315716

>  <SCORE.INTRA>
2.68919

>  <SCORE.INTRA.DIHEDRAL>
-15.1212

>  <SCORE.INTRA.DIHEDRAL.0>
16.4056

>  <SCORE.INTRA.POLAR>
0

>  <SCORE.INTRA.POLAR.0>
0

>  <SCORE.INTRA.REPUL>
0

>  <SCORE.INTRA.REPUL.0>
0

>  <SCORE.INTRA.SOLV>
-0.0521492

>  <SCORE.INTRA.SOLV.lig_0>
-90.9627

>  <SCORE.INTRA.VDW>
10.2758

>  <SCORE.INTRA.VDW.0>
-3.28744

>  <SCORE.INTRA.norm>
0.0726808

>  <SCORE.RESTR>
29.497

>  <SCORE.RESTR.CAVITY>
29.497

>  <SCORE.RESTR.norm>
0.797216

>  <SCORE.SYSTEM>
0

>  <SCORE.SYSTEM.CONST>
0

>  <SCORE.SYSTEM.DIHEDRAL>
0

>  <SCORE.SYSTEM.SOLV>
0

>  <SCORE.SYSTEM.norm>
0

>  <SCORE.heavy>
37

>  <SCORE.norm>
0.838326

>  <RMSD>
25.519

$$$$
2oe8_lig
 OpenBabel11021811463D
libRbt.so/2013.1/901 2013/11/27
 37 40  0  0  0  0  0  0  0  0999 V2000
   16.1395  -12.4117   28.8514 C   0  0  1  0  0  0  0  0  0  0  0  0
   15.4867  -12.8721   27.4930 C   0  0  1  0  0  0  0  0  0  0  0  0
   14.5895  -11.7411   26.9485 C   0  0  0  0  0  0  0  0  0  0  0  0
   13.5050  -11.4848   28.0412 C   0  0  1  0  0  0  0  0  0  0  0  0
   14.1604  -11.0321   29.4453 C   0  0  1  0  0  0  0  0  0  0  0  0
   13.0861  -10.7928   30.5465 C   0  0  1  0  0  0  0  0  0  0  0  0
   12.0945   -9.6839   30.0045 C   0  0  1  0  0  0  0  0  0  0  0  0
   11.5213  -10.1492   28.6207 C   0  0  2  0  0  0  0  0  0  0  0  0
   10.0728  -10.5380   31.4467 C   0  0  0  0  0  0  0  0  0  0  0  0
   16.5455  -13.2031   26.4872 N   0  0  0  0  0  0  0  0  0  0  0  0
   10.9711   -9.4118   31.0012 N   0  0  0  0  0  0  0  0  0  0  0  0
   16.9739  -11.2600   28.6745 O   0  0  0  0  0  0  0  0  0  0  0  0
   15.1041  -12.0745   29.8722 O   0  0  0  0  0  0  0  0  0  0  0  0
   12.5845  -10.4374   27.6135 O   0  0  0  0  0  0  0  0  0  0  0  0
   12.4331  -12.0426   30.7752 O   0  0  0  0  0  0  0  0  0  0  0  0
   10.7046   -9.1562   28.1169 O   0  0  0  0  0  0  0  0  0  0  0  0
   11.2953   -7.8470   28.1795 C   0  0  2  0  0  0  0  0  0  0  0  0
   10.6458   -6.9143   27.1288 C   0  0  1  0  0  0  0  0  0  0  0  0
   10.9648   -7.3714   25.6723 C   0  0  2  0  0  0  0  0  0  0  0  0
   12.5084   -7.3985   25.4676 C   0  0  1  0  0  0  0  0  0  0  0  0
   13.0947   -8.4299   26.5191 C   0  0  1  0  0  0  0  0  0  0  0  0
   14.6145   -8.5355   26.4295 C   0  0  0  0  0  0  0  0  0  0  0  0
   12.8160   -7.8349   24.0757 N   0  0  0  0  0  0  0  0  0  0  0  0
   12.7521   -7.9536   27.9058 O   0  0  0  0  0  0  0  0  0  0  0  0
    9.2295   -6.8973   27.3906 O   0  0  0  0  0  0  0  0  0  0  0  0
   10.3815   -6.4475   24.7776 O   0  0  0  0  0  0  0  0  0  0  0  0
   15.1120   -9.1223   27.6031 O   0  0  0  0  0  0  0  0  0  0  0  0
   17.7219  -10.9206   29.8239 C   0  0  1  0  0  0  0  0  0  0  0  0
   16.7201  -10.5538   30.9656 C   0  0  1  0  0  0  0  0  0  0  0  0
   17.5318  -10.1470   32.2300 C   0  0  2  0  0  0  0  0  0  0  0  0
   18.4608  -11.3123   32.6910 C   0  0  1  0  0  0  0  0  0  0  0  0
   19.4680  -11.6968   31.5410 C   0  0  0  0  0  0  0  0  0  0  0  0
   18.6376  -12.1164   30.2577 C   0  0  2  0  0  0  0  0  0  0  0  0
   19.2296  -10.8971   33.8969 N   0  0  0  0  0  0  0  0  0  0  0  0
   19.5905  -12.4794   29.1847 N   0  0  0  0  0  0  0  0  0  0  0  0
   15.8878   -9.4493   30.5652 O   0  0  0  0  0  0  0  0  0  0  0  0
   16.6007   -9.8266   33.2504 O   0  0  0  0  0  0  0  0  0  0  0  0
  1  2  1  0  0  0  0
  1 12  1  6  0  0  0
  1 13  1  0  0  0  0
  2  3  1  0  0  0  0
  2 10  1  6  0  0  0
  4  3  1  6  0  0  0
  4  5  1  0  0  0  0
  4 14  1  0  0  0  0
  5  6  1  0  0  0  0
  5 13  1  1  0  0  0
  6  7  1  0  0  0  0
  6 15  1  6  0  0  0
  7  8  1  0  0  0  0
  7 11  1  1  0  0  0
  8 14  1  0  0  0  0
  8 16  1  6  0  0  0
  9 11  1  0  0  0  0
 17 16  1  6  0  0  0
 17 18  1  0  0  0  0
 17 24  1  0  0  0  0
 18 19  1  0  0  0  0
 18 25  1  6  0  0  0
 19 20  1  0  0  0  0
 19 26  1  6  0  0  0
 20 21  1  0  0  0  0
 20 23  1  6  0  0  0
 21 22  1  1  0  0  0
 21 24  1  0  0  0  0
 22 27  1  0  0  0  0
 28 12  1  6  0  0  0
 28 29  1  0  0  0  0
 28 33  1  0  0  0  0
 29 30  1  0  0  0  0
 29 36  1  6  0  0  0
 30 31  1  0  0  0  0
 30 37  1  1  0  0  0
 31 32  1  0  0  0  0
 31 34  1  1  0  0  0
 32 33  1  0  0  0  0
 33 35  1  6  0  0  0
M  END
>  <CHROM.1>
-171.86009528,-57.71803584,47.44992393,156.83628328,162.35600921,-62.66948194
14.25843751,-10.04339237,28.90376325,-0.57235436,0.40064022,-1.42492923

>  <Name>
2oe8_lig

>  <RI>
0

>  <Rbt.Current_Directory>
/home/itssahil/PROJECTS/Mol_Feturizer/New_Systems/rnas/2oe8

>  <Rbt.Executable>
rbdock ($Id: //depot/dev/client3/rdock/2013.1/src/exe/rbdock.cxx#4 $)

>  <Rbt.Library>
libRbt.so (2013.1, Build901 2013/11/27)

>  <Rbt.Parameter_File>
/export/apps/rDock/src/rDock_2013.1_src/data/scripts/dock_solv.prm

>  <Rbt.Receptor>
prm/blind_docking_40.prm

>  <SCORE>
40.9544

>  <SCORE.INTER>
2.27564

>  <SCORE.INTER.CONST>
1

>  <SCORE.INTER.POLAR>
-0.238308

>  <SCORE.INTER.ROT>
6

>  <SCORE.INTER.SOLV>
16.6742

>  <SCORE.INTER.VDW>
-10.8466

>  <SCORE.INTER.norm>
0.0615038

>  <SCORE.INTRA>
10.5172

>  <SCORE.INTRA.DIHEDRAL>
-11.8413

>  <SCORE.INTRA.DIHEDRAL.0>
16.4056

>  <SCORE.INTRA.POLAR>
0

>  <SCORE.INTRA.POLAR.0>
0

>  <SCORE.INTRA.REPUL>
0.274037

>  <SCORE.INTRA.REPUL.0>
0

>  <SCORE.INTRA.SOLV>
1.58054

>  <SCORE.INTRA.SOLV.lig_0>
-90.9627

>  <SCORE.INTRA.VDW>
14.2774

>  <SCORE.INTRA.VDW.0>
-3.28744

>  <SCORE.INTRA.norm>
0.284248

>  <SCORE.RESTR>
28.1615

>  <SCORE.RESTR.CAVITY>
28.1615

>  <SCORE.RESTR.norm>
0.761123

>  <SCORE.SYSTEM>
0

>  <SCORE.SYSTEM.CONST>
0

>  <SCORE.SYSTEM.DIHEDRAL>
0

>  <SCORE.SYSTEM.SOLV>
0

>  <SCORE.SYSTEM.norm>
0

>  <SCORE.heavy>
37

>  <SCORE.norm>
1.10687

>  <RMSD>
25.532

$$$$
2oe8_lig
 OpenBabel11021811463D
libRbt.so/2013.1/901 2013/11/27
 37 40  0  0  0  0  0  0  0  0999 V2000
   16.5500  -11.7218   28.5075 C   0  0  1  0  0  0  0  0  0  0  0  0
   16.3621  -11.5648   26.9508 C   0  0  1  0  0  0  0  0  0  0  0  0
   15.9406  -10.1155   26.6308 C   0  0  0  0  0  0  0  0  0  0  0  0
   14.5987   -9.8770   27.3913 C   0  0  1  0  0  0  0  0  0  0  0  0
   14.7710  -10.0548   28.9865 C   0  0  1  0  0  0  0  0  0  0  0  0
   13.4323   -9.8373   29.7512 C   0  0  1  0  0  0  0  0  0  0  0  0
   12.9195   -8.3814   29.3989 C   0  0  1  0  0  0  0  0  0  0  0  0
   12.8129   -8.2449   27.8401 C   0  0  2  0  0  0  0  0  0  0  0  0
   10.7279   -9.2279   30.5722 C   0  0  0  0  0  0  0  0  0  0  0  0
   17.6357  -11.8887   26.2329 N   0  0  0  0  0  0  0  0  0  0  0  0
   11.5796   -8.0899   30.0691 N   0  0  0  0  0  0  0  0  0  0  0  0
   17.5833  -10.8626   29.0056 O   0  0  0  0  0  0  0  0  0  0  0  0
   15.2935  -11.4033   29.2475 O   0  0  0  0  0  0  0  0  0  0  0  0
   14.0986   -8.5306   27.1380 O   0  0  0  0  0  0  0  0  0  0  0  0
   12.5287  -10.8537   29.3138 O   0  0  0  0  0  0  0  0  0  0  0  0
   12.4256   -6.9566   27.5283 O   0  0  0  0  0  0  0  0  0  0  0  0
   11.3797   -6.8992   26.5436 C   0  0  2  0  0  0  0  0  0  0  0  0
   10.1381   -7.6833   27.0329 C   0  0  1  0  0  0  0  0  0  0  0  0
   10.4260   -9.2118   27.1469 C   0  0  2  0  0  0  0  0  0  0  0  0
   10.8771   -9.7556   25.7591 C   0  0  1  0  0  0  0  0  0  0  0  0
   12.1929   -8.9663   25.3603 C   0  0  1  0  0  0  0  0  0  0  0  0
   12.7296   -9.4009   23.9994 C   0  0  0  0  0  0  0  0  0  0  0  0
   11.1527  -11.2168   25.8654 N   0  0  0  0  0  0  0  0  0  0  0  0
   11.8685   -7.4984   25.2746 O   0  0  0  0  0  0  0  0  0  0  0  0
    9.7436   -7.1133   28.2956 O   0  0  0  0  0  0  0  0  0  0  0  0
    9.2378   -9.8601   27.5497 O   0  0  0  0  0  0  0  0  0  0  0  0
   13.9425   -8.7431   23.7438 O   0  0  0  0  0  0  0  0  0  0  0  0
   17.9139  -11.0998   30.3584 C   0  0  1  0  0  0  0  0  0  0  0  0
   16.6673  -10.7487   31.2328 C   0  0  1  0  0  0  0  0  0  0  0  0
   17.0281  -10.9756   32.7299 C   0  0  2  0  0  0  0  0  0  0  0  0
   17.4536  -12.4555   32.9794 C   0  0  1  0  0  0  0  0  0  0  0  0
   18.7042  -12.8223   32.0928 C   0  0  0  0  0  0  0  0  0  0  0  0
   18.3307  -12.5960   30.5692 C   0  0  2  0  0  0  0  0  0  0  0  0
   17.7985  -12.6455   34.4156 N   0  0  0  0  0  0  0  0  0  0  0  0
   19.5087  -12.9462   29.7439 N   0  0  0  0  0  0  0  0  0  0  0  0
   16.2945   -9.3711   31.0422 O   0  0  0  0  0  0  0  0  0  0  0  0
   15.8801  -10.6570   33.4989 O   0  0  0  0  0  0  0  0  0  0  0  0
  1  2  1  0  0  0  0
  1 12  1  1  0  0  0
  1 13  1  0  0  0  0
  2  3  1  0  0  0  0
  2 10  1  6  0  0  0
  4  3  1  6  0  0  0
  4  5  1  0  0  0  0
  4 14  1  0  0  0  0
  5  6  1  0  0  0  0
  5 13  1  6  0  0  0
  6  7  1  0  0  0  0
  6 15  1  6  0  0  0
  7  8  1  0  0  0  0
  7 11  1  1  0  0  0
  8 14  1  0  0  0  0
  8 16  1  1  0  0  0
  9 11  1  0  0  0  0
 17 16  1  1  0  0  0
 17 18  1  0  0  0  0
 17 24  1  0  0  0  0
 18 19  1  0  0  0  0
 18 25  1  1  0  0  0
 19 20  1  0  0  0  0
 19 26  1  6  0  0  0
 20 21  1  0  0  0  0
 20 23  1  1  0  0  0
 21 22  1  6  0  0  0
 21 24  1  0  0  0  0
 22 27  1  0  0  0  0
 28 12  1  6  0  0  0
 28 29  1  0  0  0  0
 28 33  1  0  0  0  0
 29 30  1  0  0  0  0
 29 36  1  1  0  0  0
 30 31  1  0  0  0  0
 30 37  1  1  0  0  0
 31 32  1  0  0  0  0
 31 34  1  1  0  0  0
 32 33  1  0  0  0  0
 33 35  1  6  0  0  0
M  END
>  <CHROM.1>
-171.75171910,-18.62830719,-134.16815158,58.00472381,-175.72394386,-64.78477903
14.24454834,-9.97487377,28.63079066,-0.61697993,0.45470817,-1.51883020

>  <Name>
2oe8_lig

>  <RI>
0

>  <Rbt.Current_Directory>
/home/itssahil/PROJECTS/Mol_Feturizer/New_Systems/rnas/2oe8

>  <Rbt.Executable>
rbdock ($Id: //depot/dev/client3/rdock/2013.1/src/exe/rbdock.cxx#4 $)

>  <Rbt.Library>
libRbt.so (2013.1, Build901 2013/11/27)

>  <Rbt.Parameter_File>
/export/apps/rDock/src/rDock_2013.1_src/data/scripts/dock_solv.prm

>  <Rbt.Receptor>
prm/blind_docking_40.prm

>  <SCORE>
44.4248

>  <SCORE.INTER>
6.61856

>  <SCORE.INTER.CONST>
1

>  <SCORE.INTER.POLAR>
-0.655606

>  <SCORE.INTER.ROT>
6

>  <SCORE.INTER.SOLV>
17.0776

>  <SCORE.INTER.VDW>
-6.69482

>  <SCORE.INTER.norm>
0.17888

>  <SCORE.INTRA>
8.63245

>  <SCORE.INTRA.DIHEDRAL>
-8.68391

>  <SCORE.INTRA.DIHEDRAL.0>
16.4056

>  <SCORE.INTRA.POLAR>
0

>  <SCORE.INTRA.POLAR.0>
0

>  <SCORE.INTRA.REPUL>
0

>  <SCORE.INTRA.REPUL.0>
0

>  <SCORE.INTRA.SOLV>
3.26773

>  <SCORE.INTRA.SOLV.lig_0>
-90.9627

>  <SCORE.INTRA.VDW>
11.3405

>  <SCORE.INTRA.VDW.0>
-3.28744

>  <SCORE.INTRA.norm>
0.23331

>  <SCORE.RESTR>
29.1738

>  <SCORE.RESTR.CAVITY>
29.1738

>  <SCORE.RESTR.norm>
0.78848

>  <SCORE.SYSTEM>
0

>  <SCORE.SYSTEM.CONST>
0

>  <SCORE.SYSTEM.DIHEDRAL>
0

>  <SCORE.SYSTEM.SOLV>
0

>  <SCORE.SYSTEM.norm>
0

>  <SCORE.heavy>
37

>  <SCORE.norm>
1.20067

>  <RMSD>
25.633

$$$$
2oe8_lig
 OpenBabel11021811463D
libRbt.so/2013.1/901 2013/11/27
 37 40  0  0  0  0  0  0  0  0999 V2000
   16.4595  -12.3940   28.0483 C   0  0  1  0  0  0  0  0  0  0  0  0
   16.3620  -11.7761   26.6018 C   0  0  1  0  0  0  0  0  0  0  0  0
   16.0490  -10.2692   26.7103 C   0  0  0  0  0  0  0  0  0  0  0  0
   14.6874  -10.1631   27.4657 C   0  0  1  0  0  0  0  0  0  0  0  0
   14.7661  -10.8109   28.9423 C   0  0  1  0  0  0  0  0  0  0  0  0
   13.4062  -10.7263   29.6956 C   0  0  1  0  0  0  0  0  0  0  0  0
   13.0043   -9.1967   29.7723 C   0  0  1  0  0  0  0  0  0  0  0  0
   12.9866   -8.6040   28.3204 C   0  0  2  0  0  0  0  0  0  0  0  0
   11.0026  -10.1792   31.1596 C   0  0  0  0  0  0  0  0  0  0  0  0
   17.6481  -11.9710   25.8599 N   0  0  0  0  0  0  0  0  0  0  0  0
   11.6527   -9.0139   30.4572 N   0  0  0  0  0  0  0  0  0  0  0  0
   17.5177  -11.7974   28.8088 O   0  0  0  0  0  0  0  0  0  0  0  0
   15.1892  -12.2120   28.8103 O   0  0  0  0  0  0  0  0  0  0  0  0
   14.2862   -8.7679   27.6050 O   0  0  0  0  0  0  0  0  0  0  0  0
   12.4644  -11.5002   28.9507 O   0  0  0  0  0  0  0  0  0  0  0  0
   12.6972   -7.2555   28.3902 O   0  0  0  0  0  0  0  0  0  0  0  0
   11.7091   -6.8350   27.4342 C   0  0  2  0  0  0  0  0  0  0  0  0
   10.5121   -7.8162   27.4328 C   0  0  1  0  0  0  0  0  0  0  0  0
   10.9211   -9.2286   26.9131 C   0  0  2  0  0  0  0  0  0  0  0  0
   11.4964   -9.1000   25.4717 C   0  0  1  0  0  0  0  0  0  0  0  0
   12.7617   -8.1493   25.5635 C   0  0  1  0  0  0  0  0  0  0  0  0
   13.4113   -7.9293   24.2002 C   0  0  0  0  0  0  0  0  0  0  0  0
   11.8880  -10.4491   24.9725 N   0  0  0  0  0  0  0  0  0  0  0  0
   12.3198   -6.8055   26.0797 O   0  0  0  0  0  0  0  0  0  0  0  0
    9.9981   -7.8645   28.7776 O   0  0  0  0  0  0  0  0  0  0  0  0
    9.7706  -10.0474   26.8959 O   0  0  0  0  0  0  0  0  0  0  0  0
   12.5535   -7.1686   23.3912 O   0  0  0  0  0  0  0  0  0  0  0  0
   17.2283  -11.6799   30.1866 C   0  0  1  0  0  0  0  0  0  0  0  0
   18.1824  -12.6396   30.9678 C   0  0  1  0  0  0  0  0  0  0  0  0
   17.8528  -12.5438   32.4860 C   0  0  2  0  0  0  0  0  0  0  0  0
   18.0302  -11.0818   33.0006 C   0  0  1  0  0  0  0  0  0  0  0  0
   17.0793  -10.1043   32.2102 C   0  0  0  0  0  0  0  0  0  0  0  0
   17.4223  -10.2002   30.6657 C   0  0  2  0  0  0  0  0  0  0  0  0
   17.7042  -11.0153   34.4521 N   0  0  0  0  0  0  0  0  0  0  0  0
   16.5279   -9.2769   29.9318 N   0  0  0  0  0  0  0  0  0  0  0  0
   17.9935  -13.9983   30.5301 O   0  0  0  0  0  0  0  0  0  0  0  0
   18.7356  -13.4172   33.1707 O   0  0  0  0  0  0  0  0  0  0  0  0
  1  2  1  0  0  0  0
  1 12  1  1  0  0  0
  1 13  1  0  0  0  0
  2  3  1  0  0  0  0
  2 10  1  1  0  0  0
  4  3  1  1  0  0  0
  4  5  1  0  0  0  0
  4 14  1  0  0  0  0
  5  6  1  0  0  0  0
  5 13  1  6  0  0  0
  6  7  1  0  0  0  0
  6 15  1  6  0  0  0
  7  8  1  0  0  0  0
  7 11  1  6  0  0  0
  8 14  1  0  0  0  0
  8 16  1  1  0  0  0
  9 11  1  0  0  0  0
 17 16  1  1  0  0  0
 17 18  1  0  0  0  0
 17 24  1  0  0  0  0
 18 19  1  0  0  0  0
 18 25  1  1  0  0  0
 19 20  1  0  0  0  0
 19 26  1  6  0  0  0
 20 21  1  0  0  0  0
 20 23  1  1  0  0  0
 21 22  1  6  0  0  0
 21 24  1  0  0  0  0
 22 27  1  0  0  0  0
 28 12  1  6  0  0  0
 28 29  1  0  0  0  0
 28 33  1  0  0  0  0
 29 30  1  0  0  0  0
 29 36  1  6  0  0  0
 30 31  1  0  0  0  0
 30 37  1  1  0  0  0
 31 32  1  0  0  0  0
 31 34  1  1  0  0  0
 32 33  1  0  0  0  0
 33 35  1  6  0  0  0
M  END
>  <CHROM.1>
145.52230172,10.34564120,-134.18473346,46.36879625,68.47576424,112.67546113
14.40877310,-10.10441772,28.64453093,-0.65936256,0.50577602,-1.48663219

>  <Name>
2oe8_lig

>  <RI>
0

>  <Rbt.Current_Directory>
/home/itssahil/PROJECTS/Mol_Feturizer/New_Systems/rnas/2oe8

>  <Rbt.Executable>
rbdock ($Id: //depot/dev/client3/rdock/2013.1/src/exe/rbdock.cxx#4 $)

>  <Rbt.Library>
libRbt.so (2013.1, Build901 2013/11/27)

>  <Rbt.Parameter_File>
/export/apps/rDock/src/rDock_2013.1_src/data/scripts/dock_solv.prm

>  <Rbt.Receptor>
prm/blind_docking_40.prm

>  <SCORE>
46.4557

>  <SCORE.INTER>
1.61229

>  <SCORE.INTER.CONST>
1

>  <SCORE.INTER.POLAR>
-1.37522

>  <SCORE.INTER.ROT>
6

>  <SCORE.INTER.SOLV>
21.9045

>  <SCORE.INTER.VDW>
-9.2426

>  <SCORE.INTER.norm>
0.0435753

>  <SCORE.INTRA>
16.2379

>  <SCORE.INTRA.DIHEDRAL>
3.42887

>  <SCORE.INTRA.DIHEDRAL.0>
16.4056

>  <SCORE.INTRA.POLAR>
0

>  <SCORE.INTRA.POLAR.0>
0

>  <SCORE.INTRA.REPUL>
0

>  <SCORE.INTRA.REPUL.0>
0

>  <SCORE.INTRA.SOLV>
7.06943

>  <SCORE.INTRA.SOLV.lig_0>
-90.9627

>  <SCORE.INTRA.VDW>
10.9888

>  <SCORE.INTRA.VDW.0>
-3.28744

>  <SCORE.INTRA.norm>
0.438862

>  <SCORE.RESTR>
28.6055

>  <SCORE.RESTR.CAVITY>
28.6055

>  <SCORE.RESTR.norm>
0.773121

>  <SCORE.SYSTEM>
0

>  <SCORE.SYSTEM.CONST>
0

>  <SCORE.SYSTEM.DIHEDRAL>
0

>  <SCORE.SYSTEM.SOLV>
0

>  <SCORE.SYSTEM.norm>
0

>  <SCORE.heavy>
37

>  <SCORE.norm>
1.25556

>  <RMSD>
25.697

$$$$
2oe8_lig
 OpenBabel11021811463D
libRbt.so/2013.1/901 2013/11/27
 37 40  0  0  0  0  0  0  0  0999 V2000
   16.4762  -12.6007   27.9887 C   0  0  1  0  0  0  0  0  0  0  0  0
   16.4244  -11.9098   26.5733 C   0  0  1  0  0  0  0  0  0  0  0  0
   16.1473  -10.4024   26.7507 C   0  0  0  0  0  0  0  0  0  0  0  0
   14.7733  -10.2981   27.4837 C   0  0  1  0  0  0  0  0  0  0  0  0
   14.8049  -11.0198   28.9274 C   0  0  1  0  0  0  0  0  0  0  0  0
   13.4322  -10.9370   29.6573 C   0  0  1  0  0  0  0  0  0  0  0  0
   13.0675   -9.4031   29.8024 C   0  0  1  0  0  0  0  0  0  0  0  0
   13.0949   -8.7390   28.3818 C   0  0  2  0  0  0  0  0  0  0  0  0
   11.1580  -10.2988   31.3671 C   0  0  0  0  0  0  0  0  0  0  0  0
   17.7202  -12.1014   25.8478 N   0  0  0  0  0  0  0  0  0  0  0  0
   11.7069   -9.2190   30.4691 N   0  0  0  0  0  0  0  0  0  0  0  0
   17.5330  -12.0703   28.7986 O   0  0  0  0  0  0  0  0  0  0  0  0
   15.1952  -12.4233   28.7339 O   0  0  0  0  0  0  0  0  0  0  0  0
   14.4046   -8.9014   27.6847 O   0  0  0  0  0  0  0  0  0  0  0  0
   12.4869  -11.6482   28.8564 O   0  0  0  0  0  0  0  0  0  0  0  0
   12.8382   -7.3885   28.5132 O   0  0  0  0  0  0  0  0  0  0  0  0
   11.8384   -6.9075   27.5989 C   0  0  2  0  0  0  0  0  0  0  0  0
   10.6226   -7.8652   27.5806 C   0  0  1  0  0  0  0  0  0  0  0  0
   10.9927   -9.2603   26.9900 C   0  0  2  0  0  0  0  0  0  0  0  0
   11.5396   -9.0783   25.5433 C   0  0  1  0  0  0  0  0  0  0  0  0
   12.8249   -8.1563   25.6490 C   0  0  1  0  0  0  0  0  0  0  0  0
   13.4495   -7.8879   24.2827 C   0  0  0  0  0  0  0  0  0  0  0  0
   11.8939  -10.4108   24.9764 N   0  0  0  0  0  0  0  0  0  0  0  0
   12.4206   -6.8289   26.2338 O   0  0  0  0  0  0  0  0  0  0  0  0
   10.1365   -7.9638   28.9330 O   0  0  0  0  0  0  0  0  0  0  0  0
    9.8263  -10.0559   26.9621 O   0  0  0  0  0  0  0  0  0  0  0  0
   12.5788   -7.0964   23.5183 O   0  0  0  0  0  0  0  0  0  0  0  0
   17.1461  -11.8033   30.1308 C   0  0  1  0  0  0  0  0  0  0  0  0
   17.8966  -12.8055   31.0657 C   0  0  1  0  0  0  0  0  0  0  0  0
   17.4552  -12.5432   32.5351 C   0  0  2  0  0  0  0  0  0  0  0  0
   17.7788  -11.0768   32.9577 C   0  0  1  0  0  0  0  0  0  0  0  0
   17.0345  -10.0581   32.0126 C   0  0  0  0  0  0  0  0  0  0  0  0
   17.4913  -10.3244   30.5185 C   0  0  2  0  0  0  0  0  0  0  0  0
   17.3428  -10.8493   34.3633 N   0  0  0  0  0  0  0  0  0  0  0  0
   16.7910   -9.3616   29.6388 N   0  0  0  0  0  0  0  0  0  0  0  0
   17.5688  -14.1620   30.7109 O   0  0  0  0  0  0  0  0  0  0  0  0
   18.1548  -13.4592   33.3612 O   0  0  0  0  0  0  0  0  0  0  0  0
  1  2  1  0  0  0  0
  1 12  1  1  0  0  0
  1 13  1  0  0  0  0
  2  3  1  0  0  0  0
  2 10  1  1  0  0  0
  4  3  1  1  0  0  0
  4  5  1  0  0  0  0
  4 14  1  0  0  0  0
  5  6  1  0  0  0  0
  5 13  1  6  0  0  0
  6  7  1  0  0  0  0
  6 15  1  6  0  0  0
  7  8  1  0  0  0  0
  7 11  1  6  0  0  0
  8 14  1  0  0  0  0
  8 16  1  1  0  0  0
  9 11  1  0  0  0  0
 17 16  1  1  0  0  0
 17 18  1  0  0  0  0
 17 24  1  0  0  0  0
 18 19  1  0  0  0  0
 18 25  1  1  0  0  0
 19 20  1  0  0  0  0
 19 26  1  6  0  0  0
 20 21  1  0  0  0  0
 20 23  1  1  0  0  0
 21 22  1  6  0  0  0
 21 24  1  0  0  0  0
 22 27  1  0  0  0  0
 28 12  1  6  0  0  0
 28 29  1  0  0  0  0
 28 33  1  0  0  0  0
 29 30  1  0  0  0  0
 29 36  1  6  0  0  0
 30 31  1  0  0  0  0
 30 37  1  1  0  0  0
 31 32  1  0  0  0  0
 31 34  1  1  0  0  0
 32 33  1  0  0  0  0
 33 35  1  6  0  0  0
M  END
>  <CHROM.1>
135.48295802,24.43392215,-131.63402920,46.07548093,67.39690560,112.28109664
14.40172666,-10.19458689,28.67603364,-0.68571564,0.52196546,-1.46046980

>  <Name>
2oe8_lig

>  <RI>
0

>  <Rbt.Current_Directory>
/home/itssahil/PROJECTS/Mol_Feturizer/New_Systems/rnas/2oe8

>  <Rbt.Executable>
rbdock ($Id: //depot/dev/client3/rdock/2013.1/src/exe/rbdock.cxx#4 $)

>  <Rbt.Library>
libRbt.so (2013.1, Build901 2013/11/27)

>  <Rbt.Parameter_File>
/export/apps/rDock/src/rDock_2013.1_src/data/scripts/dock_solv.prm

>  <Rbt.Receptor>
prm/blind_docking_40.prm

>  <SCORE>
44.7994

>  <SCORE.INTER>
-0.81752

>  <SCORE.INTER.CONST>
1

>  <SCORE.INTER.POLAR>
-1.55552

>  <SCORE.INTER.ROT>
6

>  <SCORE.INTER.SOLV>
21.1084

>  <SCORE.INTER.VDW>
-9.99608

>  <SCORE.INTER.norm>
-0.0220951

>  <SCORE.INTRA>
16.608

>  <SCORE.INTRA.DIHEDRAL>
4.96399

>  <SCORE.INTRA.DIHEDRAL.0>
16.4056

>  <SCORE.INTRA.POLAR>
0

>  <SCORE.INTRA.POLAR.0>
0

>  <SCORE.INTRA.REPUL>
0

>  <SCORE.INTRA.REPUL.0>
0

>  <SCORE.INTRA.SOLV>
7.13615

>  <SCORE.INTRA.SOLV.lig_0>
-90.9627

>  <SCORE.INTRA.VDW>
10.558

>  <SCORE.INTRA.VDW.0>
-3.28744

>  <SCORE.INTRA.norm>
0.448866

>  <SCORE.RESTR>
29.0088

>  <SCORE.RESTR.CAVITY>
29.0088

>  <SCORE.RESTR.norm>
0.784023

>  <SCORE.SYSTEM>
0

>  <SCORE.SYSTEM.CONST>
0

>  <SCORE.SYSTEM.DIHEDRAL>
0

>  <SCORE.SYSTEM.SOLV>
0

>  <SCORE.SYSTEM.norm>
0

>  <SCORE.heavy>
37

>  <SCORE.norm>
1.21079

>  <RMSD>
25.703

$$$$
2oe8_lig
 OpenBabel11021811463D
libRbt.so/2013.1/901 2013/11/27
 37 40  0  0  0  0  0  0  0  0999 V2000
   16.5563  -11.7290   28.5594 C   0  0  1  0  0  0  0  0  0  0  0  0
   16.4031  -11.6005   26.9963 C   0  0  1  0  0  0  0  0  0  0  0  0
   15.9866  -10.1579   26.6410 C   0  0  0  0  0  0  0  0  0  0  0  0
   14.6276   -9.9085   27.3669 C   0  0  1  0  0  0  0  0  0  0  0  0
   14.7644  -10.0572   28.9685 C   0  0  1  0  0  0  0  0  0  0  0  0
   13.4087   -9.8287   29.6990 C   0  0  1  0  0  0  0  0  0  0  0  0
   12.9017   -8.3803   29.3093 C   0  0  1  0  0  0  0  0  0  0  0  0
   12.8296   -8.2721   27.7463 C   0  0  2  0  0  0  0  0  0  0  0  0
   10.7677   -9.1846   30.6116 C   0  0  0  0  0  0  0  0  0  0  0  0
   17.6929  -11.9347   26.3130 N   0  0  0  0  0  0  0  0  0  0  0  0
   11.5467   -8.0794   29.9440 N   0  0  0  0  0  0  0  0  0  0  0  0
   17.5769  -10.8590   29.0649 O   0  0  0  0  0  0  0  0  0  0  0  0
   15.2831  -11.3997   29.2653 O   0  0  0  0  0  0  0  0  0  0  0  0
   14.1312   -8.5678   27.0782 O   0  0  0  0  0  0  0  0  0  0  0  0
   12.5167  -10.8545   29.2600 O   0  0  0  0  0  0  0  0  0  0  0  0
   12.4474   -6.9903   27.4027 O   0  0  0  0  0  0  0  0  0  0  0  0
   11.6171   -6.9389   26.2302 C   0  0  2  0  0  0  0  0  0  0  0  0
   10.6201   -8.1227   26.2262 C   0  0  1  0  0  0  0  0  0  0  0  0
   11.3487   -9.4935   26.0775 C   0  0  2  0  0  0  0  0  0  0  0  0
   12.1737   -9.4974   24.7567 C   0  0  1  0  0  0  0  0  0  0  0  0
   13.2234   -8.3144   24.8654 C   0  0  1  0  0  0  0  0  0  0  0  0
   14.0897   -8.2023   23.6140 C   0  0  0  0  0  0  0  0  0  0  0  0
   12.8711  -10.8071   24.6121 N   0  0  0  0  0  0  0  0  0  0  0  0
   12.4749   -7.0169   25.0191 O   0  0  0  0  0  0  0  0  0  0  0  0
    9.8607   -8.0454   27.4478 O   0  0  0  0  0  0  0  0  0  0  0  0
   10.3735  -10.5140   26.0334 O   0  0  0  0  0  0  0  0  0  0  0  0
   14.9649   -7.1136   23.7477 O   0  0  0  0  0  0  0  0  0  0  0  0
   17.8839  -11.0773   30.4265 C   0  0  1  0  0  0  0  0  0  0  0  0
   16.6104  -10.7506   31.2709 C   0  0  1  0  0  0  0  0  0  0  0  0
   16.9443  -10.9567   32.7772 C   0  0  2  0  0  0  0  0  0  0  0  0
   17.4007  -12.4236   33.0482 C   0  0  1  0  0  0  0  0  0  0  0  0
   18.6789  -12.7660   32.1917 C   0  0  0  0  0  0  0  0  0  0  0  0
   18.3330  -12.5609   30.6586 C   0  0  2  0  0  0  0  0  0  0  0  0
   17.7191  -12.5937   34.4930 N   0  0  0  0  0  0  0  0  0  0  0  0
   19.5368  -12.8882   29.8617 N   0  0  0  0  0  0  0  0  0  0  0  0
   16.2078   -9.3842   31.0608 O   0  0  0  0  0  0  0  0  0  0  0  0
   15.7723  -10.6608   33.5188 O   0  0  0  0  0  0  0  0  0  0  0  0
  1  2  1  0  0  0  0
  1 12  1  1  0  0  0
  1 13  1  0  0  0  0
  2  3  1  0  0  0  0
  2 10  1  6  0  0  0
  4  3  1  6  0  0  0
  4  5  1  0  0  0  0
  4 14  1  0  0  0  0
  5  6  1  0  0  0  0
  5 13  1  6  0  0  0
  6  7  1  0  0  0  0
  6 15  1  6  0  0  0
  7  8  1  0  0  0  0
  7 11  1  1  0  0  0
  8 14  1  0  0  0  0
  8 16  1  1  0  0  0
  9 11  1  0  0  0  0
 17 16  1  1  0  0  0
 17 18  1  0  0  0  0
 17 24  1  0  0  0  0
 18 19  1  0  0  0  0
 18 25  1  1  0  0  0
 19 20  1  0  0  0  0
 19 26  1  6  0  0  0
 20 21  1  0  0  0  0
 20 23  1  1  0  0  0
 21 22  1  6  0  0  0
 21 24  1  0  0  0  0
 22 27  1  0  0  0  0
 28 12  1  6  0  0  0
 28 29  1  0  0  0  0
 28 33  1  0  0  0  0
 29 30  1  0  0  0  0
 29 36  1  1  0  0  0
 30 31  1  0  0  0  0
 30 37  1  1  0  0  0
 31 32  1  0  0  0  0
 31 34  1  1  0  0  0
 32 33  1  0  0  0  0
 33 35  1  6  0  0  0
M  END
>  <CHROM.1>
-171.34730737,-10.53954842,-145.20443802,39.11396473,177.97193749,-63.55548200
14.50469133,-9.91073889,28.42323703,-0.80259490,0.43796876,-1.41549657

>  <Name>
2oe8_lig

>  <RI>
0

>  <Rbt.Current_Directory>
/home/itssahil/PROJECTS/Mol_Feturizer/New_Systems/rnas/2oe8

>  <Rbt.Executable>
rbdock ($Id: //depot/dev/client3/rdock/2013.1/src/exe/rbdock.cxx#4 $)

>  <Rbt.Library>
libRbt.so (2013.1, Build901 2013/11/27)

>  <Rbt.Parameter_File>
/export/apps/rDock/src/rDock_2013.1_src/data/scripts/dock_solv.prm

>  <Rbt.Receptor>
prm/blind_docking_40.prm

>  <SCORE>
43.466

>  <SCORE.INTER>
1.90855

>  <SCORE.INTER.CONST>
1

>  <SCORE.INTER.POLAR>
-0.730871

>  <SCORE.INTER.ROT>
6

>  <SCORE.INTER.SOLV>
18.3685

>  <SCORE.INTER.VDW>
-10.0142

>  <SCORE.INTER.norm>
0.0515825

>  <SCORE.INTRA>
13.7583

>  <SCORE.INTRA.DIHEDRAL>
-8.39158

>  <SCORE.INTRA.DIHEDRAL.0>
16.4056

>  <SCORE.INTRA.POLAR>
0

>  <SCORE.INTRA.POLAR.0>
0

>  <SCORE.INTRA.REPUL>
0

>  <SCORE.INTRA.REPUL.0>
0

>  <SCORE.INTRA.SOLV>
3.14443

>  <SCORE.INTRA.SOLV.lig_0>
-90.9627

>  <SCORE.INTRA.VDW>
16.3819

>  <SCORE.INTRA.VDW.0>
-3.28744

>  <SCORE.INTRA.norm>
0.371846

>  <SCORE.RESTR>
27.7991

>  <SCORE.RESTR.CAVITY>
27.7991

>  <SCORE.RESTR.norm>
0.751328

>  <SCORE.SYSTEM>
0

>  <SCORE.SYSTEM.CONST>
0

>  <SCORE.SYSTEM.DIHEDRAL>
0

>  <SCORE.SYSTEM.SOLV>
0

>  <SCORE.SYSTEM.norm>
0

>  <SCORE.heavy>
37

>  <SCORE.norm>
1.17476

>  <RMSD>
25.705

$$$$
2oe8_lig
 OpenBabel11021811463D
libRbt.so/2013.1/901 2013/11/27
 37 40  0  0  0  0  0  0  0  0999 V2000
   16.4395  -12.3269   28.0572 C   0  0  1  0  0  0  0  0  0  0  0  0
   16.3205  -11.7747   26.5860 C   0  0  1  0  0  0  0  0  0  0  0  0
   15.9796  -10.2706   26.6313 C   0  0  0  0  0  0  0  0  0  0  0  0
   14.6214  -10.1572   27.3917 C   0  0  1  0  0  0  0  0  0  0  0  0
   14.7224  -10.7383   28.8944 C   0  0  1  0  0  0  0  0  0  0  0  0
   13.3663  -10.6464   29.6536 C   0  0  1  0  0  0  0  0  0  0  0  0
   12.9359   -9.1228   29.6669 C   0  0  1  0  0  0  0  0  0  0  0  0
   12.8970   -8.5943   28.1907 C   0  0  2  0  0  0  0  0  0  0  0  0
   10.9770  -10.0716   31.1362 C   0  0  0  0  0  0  0  0  0  0  0  0
   17.6049  -11.9776   25.8435 N   0  0  0  0  0  0  0  0  0  0  0  0
   11.5857   -8.9356   30.3534 N   0  0  0  0  0  0  0  0  0  0  0  0
   17.4913  -11.6781   28.7830 O   0  0  0  0  0  0  0  0  0  0  0  0
   15.1711  -12.1357   28.8202 O   0  0  0  0  0  0  0  0  0  0  0  0
   14.1947   -8.7649   27.4733 O   0  0  0  0  0  0  0  0  0  0  0  0
   12.4343  -11.4695   28.9503 O   0  0  0  0  0  0  0  0  0  0  0  0
   12.5825   -7.2497   28.2040 O   0  0  0  0  0  0  0  0  0  0  0  0
   11.5172   -6.9053   27.3021 C   0  0  2  0  0  0  0  0  0  0  0  0
   10.3220   -7.8706   27.4898 C   0  0  1  0  0  0  0  0  0  0  0  0
   10.6814   -9.3273   27.0645 C   0  0  2  0  0  0  0  0  0  0  0  0
   11.1314   -9.3323   25.5737 C   0  0  1  0  0  0  0  0  0  0  0  0
   12.4022   -8.3900   25.4726 C   0  0  1  0  0  0  0  0  0  0  0  0
   12.9332   -8.2977   24.0449 C   0  0  0  0  0  0  0  0  0  0  0  0
   11.4754  -10.7240   25.1646 N   0  0  0  0  0  0  0  0  0  0  0  0
   12.0096   -7.0015   25.9033 O   0  0  0  0  0  0  0  0  0  0  0  0
    9.9250   -7.7949   28.8724 O   0  0  0  0  0  0  0  0  0  0  0  0
    9.5316  -10.1328   27.2181 O   0  0  0  0  0  0  0  0  0  0  0  0
   13.6861   -7.1223   23.9014 O   0  0  0  0  0  0  0  0  0  0  0  0
   17.2623  -11.6137   30.1755 C   0  0  1  0  0  0  0  0  0  0  0  0
   18.3104  -12.5309   30.8840 C   0  0  1  0  0  0  0  0  0  0  0  0
   18.0494  -12.4941   32.4181 C   0  0  2  0  0  0  0  0  0  0  0  0
   18.1613  -11.0373   32.9646 C   0  0  1  0  0  0  0  0  0  0  0  0
   17.1148  -10.1018   32.2473 C   0  0  0  0  0  0  0  0  0  0  0  0
   17.3879  -10.1372   30.6864 C   0  0  2  0  0  0  0  0  0  0  0  0
   17.9025  -11.0278   34.4311 N   0  0  0  0  0  0  0  0  0  0  0  0
   16.4039   -9.2537   30.0214 N   0  0  0  0  0  0  0  0  0  0  0  0
   18.1845  -13.8873   30.4177 O   0  0  0  0  0  0  0  0  0  0  0  0
   19.0164  -13.3273   33.0359 O   0  0  0  0  0  0  0  0  0  0  0  0
  1  2  1  0  0  0  0
  1 12  1  1  0  0  0
  1 13  1  0  0  0  0
  2  3  1  0  0  0  0
  2 10  1  1  0  0  0
  4  3  1  1  0  0  0
  4  5  1  0  0  0  0
  4 14  1  0  0  0  0
  5  6  1  0  0  0  0
  5 13  1  6  0  0  0
  6  7  1  0  0  0  0
  6 15  1  6  0  0  0
  7  8  1  0  0  0  0
  7 11  1  6  0  0  0
  8 14  1  0  0  0  0
  8 16  1  1  0  0  0
  9 11  1  0  0  0  0
 17 16  1  1  0  0  0
 17 18  1  0  0  0  0
 17 24  1  0  0  0  0
 18 19  1  0  0  0  0
 18 25  1  1  0  0  0
 19 20  1  0  0  0  0
 19 26  1  6  0  0  0
 20 21  1  0  0  0  0
 20 23  1  1  0  0  0
 21 22  1  6  0  0  0
 21 24  1  0  0  0  0
 22 27  1  0  0  0  0
 28 12  1  6  0  0  0
 28 29  1  0  0  0  0
 28 33  1  0  0  0  0
 29 30  1  0  0  0  0
 29 36  1  6  0  0  0
 30 31  1  0  0  0  0
 30 37  1  1  0  0  0
 31 32  1  0  0  0  0
 31 34  1  1  0  0  0
 32 33  1  0  0  0  0
 33 35  1  6  0  0  0
M  END
>  <CHROM.1>
150.90382907,11.68996616,-130.23404468,48.78158074,157.85627100,112.36327583
14.37247974,-10.10938433,28.63517991,-0.62153098,0.46979059,-1.49565909

>  <Name>
2oe8_lig

>  <RI>
0

>  <Rbt.Current_Directory>
/home/itssahil/PROJECTS/Mol_Feturizer/New_Systems/rnas/2oe8

>  <Rbt.Executable>
rbdock ($Id: //depot/dev/client3/rdock/2013.1/src/exe/rbdock.cxx#4 $)

>  <Rbt.Library>
libRbt.so (2013.1, Build901 2013/11/27)

>  <Rbt.Parameter_File>
/export/apps/rDock/src/rDock_2013.1_src/data/scripts/dock_solv.prm

>  <Rbt.Receptor>
prm/blind_docking_40.prm

>  <SCORE>
47.7099

>  <SCORE.INTER>
2.64697

>  <SCORE.INTER.CONST>
1

>  <SCORE.INTER.POLAR>
-1.27769

>  <SCORE.INTER.ROT>
6

>  <SCORE.INTER.SOLV>
23.311

>  <SCORE.INTER.VDW>
-9.34672

>  <SCORE.INTER.norm>
0.0715398

>  <SCORE.INTRA>
15.6827

>  <SCORE.INTRA.DIHEDRAL>
3.88176

>  <SCORE.INTRA.DIHEDRAL.0>
16.4056

>  <SCORE.INTRA.POLAR>
0

>  <SCORE.INTRA.POLAR.0>
0

>  <SCORE.INTRA.REPUL>
0

>  <SCORE.INTRA.REPUL.0>
0

>  <SCORE.INTRA.SOLV>
6.55398

>  <SCORE.INTRA.SOLV.lig_0>
-90.9627

>  <SCORE.INTRA.VDW>
10.4648

>  <SCORE.INTRA.VDW.0>
-3.28744

>  <SCORE.INTRA.norm>
0.423857

>  <SCORE.RESTR>
29.3802

>  <SCORE.RESTR.CAVITY>
29.3802

>  <SCORE.RESTR.norm>
0.794059

>  <SCORE.SYSTEM>
0

>  <SCORE.SYSTEM.CONST>
0

>  <SCORE.SYSTEM.DIHEDRAL>
0

>  <SCORE.SYSTEM.SOLV>
0

>  <SCORE.SYSTEM.norm>
0

>  <SCORE.heavy>
37

>  <SCORE.norm>
1.28946

>  <RMSD>
25.720

$$$$
2oe8_lig
 OpenBabel11021811463D
libRbt.so/2013.1/901 2013/11/27
 37 40  0  0  0  0  0  0  0  0999 V2000
   16.3762  -12.3733   28.0309 C   0  0  1  0  0  0  0  0  0  0  0  0
   16.3145  -11.7626   26.5795 C   0  0  1  0  0  0  0  0  0  0  0  0
   16.0285  -10.2494   26.6739 C   0  0  0  0  0  0  0  0  0  0  0  0
   14.6568  -10.1129   27.4058 C   0  0  1  0  0  0  0  0  0  0  0  0
   14.6986  -10.7530   28.8873 C   0  0  1  0  0  0  0  0  0  0  0  0
   13.3283  -10.6380   29.6173 C   0  0  1  0  0  0  0  0  0  0  0  0
   12.9544   -9.1007   29.6784 C   0  0  1  0  0  0  0  0  0  0  0  0
   12.9720   -8.5166   28.2229 C   0  0  2  0  0  0  0  0  0  0  0  0
   10.9433  -10.0174   31.0969 C   0  0  0  0  0  0  0  0  0  0  0  0
   17.6087  -11.9863   25.8603 N   0  0  0  0  0  0  0  0  0  0  0  0
   11.5953   -8.8881   30.3395 N   0  0  0  0  0  0  0  0  0  0  0  0
   17.4328  -11.7922   28.8055 O   0  0  0  0  0  0  0  0  0  0  0  0
   15.0971  -12.1626   28.7706 O   0  0  0  0  0  0  0  0  0  0  0  0
   14.2800   -8.7095   27.5303 O   0  0  0  0  0  0  0  0  0  0  0  0
   12.3844  -11.3985   28.8613 O   0  0  0  0  0  0  0  0  0  0  0  0
   12.7072   -7.1625   28.2800 O   0  0  0  0  0  0  0  0  0  0  0  0
   11.7432   -6.7293   27.3053 C   0  0  2  0  0  0  0  0  0  0  0  0
   10.5385   -7.7005   27.2736 C   0  0  1  0  0  0  0  0  0  0  0  0
   10.9469   -9.1137   26.7557 C   0  0  2  0  0  0  0  0  0  0  0  0
   11.5539   -8.9831   25.3276 C   0  0  1  0  0  0  0  0  0  0  0  0
   12.8247   -8.0433   25.4510 C   0  0  1  0  0  0  0  0  0  0  0  0
   13.5050   -7.8223   24.1030 C   0  0  0  0  0  0  0  0  0  0  0  0
   11.9450  -10.3329   24.8301 N   0  0  0  0  0  0  0  0  0  0  0  0
   12.3829   -6.6984   25.9643 O   0  0  0  0  0  0  0  0  0  0  0  0
    9.9955   -7.7509   28.6068 O   0  0  0  0  0  0  0  0  0  0  0  0
    9.7904   -9.9228   26.7099 O   0  0  0  0  0  0  0  0  0  0  0  0
   14.1799   -8.9924   23.7228 O   0  0  0  0  0  0  0  0  0  0  0  0
   17.1246  -11.6652   30.1784 C   0  0  1  0  0  0  0  0  0  0  0  0
   18.0222  -12.6672   30.9733 C   0  0  1  0  0  0  0  0  0  0  0  0
   17.6704  -12.5603   32.4859 C   0  0  2  0  0  0  0  0  0  0  0  0
   17.9023  -11.1085   33.0076 C   0  0  1  0  0  0  0  0  0  0  0  0
   17.0089  -10.0887   32.2035 C   0  0  0  0  0  0  0  0  0  0  0  0
   17.3745  -10.1963   30.6650 C   0  0  2  0  0  0  0  0  0  0  0  0
   17.5541  -11.0308   34.4534 N   0  0  0  0  0  0  0  0  0  0  0  0
   16.5342   -9.2333   29.9182 N   0  0  0  0  0  0  0  0  0  0  0  0
   17.7820  -14.0154   30.5285 O   0  0  0  0  0  0  0  0  0  0  0  0
   18.5021  -13.4728   33.1833 O   0  0  0  0  0  0  0  0  0  0  0  0
  1  2  1  0  0  0  0
  1 12  1  1  0  0  0
  1 13  1  0  0  0  0
  2  3  1  0  0  0  0
  2 10  1  1  0  0  0
  4  3  1  1  0  0  0
  4  5  1  0  0  0  0
  4 14  1  0  0  0  0
  5  6  1  0  0  0  0
  5 13  1  6  0  0  0
  6  7  1  0  0  0  0
  6 15  1  6  0  0  0
  7  8  1  0  0  0  0
  7 11  1  6  0  0  0
  8 14  1  0  0  0  0
  8 16  1  1  0  0  0
  9 11  1  0  0  0  0
 17 16  1  1  0  0  0
 17 18  1  0  0  0  0
 17 24  1  0  0  0  0
 18 19  1  0  0  0  0
 18 25  1  1  0  0  0
 19 20  1  0  0  0  0
 19 26  1  6  0  0  0
 20 21  1  0  0  0  0
 20 23  1  1  0  0  0
 21 22  1  6  0  0  0
 21 24  1  0  0  0  0
 22 27  1  0  0  0  0
 28 12  1  6  0  0  0
 28 29  1  0  0  0  0
 28 33  1  0  0  0  0
 29 30  1  0  0  0  0
 29 36  1  6  0  0  0
 30 31  1  0  0  0  0
 30 37  1  1  0  0  0
 31 32  1  0  0  0  0
 31 34  1  1  0  0  0
 32 33  1  0  0  0  0
 33 35  1  6  0  0  0
M  END
>  <CHROM.1>
145.73045508,13.40367273,-134.18178381,45.45417850,-73.07168283,111.11219450
14.41348064,-10.10424413,28.59021107,-0.66359378,0.52756426,-1.50807104

>  <Name>
2oe8_lig

>  <RI>
0

>  <Rbt.Current_Directory>
/home/itssahil/PROJECTS/Mol_Feturizer/New_Systems/rnas/2oe8

>  <Rbt.Executable>
rbdock ($Id: //depot/dev/client3/rdock/2013.1/src/exe/rbdock.cxx#4 $)

>  <Rbt.Library>
libRbt.so (2013.1, Build901 2013/11/27)

>  <Rbt.Parameter_File>
/export/apps/rDock/src/rDock_2013.1_src/data/scripts/dock_solv.prm

>  <Rbt.Receptor>
prm/blind_docking_40.prm

>  <SCORE>
47.2117

>  <SCORE.INTER>
4.15157

>  <SCORE.INTER.CONST>
1

>  <SCORE.INTER.POLAR>
-1.25021

>  <SCORE.INTER.ROT>
6

>  <SCORE.INTER.SOLV>
22.348

>  <SCORE.INTER.VDW>
-8.11424

>  <SCORE.INTER.norm>
0.112205

>  <SCORE.INTRA>
15.6917

>  <SCORE.INTRA.DIHEDRAL>
3.67294

>  <SCORE.INTRA.DIHEDRAL.0>
16.4056

>  <SCORE.INTRA.POLAR>
0

>  <SCORE.INTRA.POLAR.0>
0

>  <SCORE.INTRA.REPUL>
0

>  <SCORE.INTRA.REPUL.0>
0

>  <SCORE.INTRA.SOLV>
7.44011

>  <SCORE.INTRA.SOLV.lig_0>
-90.9627

>  <SCORE.INTRA.VDW>
10.1352

>  <SCORE.INTRA.VDW.0>
-3.28744

>  <SCORE.INTRA.norm>
0.4241

>  <SCORE.RESTR>
27.3684

>  <SCORE.RESTR.CAVITY>
27.3684

>  <SCORE.RESTR.norm>
0.739686

>  <SCORE.SYSTEM>
0

>  <SCORE.SYSTEM.CONST>
0

>  <SCORE.SYSTEM.DIHEDRAL>
0

>  <SCORE.SYSTEM.SOLV>
0

>  <SCORE.SYSTEM.norm>
0

>  <SCORE.heavy>
37

>  <SCORE.norm>
1.27599

>  <RMSD>
25.731

$$$$
2oe8_lig
 OpenBabel11021811463D
libRbt.so/2013.1/901 2013/11/27
 37 40  0  0  0  0  0  0  0  0999 V2000
   16.6876  -11.6742   28.3860 C   0  0  1  0  0  0  0  0  0  0  0  0
   16.2399  -11.8241   26.8825 C   0  0  1  0  0  0  0  0  0  0  0  0
   15.3130  -10.6494   26.5062 C   0  0  0  0  0  0  0  0  0  0  0  0
   14.0912  -10.7349   27.4735 C   0  0  1  0  0  0  0  0  0  0  0  0
   14.5369  -10.6036   29.0195 C   0  0  1  0  0  0  0  0  0  0  0  0
   13.3257  -10.7071   29.9923 C   0  0  1  0  0  0  0  0  0  0  0  0
   12.3072   -9.5600   29.6005 C   0  0  1  0  0  0  0  0  0  0  0  0
   11.9416   -9.7037   28.0821 C   0  0  2  0  0  0  0  0  0  0  0  0
   11.0129  -10.5223   31.6730 C   0  0  0  0  0  0  0  0  0  0  0  0
   17.4330  -11.8336   25.9778 N   0  0  0  0  0  0  0  0  0  0  0  0
   11.0565   -9.6090   30.4740 N   0  0  0  0  0  0  0  0  0  0  0  0
   17.4295  -10.4668   28.5998 O   0  0  0  0  0  0  0  0  0  0  0  0
   15.5153  -11.6609   29.3098 O   0  0  0  0  0  0  0  0  0  0  0  0
   13.1354   -9.6712   27.1868 O   0  0  0  0  0  0  0  0  0  0  0  0
   12.7662  -12.0114   29.8293 O   0  0  0  0  0  0  0  0  0  0  0  0
   11.1022   -8.6676   27.7231 O   0  0  0  0  0  0  0  0  0  0  0  0
   11.7763   -7.4031   27.6062 C   0  0  2  0  0  0  0  0  0  0  0  0
   10.7668   -6.2886   27.2395 C   0  0  1  0  0  0  0  0  0  0  0  0
   10.1664   -6.4964   25.8152 C   0  0  2  0  0  0  0  0  0  0  0  0
   11.3199   -6.5251   24.7694 C   0  0  1  0  0  0  0  0  0  0  0  0
   12.2663   -7.7355   25.1600 C   0  0  1  0  0  0  0  0  0  0  0  0
   13.4550   -7.8607   24.2112 C   0  0  0  0  0  0  0  0  0  0  0  0
   10.7484   -6.7234   23.4068 N   0  0  0  0  0  0  0  0  0  0  0  0
   12.8107   -7.4962   26.5434 O   0  0  0  0  0  0  0  0  0  0  0  0
    9.7486   -6.2827   28.2583 O   0  0  0  0  0  0  0  0  0  0  0  0
    9.2971   -5.4189   25.5367 O   0  0  0  0  0  0  0  0  0  0  0  0
   13.5387   -9.1793   23.7386 O   0  0  0  0  0  0  0  0  0  0  0  0
   17.9934  -10.3698   29.8915 C   0  0  1  0  0  0  0  0  0  0  0  0
   16.8261  -10.2940   30.9276 C   0  0  1  0  0  0  0  0  0  0  0  0
   17.4334  -10.1549   32.3541 C   0  0  2  0  0  0  0  0  0  0  0  0
   18.3592  -11.3667   32.6830 C   0  0  1  0  0  0  0  0  0  0  0  0
   19.5339  -11.4579   31.6359 C   0  0  0  0  0  0  0  0  0  0  0  0
   18.9115  -11.6056   30.1857 C   0  0  2  0  0  0  0  0  0  0  0  0
   18.9314  -11.2077   34.0486 N   0  0  0  0  0  0  0  0  0  0  0  0
   20.0208  -11.6944   29.2096 N   0  0  0  0  0  0  0  0  0  0  0  0
   15.9914   -9.1521   30.6582 O   0  0  0  0  0  0  0  0  0  0  0  0
   16.3552  -10.0953   33.2733 O   0  0  0  0  0  0  0  0  0  0  0  0
  1  2  1  0  0  0  0
  1 12  1  6  0  0  0
  1 13  1  0  0  0  0
  2  3  1  0  0  0  0
  2 10  1  6  0  0  0
  4  3  1  6  0  0  0
  4  5  1  0  0  0  0
  4 14  1  0  0  0  0
  5  6  1  0  0  0  0
  5 13  1  1  0  0  0
  6  7  1  0  0  0  0
  6 15  1  6  0  0  0
  7  8  1  0  0  0  0
  7 11  1  1  0  0  0
  8 14  1  0  0  0  0
  8 16  1  6  0  0  0
  9 11  1  0  0  0  0
 17 16  1  6  0  0  0
 17 18  1  0  0  0  0
 17 24  1  0  0  0  0
 18 19  1  0  0  0  0
 18 25  1  1  0  0  0
 19 20  1  0  0  0  0
 19 26  1  6  0  0  0
 20 21  1  0  0  0  0
 20 23  1  6  0  0  0
 21 22  1  6  0  0  0
 21 24  1  0  0  0  0
 22 27  1  0  0  0  0
 28 12  1  6  0  0  0
 28 29  1  0  0  0  0
 28 33  1  0  0  0  0
 29 30  1  0  0  0  0
 29 36  1  6  0  0  0
 30 31  1  0  0  0  0
 30 37  1  1  0  0  0
 31 32  1  0  0  0  0
 31 34  1  1  0  0  0
 32 33  1  0  0  0  0
 33 35  1  6  0  0  0
M  END
>  <CHROM.1>
-172.55669343,9.32467923,73.97621921,-178.49224918,-128.59393508,-64.72091170
14.28166187,-9.56812899,28.47548973,-0.63922378,0.43466170,-1.43017548

>  <Name>
2oe8_lig

>  <RI>
0

>  <Rbt.Current_Directory>
/home/itssahil/PROJECTS/Mol_Feturizer/New_Systems/rnas/2oe8

>  <Rbt.Executable>
rbdock ($Id: //depot/dev/client3/rdock/2013.1/src/exe/rbdock.cxx#4 $)

>  <Rbt.Library>
libRbt.so (2013.1, Build901 2013/11/27)

>  <Rbt.Parameter_File>
/export/apps/rDock/src/rDock_2013.1_src/data/scripts/dock_solv.prm

>  <Rbt.Receptor>
prm/blind_docking_40.prm

>  <SCORE>
33.3668

>  <SCORE.INTER>
0.304665

>  <SCORE.INTER.CONST>
1

>  <SCORE.INTER.POLAR>
-0.470791

>  <SCORE.INTER.ROT>
6

>  <SCORE.INTER.SOLV>
20.1782

>  <SCORE.INTER.VDW>
-12.5536

>  <SCORE.INTER.norm>
0.00823418

>  <SCORE.INTRA>
4.48533

>  <SCORE.INTRA.DIHEDRAL>
-8.88979

>  <SCORE.INTRA.DIHEDRAL.0>
16.4056

>  <SCORE.INTRA.POLAR>
0

>  <SCORE.INTRA.POLAR.0>
0

>  <SCORE.INTRA.REPUL>
0

>  <SCORE.INTRA.REPUL.0>
0

>  <SCORE.INTRA.SOLV>
-0.447745

>  <SCORE.INTRA.SOLV.lig_0>
-90.9627

>  <SCORE.INTRA.VDW>
9.1541

>  <SCORE.INTRA.VDW.0>
-3.28744

>  <SCORE.INTRA.norm>
0.121225

>  <SCORE.RESTR>
28.5768

>  <SCORE.RESTR.CAVITY>
28.5768

>  <SCORE.RESTR.norm>
0.772346

>  <SCORE.SYSTEM>
0

>  <SCORE.SYSTEM.CONST>
0

>  <SCORE.SYSTEM.DIHEDRAL>
0

>  <SCORE.SYSTEM.SOLV>
0

>  <SCORE.SYSTEM.norm>
0

>  <SCORE.heavy>
37

>  <SCORE.norm>
0.901805

>  <RMSD>
25.736

$$$$
2oe8_lig
 OpenBabel11021811463D
libRbt.so/2013.1/901 2013/11/27
 37 40  0  0  0  0  0  0  0  0999 V2000
   16.5618  -11.7254   28.5475 C   0  0  1  0  0  0  0  0  0  0  0  0
   16.3986  -11.5647   26.9884 C   0  0  1  0  0  0  0  0  0  0  0  0
   15.9755  -10.1164   26.6658 C   0  0  0  0  0  0  0  0  0  0  0  0
   14.6203   -9.8864   27.4050 C   0  0  1  0  0  0  0  0  0  0  0  0
   14.7674  -10.0681   29.0023 C   0  0  1  0  0  0  0  0  0  0  0  0
   13.4155   -9.8591   29.7457 C   0  0  1  0  0  0  0  0  0  0  0  0
   12.9017   -8.4045   29.3894 C   0  0  1  0  0  0  0  0  0  0  0  0
   12.8198   -8.2639   27.8295 C   0  0  2  0  0  0  0  0  0  0  0  0
   10.4722   -9.1759   30.0210 C   0  0  0  0  0  0  0  0  0  0  0  0
   17.6852  -11.8805   26.2904 N   0  0  0  0  0  0  0  0  0  0  0  0
   11.5498   -8.1212   30.0385 N   0  0  0  0  0  0  0  0  0  0  0  0
   17.5828  -10.8629   29.0648 O   0  0  0  0  0  0  0  0  0  0  0  0
   15.2920  -11.4149   29.2679 O   0  0  0  0  0  0  0  0  0  0  0  0
   14.1181   -8.5416   27.1475 O   0  0  0  0  0  0  0  0  0  0  0  0
   12.5239  -10.8783   29.2908 O   0  0  0  0  0  0  0  0  0  0  0  0
   12.4316   -6.9765   27.5151 O   0  0  0  0  0  0  0  0  0  0  0  0
   11.6220   -6.8994   26.3296 C   0  0  2  0  0  0  0  0  0  0  0  0
   10.6147   -8.0740   26.2903 C   0  0  1  0  0  0  0  0  0  0  0  0
   11.3337   -9.4489   26.1326 C   0  0  2  0  0  0  0  0  0  0  0  0
   12.1811   -9.4399   24.8261 C   0  0  1  0  0  0  0  0  0  0  0  0
   13.2392   -8.2682   24.9710 C   0  0  1  0  0  0  0  0  0  0  0  0
   14.1276   -8.1447   23.7364 C   0  0  0  0  0  0  0  0  0  0  0  0
   12.8694  -10.7534   24.6730 N   0  0  0  0  0  0  0  0  0  0  0  0
   12.4995   -6.9665   25.1322 O   0  0  0  0  0  0  0  0  0  0  0  0
    9.8354   -8.0087   27.5000 O   0  0  0  0  0  0  0  0  0  0  0  0
   10.3505  -10.4597   26.0561 O   0  0  0  0  0  0  0  0  0  0  0  0
   13.3294   -7.8965   22.6093 O   0  0  0  0  0  0  0  0  0  0  0  0
   17.8947  -11.1047   30.4213 C   0  0  1  0  0  0  0  0  0  0  0  0
   16.6275  -10.7822   31.2769 C   0  0  1  0  0  0  0  0  0  0  0  0
   16.9668  -11.0142   32.7782 C   0  0  2  0  0  0  0  0  0  0  0  0
   17.4141  -12.4883   33.0240 C   0  0  1  0  0  0  0  0  0  0  0  0
   18.6859  -12.8263   32.1562 C   0  0  0  0  0  0  0  0  0  0  0  0
   18.3342  -12.5949   30.6281 C   0  0  2  0  0  0  0  0  0  0  0  0
   17.7380  -12.6833   34.4644 N   0  0  0  0  0  0  0  0  0  0  0  0
   19.5320  -12.9180   29.8205 N   0  0  0  0  0  0  0  0  0  0  0  0
   16.2336   -9.4099   31.0901 O   0  0  0  0  0  0  0  0  0  0  0  0
   15.8005  -10.7217   33.5298 O   0  0  0  0  0  0  0  0  0  0  0  0
  1  2  1  0  0  0  0
  1 12  1  1  0  0  0
  1 13  1  0  0  0  0
  2  3  1  0  0  0  0
  2 10  1  6  0  0  0
  4  3  1  6  0  0  0
  4  5  1  0  0  0  0
  4 14  1  0  0  0  0
  5  6  1  0  0  0  0
  5 13  1  6  0  0  0
  6  7  1  0  0  0  0
  6 15  1  6  0  0  0
  7  8  1  0  0  0  0
  7 11  1  1  0  0  0
  8 14  1  0  0  0  0
  8 16  1  1  0  0  0
  9 11  1  0  0  0  0
 17 16  1  1  0  0  0
 17 18  1  0  0  0  0
 17 24  1  0  0  0  0
 18 19  1  0  0  0  0
 18 25  1  1  0  0  0
 19 20  1  0  0  0  0
 19 26  1  6  0  0  0
 20 21  1  0  0  0  0
 20 23  1  1  0  0  0
 21 22  1  6  0  0  0
 21 24  1  0  0  0  0
 22 27  1  0  0  0  0
 28 12  1  6  0  0  0
 28 29  1  0  0  0  0
 28 33  1  0  0  0  0
 29 30  1  0  0  0  0
 29 36  1  1  0  0  0
 30 31  1  0  0  0  0
 30 37  1  1  0  0  0
 31 32  1  0  0  0  0
 31 34  1  1  0  0  0
 32 33  1  0  0  0  0
 33 35  1  6  0  0  0
M  END
>  <CHROM.1>
-171.61533582,-43.25490750,-146.68911715,40.38257607,59.25157721,-64.06024911
14.44979843,-9.93253345,28.40474135,-0.78297352,0.46261781,-1.45271672

>  <Name>
2oe8_lig

>  <RI>
0

>  <Rbt.Current_Directory>
/home/itssahil/PROJECTS/Mol_Feturizer/New_Systems/rnas/2oe8

>  <Rbt.Executable>
rbdock ($Id: //depot/dev/client3/rdock/2013.1/src/exe/rbdock.cxx#4 $)

>  <Rbt.Library>
libRbt.so (2013.1, Build901 2013/11/27)

>  <Rbt.Parameter_File>
/export/apps/rDock/src/rDock_2013.1_src/data/scripts/dock_solv.prm

>  <Rbt.Receptor>
prm/blind_docking_40.prm

>  <SCORE>
44.6685

>  <SCORE.INTER>
2.47545

>  <SCORE.INTER.CONST>
1

>  <SCORE.INTER.POLAR>
-0.760145

>  <SCORE.INTER.ROT>
6

>  <SCORE.INTER.SOLV>
18.532

>  <SCORE.INTER.VDW>
-9.59323

>  <SCORE.INTER.norm>
0.066904

>  <SCORE.INTRA>
13.953

>  <SCORE.INTRA.DIHEDRAL>
-9.77973

>  <SCORE.INTRA.DIHEDRAL.0>
16.4056

>  <SCORE.INTRA.POLAR>
0

>  <SCORE.INTRA.POLAR.0>
0

>  <SCORE.INTRA.REPUL>
0

>  <SCORE.INTRA.REPUL.0>
0

>  <SCORE.INTRA.SOLV>
3.86703

>  <SCORE.INTRA.SOLV.lig_0>
-90.9627

>  <SCORE.INTRA.VDW>
16.9094

>  <SCORE.INTRA.VDW.0>
-3.28744

>  <SCORE.INTRA.norm>
0.377109

>  <SCORE.RESTR>
28.2401

>  <SCORE.RESTR.CAVITY>
28.2401

>  <SCORE.RESTR.norm>
0.763245

>  <SCORE.SYSTEM>
0

>  <SCORE.SYSTEM.CONST>
0

>  <SCORE.SYSTEM.DIHEDRAL>
0

>  <SCORE.SYSTEM.SOLV>
0

>  <SCORE.SYSTEM.norm>
0

>  <SCORE.heavy>
37

>  <SCORE.norm>
1.20726

>  <RMSD>
25.736

$$$$
2oe8_lig
 OpenBabel11021811463D
libRbt.so/2013.1/901 2013/11/27
 37 40  0  0  0  0  0  0  0  0999 V2000
   16.3716  -12.3222   28.0379 C   0  0  1  0  0  0  0  0  0  0  0  0
   16.3022  -11.7248   26.5813 C   0  0  1  0  0  0  0  0  0  0  0  0
   16.0051  -10.2129   26.6631 C   0  0  0  0  0  0  0  0  0  0  0  0
   14.6340  -10.0803   27.3968 C   0  0  1  0  0  0  0  0  0  0  0  0
   14.6837  -10.7070   28.8837 C   0  0  1  0  0  0  0  0  0  0  0  0
   13.3141  -10.5959   29.6156 C   0  0  1  0  0  0  0  0  0  0  0  0
   12.9288   -9.0609   29.6641 C   0  0  1  0  0  0  0  0  0  0  0  0
   12.9390   -8.4895   28.2035 C   0  0  2  0  0  0  0  0  0  0  0  0
   10.9056   -9.9944   31.0540 C   0  0  0  0  0  0  0  0  0  0  0  0
   17.5966  -11.9451   25.8613 N   0  0  0  0  0  0  0  0  0  0  0  0
   11.5695   -8.8527   30.3263 N   0  0  0  0  0  0  0  0  0  0  0  0
   17.4254  -11.7265   28.8051 O   0  0  0  0  0  0  0  0  0  0  0  0
   15.0924  -12.1146   28.7785 O   0  0  0  0  0  0  0  0  0  0  0  0
   14.2469   -8.6787   27.5098 O   0  0  0  0  0  0  0  0  0  0  0  0
   12.3743  -11.3700   28.8684 O   0  0  0  0  0  0  0  0  0  0  0  0
   12.6642   -7.1369   28.2493 O   0  0  0  0  0  0  0  0  0  0  0  0
   11.6968   -6.7191   27.2714 C   0  0  2  0  0  0  0  0  0  0  0  0
   10.5069   -7.7084   27.2367 C   0  0  1  0  0  0  0  0  0  0  0  0
   10.9382   -9.1157   26.7213 C   0  0  2  0  0  0  0  0  0  0  0  0
   11.5475   -8.9770   25.2949 C   0  0  1  0  0  0  0  0  0  0  0  0
   12.8036   -8.0181   25.4214 C   0  0  1  0  0  0  0  0  0  0  0  0
   13.4846   -7.7878   24.0752 C   0  0  0  0  0  0  0  0  0  0  0  0
   11.9605  -10.3212   24.7997 N   0  0  0  0  0  0  0  0  0  0  0  0
   12.3400   -6.6796   25.9323 O   0  0  0  0  0  0  0  0  0  0  0  0
    9.9607   -7.7660   28.5684 O   0  0  0  0  0  0  0  0  0  0  0  0
    9.7942   -9.9422   26.6727 O   0  0  0  0  0  0  0  0  0  0  0  0
   14.2433   -8.9185   23.7360 O   0  0  0  0  0  0  0  0  0  0  0  0
   17.1449  -11.6481   30.1875 C   0  0  1  0  0  0  0  0  0  0  0  0
   18.0937  -12.6404   30.9336 C   0  0  1  0  0  0  0  0  0  0  0  0
   17.7735  -12.5874   32.4560 C   0  0  2  0  0  0  0  0  0  0  0  0
   17.9684  -11.1436   33.0135 C   0  0  1  0  0  0  0  0  0  0  0  0
   17.0229  -10.1332   32.2587 C   0  0  0  0  0  0  0  0  0  0  0  0
   17.3564  -10.1856   30.7101 C   0  0  2  0  0  0  0  0  0  0  0  0
   17.6512  -11.1179   34.4683 N   0  0  0  0  0  0  0  0  0  0  0  0
   16.4672   -9.2316   30.0097 N   0  0  0  0  0  0  0  0  0  0  0  0
   17.8887  -13.9832   30.4561 O   0  0  0  0  0  0  0  0  0  0  0  0
   18.6513  -13.4899   33.1087 O   0  0  0  0  0  0  0  0  0  0  0  0
  1  2  1  0  0  0  0
  1 12  1  1  0  0  0
  1 13  1  0  0  0  0
  2  3  1  0  0  0  0
  2 10  1  1  0  0  0
  4  3  1  1  0  0  0
  4  5  1  0  0  0  0
  4 14  1  0  0  0  0
  5  6  1  0  0  0  0
  5 13  1  6  0  0  0
  6  7  1  0  0  0  0
  6 15  1  6  0  0  0
  7  8  1  0  0  0  0
  7 11  1  6  0  0  0
  8 14  1  0  0  0  0
  8 16  1  1  0  0  0
  9 11  1  0  0  0  0
 17 16  1  1  0  0  0
 17 18  1  0  0  0  0
 17 24  1  0  0  0  0
 18 19  1  0  0  0  0
 18 25  1  1  0  0  0
 19 20  1  0  0  0  0
 19 26  1  6  0  0  0
 20 21  1  0  0  0  0
 20 23  1  1  0  0  0
 21 22  1  6  0  0  0
 21 24  1  0  0  0  0
 22 27  1  0  0  0  0
 28 12  1  6  0  0  0
 28 29  1  0  0  0  0
 28 33  1  0  0  0  0
 29 30  1  0  0  0  0
 29 36  1  6  0  0  0
 30 31  1  0  0  0  0
 30 37  1  1  0  0  0
 31 32  1  0  0  0  0
 31 34  1  1  0  0  0
 32 33  1  0  0  0  0
 33 35  1  6  0  0  0
M  END
>  <CHROM.1>
148.58939473,11.27550094,-134.28788195,44.80474023,-76.57443313,111.08997208
14.41633201,-10.08703841,28.57727348,-0.66065140,0.52058525,-1.50392927

>  <Name>
2oe8_lig

>  <RI>
0

>  <Rbt.Current_Directory>
/home/itssahil/PROJECTS/Mol_Feturizer/New_Systems/rnas/2oe8

>  <Rbt.Executable>
rbdock ($Id: //depot/dev/client3/rdock/2013.1/src/exe/rbdock.cxx#4 $)

>  <Rbt.Library>
libRbt.so (2013.1, Build901 2013/11/27)

>  <Rbt.Parameter_File>
/export/apps/rDock/src/rDock_2013.1_src/data/scripts/dock_solv.prm

>  <Rbt.Receptor>
prm/blind_docking_40.prm

>  <SCORE>
46.9099

>  <SCORE.INTER>
3.81787

>  <SCORE.INTER.CONST>
1

>  <SCORE.INTER.POLAR>
-1.23689

>  <SCORE.INTER.ROT>
6

>  <SCORE.INTER.SOLV>
22.4921

>  <SCORE.INTER.VDW>
-8.42915

>  <SCORE.INTER.norm>
0.103186

>  <SCORE.INTRA>
15.6388

>  <SCORE.INTRA.DIHEDRAL>
3.59473

>  <SCORE.INTRA.DIHEDRAL.0>
16.4056

>  <SCORE.INTRA.POLAR>
0

>  <SCORE.INTRA.POLAR.0>
0

>  <SCORE.INTRA.REPUL>
0

>  <SCORE.INTRA.REPUL.0>
0

>  <SCORE.INTRA.SOLV>
7.34479

>  <SCORE.INTRA.SOLV.lig_0>
-90.9627

>  <SCORE.INTRA.VDW>
10.169

>  <SCORE.INTRA.VDW.0>
-3.28744

>  <SCORE.INTRA.norm>
0.42267

>  <SCORE.RESTR>
27.4532

>  <SCORE.RESTR.CAVITY>
27.4532

>  <SCORE.RESTR.norm>
0.741979

>  <SCORE.SYSTEM>
0

>  <SCORE.SYSTEM.CONST>
0

>  <SCORE.SYSTEM.DIHEDRAL>
0

>  <SCORE.SYSTEM.SOLV>
0

>  <SCORE.SYSTEM.norm>
0

>  <SCORE.heavy>
37

>  <SCORE.norm>
1.26783

>  <RMSD>
25.737

$$$$
2oe8_lig
 OpenBabel11021811463D
libRbt.so/2013.1/901 2013/11/27
 37 40  0  0  0  0  0  0  0  0999 V2000
   16.7778  -11.7928   28.6341 C   0  0  1  0  0  0  0  0  0  0  0  0
   16.6265  -11.6156   27.0755 C   0  0  1  0  0  0  0  0  0  0  0  0
   16.1248  -10.1888   26.7702 C   0  0  0  0  0  0  0  0  0  0  0  0
   14.7488  -10.0496   27.4935 C   0  0  1  0  0  0  0  0  0  0  0  0
   14.8848  -10.2494   29.0896 C   0  0  1  0  0  0  0  0  0  0  0  0
   13.5132  -10.1310   29.8168 C   0  0  1  0  0  0  0  0  0  0  0  0
   12.9211   -8.7026   29.4764 C   0  0  1  0  0  0  0  0  0  0  0  0
   12.8520   -8.5408   27.9179 C   0  0  2  0  0  0  0  0  0  0  0  0
   10.3764   -9.3322   29.6346 C   0  0  0  0  0  0  0  0  0  0  0  0
   17.9384  -11.8450   26.3912 N   0  0  0  0  0  0  0  0  0  0  0  0
   11.5464   -8.5085   30.1106 N   0  0  0  0  0  0  0  0  0  0  0  0
   17.7403  -10.8818   29.1797 O   0  0  0  0  0  0  0  0  0  0  0  0
   15.4827  -11.5680   29.3410 O   0  0  0  0  0  0  0  0  0  0  0  0
   14.1732   -8.7318   27.2503 O   0  0  0  0  0  0  0  0  0  0  0  0
   12.6882  -11.1921   29.3328 O   0  0  0  0  0  0  0  0  0  0  0  0
   12.3943   -7.2727   27.6187 O   0  0  0  0  0  0  0  0  0  0  0  0
   12.6015   -6.9022   26.2451 C   0  0  2  0  0  0  0  0  0  0  0  0
   11.3153   -6.2705   25.6598 C   0  0  1  0  0  0  0  0  0  0  0  0
   10.1511   -7.3042   25.5703 C   0  0  2  0  0  0  0  0  0  0  0  0
   10.5961   -8.5054   24.6846 C   0  0  1  0  0  0  0  0  0  0  0  0
   11.8640   -9.1497   25.3850 C   0  0  1  0  0  0  0  0  0  0  0  0
   12.4095  -10.3378   24.5979 C   0  0  0  0  0  0  0  0  0  0  0  0
    9.4845   -9.4950   24.5973 N   0  0  0  0  0  0  0  0  0  0  0  0
   12.9538   -8.1132   25.4591 O   0  0  0  0  0  0  0  0  0  0  0  0
   10.9749   -5.1458   26.4929 O   0  0  0  0  0  0  0  0  0  0  0  0
    9.0345   -6.6681   24.9846 O   0  0  0  0  0  0  0  0  0  0  0  0
   13.7066  -10.6367   25.0422 O   0  0  0  0  0  0  0  0  0  0  0  0
   18.0063  -11.0932   30.5510 C   0  0  1  0  0  0  0  0  0  0  0  0
   16.7002  -10.7884   31.3527 C   0  0  1  0  0  0  0  0  0  0  0  0
   16.9880  -10.9870   32.8695 C   0  0  2  0  0  0  0  0  0  0  0  0
   17.4614  -12.4452   33.1576 C   0  0  1  0  0  0  0  0  0  0  0  0
   18.7729  -12.7656   32.3440 C   0  0  0  0  0  0  0  0  0  0  0  0
   18.4739  -12.5683   30.8001 C   0  0  2  0  0  0  0  0  0  0  0  0
   17.7351  -12.6082   34.6123 N   0  0  0  0  0  0  0  0  0  0  0  0
   19.7089  -12.8747   30.0437 N   0  0  0  0  0  0  0  0  0  0  0  0
   16.2803   -9.4297   31.1273 O   0  0  0  0  0  0  0  0  0  0  0  0
   15.7872  -10.7114   33.5717 O   0  0  0  0  0  0  0  0  0  0  0  0
  1  2  1  0  0  0  0
  1 12  1  1  0  0  0
  1 13  1  0  0  0  0
  2  3  1  0  0  0  0
  2 10  1  6  0  0  0
  4  3  1  6  0  0  0
  4  5  1  0  0  0  0
  4 14  1  0  0  0  0
  5  6  1  0  0  0  0
  5 13  1  6  0  0  0
  6  7  1  0  0  0  0
  6 15  1  6  0  0  0
  7  8  1  0  0  0  0
  7 11  1  1  0  0  0
  8 14  1  0  0  0  0
  8 16  1  1  0  0  0
  9 11  1  0  0  0  0
 17 16  1  1  0  0  0
 17 18  1  0  0  0  0
 17 24  1  0  0  0  0
 18 19  1  0  0  0  0
 18 25  1  1  0  0  0
 19 20  1  0  0  0  0
 19 26  1  6  0  0  0
 20 21  1  0  0  0  0
 20 23  1  1  0  0  0
 21 22  1  6  0  0  0
 21 24  1  0  0  0  0
 22 27  1  0  0  0  0
 28 12  1  6  0  0  0
 28 29  1  0  0  0  0
 28 33  1  0  0  0  0
 29 30  1  0  0  0  0
 29 36  1  1  0  0  0
 30 31  1  0  0  0  0
 30 37  1  1  0  0  0
 31 32  1  0  0  0  0
 31 34  1  1  0  0  0
 32 33  1  0  0  0  0
 33 35  1  6  0  0  0
M  END
>  <CHROM.1>
-174.08106806,-67.04193282,165.55874357,133.67554255,164.13284238,-65.07114954
14.33496369,-9.84484986,28.47833056,-0.62389528,0.56634142,-1.59569878

>  <Name>
2oe8_lig

>  <RI>
0

>  <Rbt.Current_Directory>
/home/itssahil/PROJECTS/Mol_Feturizer/New_Systems/rnas/2oe8

>  <Rbt.Executable>
rbdock ($Id: //depot/dev/client3/rdock/2013.1/src/exe/rbdock.cxx#4 $)

>  <Rbt.Library>
libRbt.so (2013.1, Build901 2013/11/27)

>  <Rbt.Parameter_File>
/export/apps/rDock/src/rDock_2013.1_src/data/scripts/dock_solv.prm

>  <Rbt.Receptor>
prm/blind_docking_40.prm

>  <SCORE>
39.1066

>  <SCORE.INTER>
1.07232

>  <SCORE.INTER.CONST>
1

>  <SCORE.INTER.POLAR>
-0.579344

>  <SCORE.INTER.ROT>
6

>  <SCORE.INTER.SOLV>
18.9538

>  <SCORE.INTER.VDW>
-11.2719

>  <SCORE.INTER.norm>
0.0289815

>  <SCORE.INTRA>
7.95466

>  <SCORE.INTRA.DIHEDRAL>
-7.84663

>  <SCORE.INTRA.DIHEDRAL.0>
16.4056

>  <SCORE.INTRA.POLAR>
0

>  <SCORE.INTRA.POLAR.0>
0

>  <SCORE.INTRA.REPUL>
0

>  <SCORE.INTRA.REPUL.0>
0

>  <SCORE.INTRA.SOLV>
-0.299193

>  <SCORE.INTRA.SOLV.lig_0>
-90.9627

>  <SCORE.INTRA.VDW>
12.0276

>  <SCORE.INTRA.VDW.0>
-3.28744

>  <SCORE.INTRA.norm>
0.214991

>  <SCORE.RESTR>
30.0796

>  <SCORE.RESTR.CAVITY>
30.0796

>  <SCORE.RESTR.norm>
0.812963

>  <SCORE.SYSTEM>
0

>  <SCORE.SYSTEM.CONST>
0

>  <SCORE.SYSTEM.DIHEDRAL>
0

>  <SCORE.SYSTEM.SOLV>
0

>  <SCORE.SYSTEM.norm>
0

>  <SCORE.heavy>
37

>  <SCORE.norm>
1.05694

>  <RMSD>
25.744

$$$$
2oe8_lig
 OpenBabel11021811463D
libRbt.so/2013.1/901 2013/11/27
 37 40  0  0  0  0  0  0  0  0999 V2000
   16.2972  -12.5532   28.0019 C   0  0  1  0  0  0  0  0  0  0  0  0
   16.3616  -11.8450   26.5956 C   0  0  1  0  0  0  0  0  0  0  0  0
   16.1136  -10.3326   26.7737 C   0  0  0  0  0  0  0  0  0  0  0  0
   14.6958  -10.1986   27.4122 C   0  0  1  0  0  0  0  0  0  0  0  0
   14.6085  -10.9375   28.8449 C   0  0  1  0  0  0  0  0  0  0  0  0
   13.1915  -10.8249   29.4801 C   0  0  1  0  0  0  0  0  0  0  0  0
   12.8591   -9.2833   29.6204 C   0  0  1  0  0  0  0  0  0  0  0  0
   13.0020   -8.6040   28.2140 C   0  0  2  0  0  0  0  0  0  0  0  0
   10.9113  -10.0355   31.2132 C   0  0  0  0  0  0  0  0  0  0  0  0
   17.6987  -12.0641   25.9581 N   0  0  0  0  0  0  0  0  0  0  0  0
   11.4613   -9.0691   30.1947 N   0  0  0  0  0  0  0  0  0  0  0  0
   17.3096  -12.0618   28.8892 O   0  0  0  0  0  0  0  0  0  0  0  0
   14.9732  -12.3490   28.6599 O   0  0  0  0  0  0  0  0  0  0  0  0
   14.3518   -8.7946   27.6061 O   0  0  0  0  0  0  0  0  0  0  0  0
   12.2847  -11.5004   28.6070 O   0  0  0  0  0  0  0  0  0  0  0  0
   12.7733   -7.2484   28.3455 O   0  0  0  0  0  0  0  0  0  0  0  0
   11.8331   -6.7342   27.3872 C   0  0  2  0  0  0  0  0  0  0  0  0
   10.5713   -7.6294   27.3396 C   0  0  1  0  0  0  0  0  0  0  0  0
   10.8907   -9.0518   26.7858 C   0  0  2  0  0  0  0  0  0  0  0  0
   11.4979   -8.9239   25.3575 C   0  0  1  0  0  0  0  0  0  0  0  0
   12.8240   -8.0662   25.4956 C   0  0  1  0  0  0  0  0  0  0  0  0
   13.5104   -7.8544   24.1491 C   0  0  0  0  0  0  0  0  0  0  0  0
   11.8039  -10.2826   24.8257 N   0  0  0  0  0  0  0  0  0  0  0  0
   12.4673   -6.7098   26.0435 O   0  0  0  0  0  0  0  0  0  0  0  0
   10.0324   -7.6789   28.6745 O   0  0  0  0  0  0  0  0  0  0  0  0
    9.6869   -9.7880   26.7278 O   0  0  0  0  0  0  0  0  0  0  0  0
   12.6708   -7.1070   23.3092 O   0  0  0  0  0  0  0  0  0  0  0  0
   16.8146  -11.6756   30.1548 C   0  0  1  0  0  0  0  0  0  0  0  0
   16.9276  -12.9020   31.1165 C   0  0  1  0  0  0  0  0  0  0  0  0
   16.3560  -12.4998   32.5073 C   0  0  2  0  0  0  0  0  0  0  0  0
   17.1381  -11.2862   33.0981 C   0  0  1  0  0  0  0  0  0  0  0  0
   17.0390  -10.0470   32.1289 C   0  0  0  0  0  0  0  0  0  0  0  0
   17.6277  -10.4588   30.7161 C   0  0  2  0  0  0  0  0  0  0  0  0
   16.5697  -10.9176   34.4243 N   0  0  0  0  0  0  0  0  0  0  0  0
   17.5344   -9.2890   29.8138 N   0  0  0  0  0  0  0  0  0  0  0  0
   16.1717  -14.0136   30.6006 O   0  0  0  0  0  0  0  0  0  0  0  0
   16.4768  -13.6259   33.3606 O   0  0  0  0  0  0  0  0  0  0  0  0
  1  2  1  0  0  0  0
  1 12  1  1  0  0  0
  1 13  1  0  0  0  0
  2  3  1  0  0  0  0
  2 10  1  1  0  0  0
  4  3  1  1  0  0  0
  4  5  1  0  0  0  0
  4 14  1  0  0  0  0
  5  6  1  0  0  0  0
  5 13  1  6  0  0  0
  6  7  1  0  0  0  0
  6 15  1  6  0  0  0
  7  8  1  0  0  0  0
  7 11  1  6  0  0  0
  8 14  1  0  0  0  0
  8 16  1  1  0  0  0
  9 11  1  0  0  0  0
 17 16  1  1  0  0  0
 17 18  1  0  0  0  0
 17 24  1  0  0  0  0
 18 19  1  0  0  0  0
 18 25  1  1  0  0  0
 19 20  1  0  0  0  0
 19 26  1  6  0  0  0
 20 21  1  0  0  0  0
 20 23  1  1  0  0  0
 21 22  1  6  0  0  0
 21 24  1  0  0  0  0
 22 27  1  0  0  0  0
 28 12  1  6  0  0  0
 28 29  1  0  0  0  0
 28 33  1  0  0  0  0
 29 30  1  0  0  0  0
 29 36  1  6  0  0  0
 30 31  1  0  0  0  0
 30 37  1  1  0  0  0
 31 32  1  0  0  0  0
 31 34  1  1  0  0  0
 32 33  1  0  0  0  0
 33 35  1  6  0  0  0
M  END
>  <CHROM.1>
129.61097249,34.24032259,-130.53542742,48.29971922,63.57373979,92.51067856
14.16147732,-10.11012121,28.59325611,-0.79763657,0.51029949,-1.37177061

>  <Name>
2oe8_lig

>  <RI>
0

>  <Rbt.Current_Directory>
/home/itssahil/PROJECTS/Mol_Feturizer/New_Systems/rnas/2oe8

>  <Rbt.Executable>
rbdock ($Id: //depot/dev/client3/rdock/2013.1/src/exe/rbdock.cxx#4 $)

>  <Rbt.Library>
libRbt.so (2013.1, Build901 2013/11/27)

>  <Rbt.Parameter_File>
/export/apps/rDock/src/rDock_2013.1_src/data/scripts/dock_solv.prm

>  <Rbt.Receptor>
prm/blind_docking_40.prm

>  <SCORE>
45.1209

>  <SCORE.INTER>
2.34732

>  <SCORE.INTER.CONST>
1

>  <SCORE.INTER.POLAR>
-1.21165

>  <SCORE.INTER.ROT>
6

>  <SCORE.INTER.SOLV>
22.7978

>  <SCORE.INTER.VDW>
-9.59554

>  <SCORE.INTER.norm>
0.0634411

>  <SCORE.INTRA>
13.7247

>  <SCORE.INTRA.DIHEDRAL>
2.19663

>  <SCORE.INTRA.DIHEDRAL.0>
16.4056

>  <SCORE.INTRA.POLAR>
0

>  <SCORE.INTRA.POLAR.0>
0

>  <SCORE.INTRA.REPUL>
0

>  <SCORE.INTRA.REPUL.0>
0

>  <SCORE.INTRA.SOLV>
4.3274

>  <SCORE.INTRA.SOLV.lig_0>
-90.9627

>  <SCORE.INTRA.VDW>
10.4627

>  <SCORE.INTRA.VDW.0>
-3.28744

>  <SCORE.INTRA.norm>
0.370938

>  <SCORE.RESTR>
29.0489

>  <SCORE.RESTR.CAVITY>
29.0489

>  <SCORE.RESTR.norm>
0.785105

>  <SCORE.SYSTEM>
0

>  <SCORE.SYSTEM.CONST>
0

>  <SCORE.SYSTEM.DIHEDRAL>
0

>  <SCORE.SYSTEM.SOLV>
0

>  <SCORE.SYSTEM.norm>
0

>  <SCORE.heavy>
37

>  <SCORE.norm>
1.21948

>  <RMSD>
25.782

$$$$
2oe8_lig
 OpenBabel11021811463D
libRbt.so/2013.1/901 2013/11/27
 37 40  0  0  0  0  0  0  0  0999 V2000
   11.0582  -11.7173   29.5567 C   0  0  1  0  0  0  0  0  0  0  0  0
   11.5525  -11.2747   30.9861 C   0  0  1  0  0  0  0  0  0  0  0  0
   12.6791  -10.2311   30.8363 C   0  0  0  0  0  0  0  0  0  0  0  0
   13.8180  -10.9356   30.0348 C   0  0  1  0  0  0  0  0  0  0  0  0
   13.3204  -11.4134   28.5753 C   0  0  1  0  0  0  0  0  0  0  0  0
   14.4456  -12.1344   27.7765 C   0  0  1  0  0  0  0  0  0  0  0  0
   15.6587  -11.1242   27.6550 C   0  0  1  0  0  0  0  0  0  0  0  0
   16.0739  -10.6556   29.0930 C   0  0  2  0  0  0  0  0  0  0  0  0
   16.6287  -12.3889   25.5679 C   0  0  0  0  0  0  0  0  0  0  0  0
   10.4228  -10.6864   31.7734 N   0  0  0  0  0  0  0  0  0  0  0  0
   16.8369  -11.7606   26.9227 N   0  0  0  0  0  0  0  0  0  0  0  0
   10.5159  -10.6148   28.8189 O   0  0  0  0  0  0  0  0  0  0  0  0
   12.1669  -12.3070   28.7500 O   0  0  0  0  0  0  0  0  0  0  0  0
   14.9501  -10.0341   29.8536 O   0  0  0  0  0  0  0  0  0  0  0  0
   14.7895  -13.3134   28.5061 O   0  0  0  0  0  0  0  0  0  0  0  0
   17.0906   -9.7272   28.9859 O   0  0  0  0  0  0  0  0  0  0  0  0
   18.2571  -10.0693   29.7535 C   0  0  2  0  0  0  0  0  0  0  0  0
   18.5947  -11.5695   29.5770 C   0  0  1  0  0  0  0  0  0  0  0  0
   17.4928  -12.4874   30.1896 C   0  0  2  0  0  0  0  0  0  0  0  0
   17.3329  -12.1597   31.7036 C   0  0  1  0  0  0  0  0  0  0  0  0
   16.9103  -10.6350   31.8031 C   0  0  1  0  0  0  0  0  0  0  0  0
   16.7366  -10.1835   33.2504 C   0  0  0  0  0  0  0  0  0  0  0  0
   16.2801  -13.0363   32.2916 N   0  0  0  0  0  0  0  0  0  0  0  0
   17.9966   -9.7916   31.1900 O   0  0  0  0  0  0  0  0  0  0  0  0
   18.7697  -11.8046   28.1667 O   0  0  0  0  0  0  0  0  0  0  0  0
   17.8952  -13.8320   30.0328 O   0  0  0  0  0  0  0  0  0  0  0  0
   17.9577  -10.3119   33.9297 O   0  0  0  0  0  0  0  0  0  0  0  0
   11.4955   -9.7131   28.3464 C   0  0  1  0  0  0  0  0  0  0  0  0
   11.5359   -9.8114   26.7874 C   0  0  1  0  0  0  0  0  0  0  0  0
   12.6339   -8.8452   26.2548 C   0  0  2  0  0  0  0  0  0  0  0  0
   12.3373   -7.3762   26.6881 C   0  0  1  0  0  0  0  0  0  0  0  0
   12.2835   -7.2695   28.2598 C   0  0  0  0  0  0  0  0  0  0  0  0
   11.1602   -8.2499   28.7975 C   0  0  2  0  0  0  0  0  0  0  0  0
   13.4032   -6.4734   26.1718 N   0  0  0  0  0  0  0  0  0  0  0  0
   11.1139   -8.1406   30.2730 N   0  0  0  0  0  0  0  0  0  0  0  0
   11.8531  -11.1552   26.3789 O   0  0  0  0  0  0  0  0  0  0  0  0
   12.6446   -8.9488   24.8406 O   0  0  0  0  0  0  0  0  0  0  0  0
  1  2  1  0  0  0  0
  1 12  1  6  0  0  0
  1 13  1  0  0  0  0
  2  3  1  0  0  0  0
  2 10  1  1  0  0  0
  4  3  1  6  0  0  0
  4  5  1  0  0  0  0
  4 14  1  0  0  0  0
  5  6  1  0  0  0  0
  5 13  1  1  0  0  0
  6  7  1  0  0  0  0
  6 15  1  1  0  0  0
  7  8  1  0  0  0  0
  7 11  1  1  0  0  0
  8 14  1  0  0  0  0
  8 16  1  6  0  0  0
  9 11  1  0  0  0  0
 17 16  1  6  0  0  0
 17 18  1  0  0  0  0
 17 24  1  0  0  0  0
 18 19  1  0  0  0  0
 18 25  1  6  0  0  0
 19 20  1  0  0  0  0
 19 26  1  1  0  0  0
 20 21  1  0  0  0  0
 20 23  1  6  0  0  0
 21 22  1  1  0  0  0
 21 24  1  0  0  0  0
 22 27  1  0  0  0  0
 28 12  1  6  0  0  0
 28 29  1  0  0  0  0
 28 33  1  0  0  0  0
 29 30  1  0  0  0  0
 29 36  1  1  0  0  0
 30 31  1  0  0  0  0
 30 37  1  6  0  0  0
 31 32  1  0  0  0  0
 31 34  1  1  0  0  0
 32 33  1  0  0  0  0
 33 35  1  1  0  0  0
M  END
>  <CHROM.1>
73.51827918,53.28147218,-125.52681690,44.01304306,61.71535229,112.31485178
14.54165665,-10.62286112,29.13775371,2.67575386,0.30750298,-1.47024525

>  <Name>
2oe8_lig

>  <RI>
0

>  <Rbt.Current_Directory>
/home/itssahil/PROJECTS/Mol_Feturizer/New_Systems/rnas/2oe8

>  <Rbt.Executable>
rbdock ($Id: //depot/dev/client3/rdock/2013.1/src/exe/rbdock.cxx#4 $)

>  <Rbt.Library>
libRbt.so (2013.1, Build901 2013/11/27)

>  <Rbt.Parameter_File>
/export/apps/rDock/src/rDock_2013.1_src/data/scripts/dock_solv.prm

>  <Rbt.Receptor>
prm/blind_docking_40.prm

>  <SCORE>
53.9288

>  <SCORE.INTER>
4.96137

>  <SCORE.INTER.CONST>
1

>  <SCORE.INTER.POLAR>
-1.43233

>  <SCORE.INTER.ROT>
6

>  <SCORE.INTER.SOLV>
21.6123

>  <SCORE.INTER.VDW>
-6.72206

>  <SCORE.INTER.norm>
0.134091

>  <SCORE.INTRA>
20.9715

>  <SCORE.INTRA.DIHEDRAL>
-0.357998

>  <SCORE.INTRA.DIHEDRAL.0>
16.4056

>  <SCORE.INTRA.POLAR>
0

>  <SCORE.INTRA.POLAR.0>
0

>  <SCORE.INTRA.REPUL>
0

>  <SCORE.INTRA.REPUL.0>
0

>  <SCORE.INTRA.SOLV>
7.96088

>  <SCORE.INTRA.SOLV.lig_0>
-90.9627

>  <SCORE.INTRA.VDW>
17.17

>  <SCORE.INTRA.VDW.0>
-3.28744

>  <SCORE.INTRA.norm>
0.566797

>  <SCORE.RESTR>
27.9959

>  <SCORE.RESTR.CAVITY>
27.9959

>  <SCORE.RESTR.norm>
0.756646

>  <SCORE.SYSTEM>
0

>  <SCORE.SYSTEM.CONST>
0

>  <SCORE.SYSTEM.DIHEDRAL>
0

>  <SCORE.SYSTEM.SOLV>
0

>  <SCORE.SYSTEM.norm>
0

>  <SCORE.heavy>
37

>  <SCORE.norm>
1.45753

>  <RMSD>
25.801

$$$$
2oe8_lig
 OpenBabel11021811463D
libRbt.so/2013.1/901 2013/11/27
 37 40  0  0  0  0  0  0  0  0999 V2000
   16.1527  -11.8427   27.6974 C   0  0  1  0  0  0  0  0  0  0  0  0
   15.3878  -11.8582   26.3197 C   0  0  1  0  0  0  0  0  0  0  0  0
   14.3063  -10.7578   26.3237 C   0  0  0  0  0  0  0  0  0  0  0  0
   13.3484  -11.0966   27.5084 C   0  0  1  0  0  0  0  0  0  0  0  0
   14.1225  -11.1048   28.9250 C   0  0  1  0  0  0  0  0  0  0  0  0
   13.1777  -11.4609   30.1102 C   0  0  1  0  0  0  0  0  0  0  0  0
   12.0059  -10.3961   30.1151 C   0  0  1  0  0  0  0  0  0  0  0  0
   11.3169  -10.3944   28.7061 C   0  0  2  0  0  0  0  0  0  0  0  0
    9.8608   -9.7314   31.4763 C   0  0  0  0  0  0  0  0  0  0  0  0
   16.3399  -11.6239   25.1879 N   0  0  0  0  0  0  0  0  0  0  0  0
   10.9957  -10.6907   31.2206 N   0  0  0  0  0  0  0  0  0  0  0  0
   16.8220  -10.5947   27.9177 O   0  0  0  0  0  0  0  0  0  0  0  0
   15.2249  -12.0732   28.8436 O   0  0  0  0  0  0  0  0  0  0  0  0
   12.2683  -10.1199   27.5893 O   0  0  0  0  0  0  0  0  0  0  0  0
   12.7049  -12.7901   29.8860 O   0  0  0  0  0  0  0  0  0  0  0  0
   10.3354   -9.4231   28.6882 O   0  0  0  0  0  0  0  0  0  0  0  0
   10.8212   -8.1164   29.0395 C   0  0  2  0  0  0  0  0  0  0  0  0
    9.7484   -7.0442   28.7312 C   0  0  1  0  0  0  0  0  0  0  0  0
    9.4801   -6.9163   27.2003 C   0  0  2  0  0  0  0  0  0  0  0  0
   10.8088   -6.5540   26.4733 C   0  0  1  0  0  0  0  0  0  0  0  0
   11.8302   -7.7304   26.7662 C   0  0  1  0  0  0  0  0  0  0  0  0
   13.1883   -7.4835   26.1154 C   0  0  0  0  0  0  0  0  0  0  0  0
   10.5548   -6.4309   25.0094 N   0  0  0  0  0  0  0  0  0  0  0  0
   12.0476   -7.8224   28.2534 O   0  0  0  0  0  0  0  0  0  0  0  0
    8.5595   -7.4084   29.4584 O   0  0  0  0  0  0  0  0  0  0  0  0
    8.5311   -5.8901   26.9985 O   0  0  0  0  0  0  0  0  0  0  0  0
   14.1992   -8.0258   26.9235 O   0  0  0  0  0  0  0  0  0  0  0  0
   17.6194  -10.5778   29.0837 C   0  0  1  0  0  0  0  0  0  0  0  0
   16.6825  -10.3355   30.3105 C   0  0  1  0  0  0  0  0  0  0  0  0
   17.5526  -10.2830   31.6001 C   0  0  2  0  0  0  0  0  0  0  0  0
   18.3440  -11.6140   31.7894 C   0  0  1  0  0  0  0  0  0  0  0  0
   19.2840  -11.8726   30.5508 C   0  0  0  0  0  0  0  0  0  0  0  0
   18.3936  -11.9315   29.2408 C   0  0  2  0  0  0  0  0  0  0  0  0
   19.1717  -11.5369   33.0250 N   0  0  0  0  0  0  0  0  0  0  0  0
   19.2833  -12.1784   28.0838 N   0  0  0  0  0  0  0  0  0  0  0  0
   15.9808   -9.0866   30.1652 O   0  0  0  0  0  0  0  0  0  0  0  0
   16.6789  -10.0696   32.6965 O   0  0  0  0  0  0  0  0  0  0  0  0
  1  2  1  0  0  0  0
  1 12  1  1  0  0  0
  1 13  1  0  0  0  0
  2  3  1  0  0  0  0
  2 10  1  6  0  0  0
  4  3  1  6  0  0  0
  4  5  1  0  0  0  0
  4 14  1  0  0  0  0
  5  6  1  0  0  0  0
  5 13  1  6  0  0  0
  6  7  1  0  0  0  0
  6 15  1  6  0  0  0
  7  8  1  0  0  0  0
  7 11  1  1  0  0  0
  8 14  1  0  0  0  0
  8 16  1  1  0  0  0
  9 11  1  0  0  0  0
 17 16  1  6  0  0  0
 17 18  1  0  0  0  0
 17 24  1  0  0  0  0
 18 19  1  0  0  0  0
 18 25  1  1  0  0  0
 19 20  1  0  0  0  0
 19 26  1  1  0  0  0
 20 21  1  0  0  0  0
 20 23  1  6  0  0  0
 21 22  1  6  0  0  0
 21 24  1  0  0  0  0
 22 27  1  0  0  0  0
 28 12  1  6  0  0  0
 28 29  1  0  0  0  0
 28 33  1  0  0  0  0
 29 30  1  0  0  0  0
 29 36  1  6  0  0  0
 30 31  1  0  0  0  0
 30 37  1  1  0  0  0
 31 32  1  0  0  0  0
 31 34  1  1  0  0  0
 32 33  1  0  0  0  0
 33 35  1  6  0  0  0
M  END
>  <CHROM.1>
-174.61919610,174.85914807,55.21038348,168.89101809,146.93362654,-80.13430104
13.82382223,-9.83834359,28.76551994,-0.35379171,0.39685562,-1.33842212

>  <Name>
2oe8_lig

>  <RI>
0

>  <Rbt.Current_Directory>
/home/itssahil/PROJECTS/Mol_Feturizer/New_Systems/rnas/2oe8

>  <Rbt.Executable>
rbdock ($Id: //depot/dev/client3/rdock/2013.1/src/exe/rbdock.cxx#4 $)

>  <Rbt.Library>
libRbt.so (2013.1, Build901 2013/11/27)

>  <Rbt.Parameter_File>
/export/apps/rDock/src/rDock_2013.1_src/data/scripts/dock_solv.prm

>  <Rbt.Receptor>
prm/blind_docking_40.prm

>  <SCORE>
43.9091

>  <SCORE.INTER>
9.88999

>  <SCORE.INTER.CONST>
1

>  <SCORE.INTER.POLAR>
-0.279179

>  <SCORE.INTER.ROT>
6

>  <SCORE.INTER.SOLV>
24.6073

>  <SCORE.INTER.VDW>
-8.2785

>  <SCORE.INTER.norm>
0.267297

>  <SCORE.INTRA>
4.67762

>  <SCORE.INTRA.DIHEDRAL>
-10.5818

>  <SCORE.INTRA.DIHEDRAL.0>
16.4056

>  <SCORE.INTRA.POLAR>
0

>  <SCORE.INTRA.POLAR.0>
0

>  <SCORE.INTRA.REPUL>
0.505736

>  <SCORE.INTRA.REPUL.0>
0

>  <SCORE.INTRA.SOLV>
0.473253

>  <SCORE.INTRA.SOLV.lig_0>
-90.9627

>  <SCORE.INTRA.VDW>
7.20321

>  <SCORE.INTRA.VDW.0>
-3.28744

>  <SCORE.INTRA.norm>
0.126422

>  <SCORE.RESTR>
29.3415

>  <SCORE.RESTR.CAVITY>
29.3415

>  <SCORE.RESTR.norm>
0.793013

>  <SCORE.SYSTEM>
0

>  <SCORE.SYSTEM.CONST>
0

>  <SCORE.SYSTEM.DIHEDRAL>
0

>  <SCORE.SYSTEM.SOLV>
0

>  <SCORE.SYSTEM.norm>
0

>  <SCORE.heavy>
37

>  <SCORE.norm>
1.18673

>  <RMSD>
25.805

$$$$
2oe8_lig
 OpenBabel11021811463D
libRbt.so/2013.1/901 2013/11/27
 37 40  0  0  0  0  0  0  0  0999 V2000
   16.4421  -12.3805   28.0907 C   0  0  1  0  0  0  0  0  0  0  0  0
   16.3893  -11.8347   26.6133 C   0  0  1  0  0  0  0  0  0  0  0  0
   16.0736  -10.3246   26.6378 C   0  0  0  0  0  0  0  0  0  0  0  0
   14.6895  -10.1831   27.3450 C   0  0  1  0  0  0  0  0  0  0  0  0
   14.7226  -10.7573   28.8533 C   0  0  1  0  0  0  0  0  0  0  0  0
   13.3403  -10.6374   29.5595 C   0  0  1  0  0  0  0  0  0  0  0  0
   12.9367   -9.1064   29.5486 C   0  0  1  0  0  0  0  0  0  0  0  0
   12.9637   -8.5858   28.0694 C   0  0  2  0  0  0  0  0  0  0  0  0
   10.9561   -9.9718   31.0401 C   0  0  0  0  0  0  0  0  0  0  0  0
   17.6974  -12.0643   25.9216 N   0  0  0  0  0  0  0  0  0  0  0  0
   11.5648   -8.8917   30.1819 N   0  0  0  0  0  0  0  0  0  0  0  0
   17.4766  -11.7460   28.8530 O   0  0  0  0  0  0  0  0  0  0  0  0
   15.1490  -12.1627   28.8035 O   0  0  0  0  0  0  0  0  0  0  0  0
   14.2847   -8.7831   27.4031 O   0  0  0  0  0  0  0  0  0  0  0  0
   12.4215  -11.4481   28.8251 O   0  0  0  0  0  0  0  0  0  0  0  0
   12.6728   -7.2358   28.0638 O   0  0  0  0  0  0  0  0  0  0  0  0
   12.5126   -6.6934   26.7421 C   0  0  2  0  0  0  0  0  0  0  0  0
   11.0122   -6.4781   26.4285 C   0  0  1  0  0  0  0  0  0  0  0  0
   10.2376   -7.8292   26.3472 C   0  0  2  0  0  0  0  0  0  0  0  0
   10.8804   -8.7258   25.2480 C   0  0  1  0  0  0  0  0  0  0  0  0
   12.3875   -8.9695   25.6751 C   0  0  1  0  0  0  0  0  0  0  0  0
   13.1369   -9.8292   24.6611 C   0  0  0  0  0  0  0  0  0  0  0  0
   10.1414  -10.0181   25.1681 N   0  0  0  0  0  0  0  0  0  0  0  0
   13.0891   -7.6393   25.7515 O   0  0  0  0  0  0  0  0  0  0  0  0
   10.4821   -5.6134   27.4514 O   0  0  0  0  0  0  0  0  0  0  0  0
    8.8940   -7.5529   26.0114 O   0  0  0  0  0  0  0  0  0  0  0  0
   13.7275   -9.0023   23.6933 O   0  0  0  0  0  0  0  0  0  0  0  0
   17.1907  -11.6596   30.2338 C   0  0  1  0  0  0  0  0  0  0  0  0
   18.1557  -12.6268   30.9921 C   0  0  1  0  0  0  0  0  0  0  0  0
   17.8302  -12.5652   32.5130 C   0  0  2  0  0  0  0  0  0  0  0  0
   17.9965  -11.1127   33.0571 C   0  0  1  0  0  0  0  0  0  0  0  0
   17.0345  -10.1274   32.2900 C   0  0  0  0  0  0  0  0  0  0  0  0
   17.3733  -10.1885   30.7428 C   0  0  2  0  0  0  0  0  0  0  0  0
   17.6746  -11.0790   34.5107 N   0  0  0  0  0  0  0  0  0  0  0  0
   16.4685   -9.2581   30.0309 N   0  0  0  0  0  0  0  0  0  0  0  0
   17.9773  -13.9778   30.5270 O   0  0  0  0  0  0  0  0  0  0  0  0
   18.7228  -13.4448   33.1767 O   0  0  0  0  0  0  0  0  0  0  0  0
  1  2  1  0  0  0  0
  1 12  1  1  0  0  0
  1 13  1  0  0  0  0
  2  3  1  0  0  0  0
  2 10  1  1  0  0  0
  4  3  1  1  0  0  0
  4  5  1  0  0  0  0
  4 14  1  0  0  0  0
  5  6  1  0  0  0  0
  5 13  1  6  0  0  0
  6  7  1  0  0  0  0
  6 15  1  6  0  0  0
  7  8  1  0  0  0  0
  7 11  1  6  0  0  0
  8 14  1  0  0  0  0
  8 16  1  1  0  0  0
  9 11  1  0  0  0  0
 17 16  1  1  0  0  0
 17 18  1  0  0  0  0
 17 24  1  0  0  0  0
 18 19  1  0  0  0  0
 18 25  1  1  0  0  0
 19 20  1  0  0  0  0
 19 26  1  6  0  0  0
 20 21  1  0  0  0  0
 20 23  1  1  0  0  0
 21 22  1  6  0  0  0
 21 24  1  0  0  0  0
 22 27  1  0  0  0  0
 28 12  1  6  0  0  0
 28 29  1  0  0  0  0
 28 33  1  0  0  0  0
 29 30  1  0  0  0  0
 29 36  1  6  0  0  0
 30 31  1  0  0  0  0
 30 37  1  1  0  0  0
 31 32  1  0  0  0  0
 31 34  1  1  0  0  0
 32 33  1  0  0  0  0
 33 35  1  6  0  0  0
M  END
>  <CHROM.1>
150.40139862,16.66738350,-172.89746819,103.67895522,89.93951165,110.51029845
14.37328374,-10.00749942,28.49818766,-0.56147464,0.61100203,-1.64201708

>  <Name>
2oe8_lig

>  <RI>
0

>  <Rbt.Current_Directory>
/home/itssahil/PROJECTS/Mol_Feturizer/New_Systems/rnas/2oe8

>  <Rbt.Executable>
rbdock ($Id: //depot/dev/client3/rdock/2013.1/src/exe/rbdock.cxx#4 $)

>  <Rbt.Library>
libRbt.so (2013.1, Build901 2013/11/27)

>  <Rbt.Parameter_File>
/export/apps/rDock/src/rDock_2013.1_src/data/scripts/dock_solv.prm

>  <Rbt.Receptor>
prm/blind_docking_40.prm

>  <SCORE>
50.9334

>  <SCORE.INTER>
2.81336

>  <SCORE.INTER.CONST>
1

>  <SCORE.INTER.POLAR>
-1.21775

>  <SCORE.INTER.ROT>
6

>  <SCORE.INTER.SOLV>
22.2353

>  <SCORE.INTER.VDW>
-9.07701

>  <SCORE.INTER.norm>
0.0760366

>  <SCORE.INTRA>
18.8826

>  <SCORE.INTRA.DIHEDRAL>
3.73766

>  <SCORE.INTRA.DIHEDRAL.0>
16.4056

>  <SCORE.INTRA.POLAR>
0

>  <SCORE.INTRA.POLAR.0>
0

>  <SCORE.INTRA.REPUL>
0

>  <SCORE.INTRA.REPUL.0>
0

>  <SCORE.INTRA.SOLV>
3.50022

>  <SCORE.INTRA.SOLV.lig_0>
-90.9627

>  <SCORE.INTRA.VDW>
15.2636

>  <SCORE.INTRA.VDW.0>
-3.28744

>  <SCORE.INTRA.norm>
0.51034

>  <SCORE.RESTR>
29.2374

>  <SCORE.RESTR.CAVITY>
29.2374

>  <SCORE.RESTR.norm>
0.790201

>  <SCORE.SYSTEM>
0

>  <SCORE.SYSTEM.CONST>
0

>  <SCORE.SYSTEM.DIHEDRAL>
0

>  <SCORE.SYSTEM.SOLV>
0

>  <SCORE.SYSTEM.norm>
0

>  <SCORE.heavy>
37

>  <SCORE.norm>
1.37658

>  <RMSD>
25.819

$$$$
2oe8_lig
 OpenBabel11021811463D
libRbt.so/2013.1/901 2013/11/27
 37 40  0  0  0  0  0  0  0  0999 V2000
   11.9132   -9.6942   28.7905 C   0  0  1  0  0  0  0  0  0  0  0  0
   11.9512  -10.6295   30.0582 C   0  0  1  0  0  0  0  0  0  0  0  0
   13.3874  -10.6689   30.6208 C   0  0  0  0  0  0  0  0  0  0  0  0
   14.2861  -11.2297   29.4747 C   0  0  1  0  0  0  0  0  0  0  0  0
   14.2411  -10.2924   28.1611 C   0  0  1  0  0  0  0  0  0  0  0  0
   15.1202  -10.8551   27.0059 C   0  0  1  0  0  0  0  0  0  0  0  0
   16.5990  -10.9810   27.5574 C   0  0  1  0  0  0  0  0  0  0  0  0
   16.5825  -11.8607   28.8558 C   0  0  2  0  0  0  0  0  0  0  0  0
   17.2675  -12.9499   25.9533 C   0  0  0  0  0  0  0  0  0  0  0  0
   11.0121  -10.1262   31.1104 N   0  0  0  0  0  0  0  0  0  0  0  0
   17.5332  -11.5719   26.5050 N   0  0  0  0  0  0  0  0  0  0  0  0
   12.2756   -8.3463   29.1158 O   0  0  0  0  0  0  0  0  0  0  0  0
   12.8426  -10.1739   27.7257 O   0  0  0  0  0  0  0  0  0  0  0  0
   15.6737  -11.3273   29.9129 O   0  0  0  0  0  0  0  0  0  0  0  0
   14.5678  -12.1192   26.6349 O   0  0  0  0  0  0  0  0  0  0  0  0
   17.8614  -11.9203   29.3733 O   0  0  0  0  0  0  0  0  0  0  0  0
   18.3740  -10.6381   29.7734 C   0  0  2  0  0  0  0  0  0  0  0  0
   19.8663  -10.7557   30.1670 C   0  0  1  0  0  0  0  0  0  0  0  0
   20.0611  -11.6241   31.4477 C   0  0  2  0  0  0  0  0  0  0  0  0
   19.2559  -10.9956   32.6232 C   0  0  1  0  0  0  0  0  0  0  0  0
   17.7330  -10.9811   32.1830 C   0  0  1  0  0  0  0  0  0  0  0  0
   16.8346  -10.3681   33.2535 C   0  0  0  0  0  0  0  0  0  0  0  0
   19.4408  -11.8239   33.8489 N   0  0  0  0  0  0  0  0  0  0  0  0
   17.5975  -10.1427   30.9396 O   0  0  0  0  0  0  0  0  0  0  0  0
   20.5651  -11.3034   29.0327 O   0  0  0  0  0  0  0  0  0  0  0  0
   21.4363  -11.6430   31.7682 O   0  0  0  0  0  0  0  0  0  0  0  0
   15.8959  -11.3211   33.6774 O   0  0  0  0  0  0  0  0  0  0  0  0
   12.0396   -7.4279   28.0685 C   0  0  1  0  0  0  0  0  0  0  0  0
   12.8786   -7.8771   26.8291 C   0  0  1  0  0  0  0  0  0  0  0  0
   12.6523   -6.8555   25.6767 C   0  0  2  0  0  0  0  0  0  0  0  0
   11.1416   -6.7749   25.2960 C   0  0  1  0  0  0  0  0  0  0  0  0
   10.2857   -6.3331   26.5438 C   0  0  0  0  0  0  0  0  0  0  0  0
   10.5140   -7.3791   27.7125 C   0  0  2  0  0  0  0  0  0  0  0  0
   10.9507   -5.7884   24.1969 N   0  0  0  0  0  0  0  0  0  0  0  0
    9.7041   -6.9590   28.8782 N   0  0  0  0  0  0  0  0  0  0  0  0
   14.2796   -7.9115   27.1592 O   0  0  0  0  0  0  0  0  0  0  0  0
   13.4177   -7.2896   24.5647 O   0  0  0  0  0  0  0  0  0  0  0  0
  1  2  1  0  0  0  0
  1 12  1  1  0  0  0
  1 13  1  0  0  0  0
  2  3  1  0  0  0  0
  2 10  1  1  0  0  0
  4  3  1  1  0  0  0
  4  5  1  0  0  0  0
  4 14  1  0  0  0  0
  5  6  1  0  0  0  0
  5 13  1  6  0  0  0
  6  7  1  0  0  0  0
  6 15  1  1  0  0  0
  7  8  1  0  0  0  0
  7 11  1  6  0  0  0
  8 14  1  0  0  0  0
  8 16  1  1  0  0  0
  9 11  1  0  0  0  0
 17 16  1  1  0  0  0
 17 18  1  0  0  0  0
 17 24  1  0  0  0  0
 18 19  1  0  0  0  0
 18 25  1  6  0  0  0
 19 20  1  0  0  0  0
 19 26  1  1  0  0  0
 20 21  1  0  0  0  0
 20 23  1  1  0  0  0
 21 22  1  1  0  0  0
 21 24  1  0  0  0  0
 22 27  1  0  0  0  0
 28 12  1  1  0  0  0
 28 29  1  0  0  0  0
 28 33  1  0  0  0  0
 29 30  1  0  0  0  0
 29 36  1  1  0  0  0
 30 31  1  0  0  0  0
 30 37  1  6  0  0  0
 31 32  1  0  0  0  0
 31 34  1  6  0  0  0
 32 33  1  0  0  0  0
 33 35  1  1  0  0  0
M  END
>  <CHROM.1>
-169.88461885,-60.34006893,62.42048565,-172.63509707,-119.29969793,-59.68200796
15.12841774,-9.94317519,28.93696212,2.59121528,0.40557400,-1.42170224

>  <Name>
2oe8_lig

>  <RI>
0

>  <Rbt.Current_Directory>
/home/itssahil/PROJECTS/Mol_Feturizer/New_Systems/rnas/2oe8

>  <Rbt.Executable>
rbdock ($Id: //depot/dev/client3/rdock/2013.1/src/exe/rbdock.cxx#4 $)

>  <Rbt.Library>
libRbt.so (2013.1, Build901 2013/11/27)

>  <Rbt.Parameter_File>
/export/apps/rDock/src/rDock_2013.1_src/data/scripts/dock_solv.prm

>  <Rbt.Receptor>
prm/blind_docking_40.prm

>  <SCORE>
27.3788

>  <SCORE.INTER>
-5.07661

>  <SCORE.INTER.CONST>
1

>  <SCORE.INTER.POLAR>
-0.94953

>  <SCORE.INTER.ROT>
6

>  <SCORE.INTER.SOLV>
16.725

>  <SCORE.INTER.VDW>
-13.3943

>  <SCORE.INTER.norm>
-0.137206

>  <SCORE.INTRA>
1.75181

>  <SCORE.INTRA.DIHEDRAL>
-10.2724

>  <SCORE.INTRA.DIHEDRAL.0>
16.4056

>  <SCORE.INTRA.POLAR>
0

>  <SCORE.INTRA.POLAR.0>
0

>  <SCORE.INTRA.REPUL>
0

>  <SCORE.INTRA.REPUL.0>
0

>  <SCORE.INTRA.SOLV>
-0.239845

>  <SCORE.INTRA.SOLV.lig_0>
-90.9627

>  <SCORE.INTRA.VDW>
7.00794

>  <SCORE.INTRA.VDW.0>
-3.28744

>  <SCORE.INTRA.norm>
0.0473463

>  <SCORE.RESTR>
30.7036

>  <SCORE.RESTR.CAVITY>
30.7036

>  <SCORE.RESTR.norm>
0.829826

>  <SCORE.SYSTEM>
0

>  <SCORE.SYSTEM.CONST>
0

>  <SCORE.SYSTEM.DIHEDRAL>
0

>  <SCORE.SYSTEM.SOLV>
0

>  <SCORE.SYSTEM.norm>
0

>  <SCORE.heavy>
37

>  <SCORE.norm>
0.739967

>  <RMSD>
25.832

$$$$
2oe8_lig
 OpenBabel11021811463D
libRbt.so/2013.1/901 2013/11/27
 37 40  0  0  0  0  0  0  0  0999 V2000
   16.2674  -12.4840   28.0801 C   0  0  1  0  0  0  0  0  0  0  0  0
   16.3445  -11.8667   26.6322 C   0  0  1  0  0  0  0  0  0  0  0  0
   16.0941  -10.3463   26.7113 C   0  0  0  0  0  0  0  0  0  0  0  0
   14.6703  -10.1735   27.3269 C   0  0  1  0  0  0  0  0  0  0  0  0
   14.5701  -10.8197   28.8029 C   0  0  1  0  0  0  0  0  0  0  0  0
   13.1473  -10.6685   29.4165 C   0  0  1  0  0  0  0  0  0  0  0  0
   12.8128   -9.1214   29.4553 C   0  0  1  0  0  0  0  0  0  0  0  0
   12.9684   -8.5329   28.0098 C   0  0  2  0  0  0  0  0  0  0  0  0
   10.8277   -9.8079   31.0316 C   0  0  0  0  0  0  0  0  0  0  0  0
   17.6875  -12.1245   26.0223 N   0  0  0  0  0  0  0  0  0  0  0  0
   11.4096   -8.8726   30.0018 N   0  0  0  0  0  0  0  0  0  0  0  0
   17.2713  -11.9359   28.9437 O   0  0  0  0  0  0  0  0  0  0  0  0
   14.9373  -12.2397   28.7115 O   0  0  0  0  0  0  0  0  0  0  0  0
   14.3239   -8.7604   27.4278 O   0  0  0  0  0  0  0  0  0  0  0  0
   12.2490  -11.3992   28.5799 O   0  0  0  0  0  0  0  0  0  0  0  0
   12.7378   -7.1720   28.0526 O   0  0  0  0  0  0  0  0  0  0  0  0
   12.5334   -6.5882   26.7548 C   0  0  2  0  0  0  0  0  0  0  0  0
   11.0209   -6.4094   26.4790 C   0  0  1  0  0  0  0  0  0  0  0  0
   10.2868   -7.7805   26.3640 C   0  0  2  0  0  0  0  0  0  0  0  0
   10.9338   -8.6166   25.2205 C   0  0  1  0  0  0  0  0  0  0  0  0
   12.4563   -8.8276   25.6086 C   0  0  1  0  0  0  0  0  0  0  0  0
   13.2105   -9.6266   24.5495 C   0  0  0  0  0  0  0  0  0  0  0  0
   10.2335   -9.9279   25.1084 N   0  0  0  0  0  0  0  0  0  0  0  0
   13.1180   -7.4795   25.7194 O   0  0  0  0  0  0  0  0  0  0  0  0
   10.4858   -5.5988   27.5428 O   0  0  0  0  0  0  0  0  0  0  0  0
    8.9285   -7.5350   26.0651 O   0  0  0  0  0  0  0  0  0  0  0  0
   12.9620  -10.9955   24.7320 O   0  0  0  0  0  0  0  0  0  0  0  0
   16.7756  -11.5318   30.2033 C   0  0  1  0  0  0  0  0  0  0  0  0
   16.6560  -12.7997   31.1088 C   0  0  1  0  0  0  0  0  0  0  0  0
   16.0807  -12.3734   32.4908 C   0  0  2  0  0  0  0  0  0  0  0  0
   17.0035  -11.3170   33.1734 C   0  0  1  0  0  0  0  0  0  0  0  0
   17.1392  -10.0382   32.2617 C   0  0  0  0  0  0  0  0  0  0  0  0
   17.7310  -10.4757   30.8579 C   0  0  2  0  0  0  0  0  0  0  0  0
   16.4296  -10.9216   34.4895 N   0  0  0  0  0  0  0  0  0  0  0  0
   17.8587   -9.2691   30.0099 N   0  0  0  0  0  0  0  0  0  0  0  0
   15.7704  -13.7624   30.5071 O   0  0  0  0  0  0  0  0  0  0  0  0
   15.9892  -13.5389   33.2933 O   0  0  0  0  0  0  0  0  0  0  0  0
  1  2  1  0  0  0  0
  1 12  1  1  0  0  0
  1 13  1  0  0  0  0
  2  3  1  0  0  0  0
  2 10  1  1  0  0  0
  4  3  1  1  0  0  0
  4  5  1  0  0  0  0
  4 14  1  0  0  0  0
  5  6  1  0  0  0  0
  5 13  1  6  0  0  0
  6  7  1  0  0  0  0
  6 15  1  6  0  0  0
  7  8  1  0  0  0  0
  7 11  1  6  0  0  0
  8 14  1  0  0  0  0
  8 16  1  1  0  0  0
  9 11  1  0  0  0  0
 17 16  1  1  0  0  0
 17 18  1  0  0  0  0
 17 24  1  0  0  0  0
 18 19  1  0  0  0  0
 18 25  1  1  0  0  0
 19 20  1  0  0  0  0
 19 26  1  6  0  0  0
 20 21  1  0  0  0  0
 20 23  1  1  0  0  0
 21 22  1  6  0  0  0
 21 24  1  0  0  0  0
 22 27  1  0  0  0  0
 28 12  1  6  0  0  0
 28 29  1  0  0  0  0
 28 33  1  0  0  0  0
 29 30  1  0  0  0  0
 29 36  1  6  0  0  0
 30 31  1  0  0  0  0
 30 37  1  1  0  0  0
 31 32  1  0  0  0  0
 31 34  1  1  0  0  0
 32 33  1  0  0  0  0
 33 35  1  6  0  0  0
M  END
>  <CHROM.1>
132.60175745,31.60323621,-165.70665631,98.96424140,-81.24401330,80.76901695
14.07081914,-10.04692139,28.52045668,-0.63405121,0.64459459,-1.59158596

>  <Name>
2oe8_lig

>  <RI>
0

>  <Rbt.Current_Directory>
/home/itssahil/PROJECTS/Mol_Feturizer/New_Systems/rnas/2oe8

>  <Rbt.Executable>
rbdock ($Id: //depot/dev/client3/rdock/2013.1/src/exe/rbdock.cxx#4 $)

>  <Rbt.Library>
libRbt.so (2013.1, Build901 2013/11/27)

>  <Rbt.Parameter_File>
/export/apps/rDock/src/rDock_2013.1_src/data/scripts/dock_solv.prm

>  <Rbt.Receptor>
prm/blind_docking_40.prm

>  <SCORE>
54.9751

>  <SCORE.INTER>
9.62922

>  <SCORE.INTER.CONST>
1

>  <SCORE.INTER.POLAR>
-0.840677

>  <SCORE.INTER.ROT>
6

>  <SCORE.INTER.SOLV>
24.4445

>  <SCORE.INTER.VDW>
-6.52642

>  <SCORE.INTER.norm>
0.260249

>  <SCORE.INTRA>
16.1043

>  <SCORE.INTRA.DIHEDRAL>
0.187778

>  <SCORE.INTRA.DIHEDRAL.0>
16.4056

>  <SCORE.INTRA.POLAR>
0

>  <SCORE.INTRA.POLAR.0>
0

>  <SCORE.INTRA.REPUL>
0

>  <SCORE.INTRA.REPUL.0>
0

>  <SCORE.INTRA.SOLV>
1.1246

>  <SCORE.INTRA.SOLV.lig_0>
-90.9627

>  <SCORE.INTRA.VDW>
15.4481

>  <SCORE.INTRA.VDW.0>
-3.28744

>  <SCORE.INTRA.norm>
0.435252

>  <SCORE.RESTR>
29.2415

>  <SCORE.RESTR.CAVITY>
29.2415

>  <SCORE.RESTR.norm>
0.790311

>  <SCORE.SYSTEM>
0

>  <SCORE.SYSTEM.CONST>
0

>  <SCORE.SYSTEM.DIHEDRAL>
0

>  <SCORE.SYSTEM.SOLV>
0

>  <SCORE.SYSTEM.norm>
0

>  <SCORE.heavy>
37

>  <SCORE.norm>
1.48581

>  <RMSD>
25.852

$$$$
2oe8_lig
 OpenBabel11021811463D
libRbt.so/2013.1/901 2013/11/27
 37 40  0  0  0  0  0  0  0  0999 V2000
   16.3152  -12.5824   28.0565 C   0  0  1  0  0  0  0  0  0  0  0  0
   16.4473  -12.0063   26.5956 C   0  0  1  0  0  0  0  0  0  0  0  0
   16.2585  -10.4753   26.6316 C   0  0  0  0  0  0  0  0  0  0  0  0
   14.8309  -10.2287   27.2120 C   0  0  1  0  0  0  0  0  0  0  0  0
   14.6740  -10.8320   28.7011 C   0  0  1  0  0  0  0  0  0  0  0  0
   13.2465  -10.6069   29.2802 C   0  0  1  0  0  0  0  0  0  0  0  0
   12.9756   -9.0470   29.2733 C   0  0  1  0  0  0  0  0  0  0  0  0
   13.1850   -8.5027   27.8173 C   0  0  2  0  0  0  0  0  0  0  0  0
   10.9071   -9.6457   30.7764 C   0  0  0  0  0  0  0  0  0  0  0  0
   17.7906  -12.3344   26.0212 N   0  0  0  0  0  0  0  0  0  0  0  0
   11.5732   -8.7270   29.7833 N   0  0  0  0  0  0  0  0  0  0  0  0
   17.3232  -12.0538   28.9274 O   0  0  0  0  0  0  0  0  0  0  0  0
   14.9838  -12.2677   28.6530 O   0  0  0  0  0  0  0  0  0  0  0  0
   14.5414   -8.8004   27.2703 O   0  0  0  0  0  0  0  0  0  0  0  0
   12.3359  -11.3215   28.4430 O   0  0  0  0  0  0  0  0  0  0  0  0
   13.0102   -7.1329   27.8213 O   0  0  0  0  0  0  0  0  0  0  0  0
   12.1295   -6.6684   26.7842 C   0  0  2  0  0  0  0  0  0  0  0  0
   10.8061   -7.4707   26.8046 C   0  0  1  0  0  0  0  0  0  0  0  0
   11.0299   -8.9673   26.4275 C   0  0  2  0  0  0  0  0  0  0  0  0
   11.6728   -9.0508   25.0115 C   0  0  1  0  0  0  0  0  0  0  0  0
   13.0559   -8.2797   25.0871 C   0  0  1  0  0  0  0  0  0  0  0  0
   13.7822   -8.2762   23.7450 C   0  0  0  0  0  0  0  0  0  0  0  0
   11.8875  -10.4807   24.6485 N   0  0  0  0  0  0  0  0  0  0  0  0
   12.7900   -6.8465   25.4649 O   0  0  0  0  0  0  0  0  0  0  0  0
   10.2390   -7.3253   28.1207 O   0  0  0  0  0  0  0  0  0  0  0  0
    9.7762   -9.6174   26.4208 O   0  0  0  0  0  0  0  0  0  0  0  0
   14.7671   -7.2766   23.7493 O   0  0  0  0  0  0  0  0  0  0  0  0
   16.8191  -11.5970   30.1655 C   0  0  1  0  0  0  0  0  0  0  0  0
   16.5814  -12.8397   31.0825 C   0  0  1  0  0  0  0  0  0  0  0  0
   15.9956  -12.3532   32.4402 C   0  0  2  0  0  0  0  0  0  0  0  0
   16.9701  -11.3550   33.1384 C   0  0  1  0  0  0  0  0  0  0  0  0
   17.2247  -10.1028   32.2155 C   0  0  0  0  0  0  0  0  0  0  0  0
   17.8268  -10.6018   30.8369 C   0  0  2  0  0  0  0  0  0  0  0  0
   16.3856  -10.9005   34.4305 N   0  0  0  0  0  0  0  0  0  0  0  0
   18.0664   -9.4200   29.9783 N   0  0  0  0  0  0  0  0  0  0  0  0
   15.6482  -13.7459   30.4651 O   0  0  0  0  0  0  0  0  0  0  0  0
   15.7964  -13.4974   33.2539 O   0  0  0  0  0  0  0  0  0  0  0  0
  1  2  1  0  0  0  0
  1 12  1  1  0  0  0
  1 13  1  0  0  0  0
  2  3  1  0  0  0  0
  2 10  1  1  0  0  0
  4  3  1  1  0  0  0
  4  5  1  0  0  0  0
  4 14  1  0  0  0  0
  5  6  1  0  0  0  0
  5 13  1  6  0  0  0
  6  7  1  0  0  0  0
  6 15  1  6  0  0  0
  7  8  1  0  0  0  0
  7 11  1  6  0  0  0
  8 14  1  0  0  0  0
  8 16  1  1  0  0  0
  9 11  1  0  0  0  0
 17 16  1  1  0  0  0
 17 18  1  0  0  0  0
 17 24  1  0  0  0  0
 18 19  1  0  0  0  0
 18 25  1  1  0  0  0
 19 20  1  0  0  0  0
 19 26  1  6  0  0  0
 20 21  1  0  0  0  0
 20 23  1  1  0  0  0
 21 22  1  6  0  0  0
 21 24  1  0  0  0  0
 22 27  1  0  0  0  0
 28 12  1  6  0  0  0
 28 29  1  0  0  0  0
 28 33  1  0  0  0  0
 29 30  1  0  0  0  0
 29 36  1  6  0  0  0
 30 31  1  0  0  0  0
 30 37  1  1  0  0  0
 31 32  1  0  0  0  0
 31 34  1  1  0  0  0
 32 33  1  0  0  0  0
 33 35  1  6  0  0  0
M  END
>  <CHROM.1>
132.57703831,28.81708864,-131.14746587,50.89718243,162.58397811,78.83730357
14.28228286,-10.07966787,28.40609221,-0.87493931,0.48660137,-1.33664522

>  <Name>
2oe8_lig

>  <RI>
0

>  <Rbt.Current_Directory>
/home/itssahil/PROJECTS/Mol_Feturizer/New_Systems/rnas/2oe8

>  <Rbt.Executable>
rbdock ($Id: //depot/dev/client3/rdock/2013.1/src/exe/rbdock.cxx#4 $)

>  <Rbt.Library>
libRbt.so (2013.1, Build901 2013/11/27)

>  <Rbt.Parameter_File>
/export/apps/rDock/src/rDock_2013.1_src/data/scripts/dock_solv.prm

>  <Rbt.Receptor>
prm/blind_docking_40.prm

>  <SCORE>
45.7756

>  <SCORE.INTER>
3.93335

>  <SCORE.INTER.CONST>
1

>  <SCORE.INTER.POLAR>
-0.88734

>  <SCORE.INTER.ROT>
6

>  <SCORE.INTER.SOLV>
22.3751

>  <SCORE.INTER.VDW>
-9.47834

>  <SCORE.INTER.norm>
0.106307

>  <SCORE.INTRA>
13.0172

>  <SCORE.INTRA.DIHEDRAL>
0.272515

>  <SCORE.INTRA.DIHEDRAL.0>
16.4056

>  <SCORE.INTRA.POLAR>
0

>  <SCORE.INTRA.POLAR.0>
0

>  <SCORE.INTRA.REPUL>
0

>  <SCORE.INTRA.REPUL.0>
0

>  <SCORE.INTRA.SOLV>
2.65686

>  <SCORE.INTRA.SOLV.lig_0>
-90.9627

>  <SCORE.INTRA.VDW>
11.5525

>  <SCORE.INTRA.VDW.0>
-3.28744

>  <SCORE.INTRA.norm>
0.351816

>  <SCORE.RESTR>
28.8251

>  <SCORE.RESTR.CAVITY>
28.8251

>  <SCORE.RESTR.norm>
0.779055

>  <SCORE.SYSTEM>
0

>  <SCORE.SYSTEM.CONST>
0

>  <SCORE.SYSTEM.DIHEDRAL>
0

>  <SCORE.SYSTEM.SOLV>
0

>  <SCORE.SYSTEM.norm>
0

>  <SCORE.heavy>
37

>  <SCORE.norm>
1.23718

>  <RMSD>
25.885

$$$$
2oe8_lig
 OpenBabel11021811463D
libRbt.so/2013.1/901 2013/11/27
 37 40  0  0  0  0  0  0  0  0999 V2000
   16.1825  -12.2340   28.1067 C   0  0  1  0  0  0  0  0  0  0  0  0
   15.4440  -12.4525   26.7318 C   0  0  1  0  0  0  0  0  0  0  0  0
   14.6083  -11.1997   26.3962 C   0  0  0  0  0  0  0  0  0  0  0  0
   13.5901  -11.0321   27.5671 C   0  0  1  0  0  0  0  0  0  0  0  0
   14.3325  -10.8278   28.9860 C   0  0  1  0  0  0  0  0  0  0  0  0
   13.3235  -10.6790   30.1623 C   0  0  1  0  0  0  0  0  0  0  0  0
   12.3923   -9.4422   29.8309 C   0  0  1  0  0  0  0  0  0  0  0  0
   11.7318   -9.6672   28.4262 C   0  0  2  0  0  0  0  0  0  0  0  0
   10.2262  -10.2544   31.0738 C   0  0  0  0  0  0  0  0  0  0  0  0
   16.4349  -12.7045   25.6378 N   0  0  0  0  0  0  0  0  0  0  0  0
   11.3325   -9.2429   30.9110 N   0  0  0  0  0  0  0  0  0  0  0  0
   17.0890  -11.1253   28.0505 O   0  0  0  0  0  0  0  0  0  0  0  0
   15.2161  -11.9794   29.2152 O   0  0  0  0  0  0  0  0  0  0  0  0
   12.7300   -9.8770   27.3366 O   0  0  0  0  0  0  0  0  0  0  0  0
   12.5930  -11.9037   30.2468 O   0  0  0  0  0  0  0  0  0  0  0  0
   10.9681   -8.5616   28.1076 O   0  0  0  0  0  0  0  0  0  0  0  0
   11.7475   -7.3705   27.9055 C   0  0  2  0  0  0  0  0  0  0  0  0
   10.8979   -6.2867   27.1989 C   0  0  1  0  0  0  0  0  0  0  0  0
   10.5173   -6.7051   25.7455 C   0  0  2  0  0  0  0  0  0  0  0  0
   11.8167   -6.9690   24.9287 C   0  0  1  0  0  0  0  0  0  0  0  0
   12.5930   -8.1399   25.6632 C   0  0  1  0  0  0  0  0  0  0  0  0
   13.9042   -8.4840   24.9622 C   0  0  0  0  0  0  0  0  0  0  0  0
   11.4554   -7.3689   23.5387 N   0  0  0  0  0  0  0  0  0  0  0  0
   12.9274   -7.6948   27.0623 O   0  0  0  0  0  0  0  0  0  0  0  0
    9.7342   -6.0566   28.0160 O   0  0  0  0  0  0  0  0  0  0  0  0
    9.7888   -5.6496   25.1544 O   0  0  0  0  0  0  0  0  0  0  0  0
   13.6294   -9.0324   23.7002 O   0  0  0  0  0  0  0  0  0  0  0  0
   17.8591  -10.9635   29.2238 C   0  0  1  0  0  0  0  0  0  0  0  0
   16.8912  -10.5975   30.3946 C   0  0  1  0  0  0  0  0  0  0  0  0
   17.7307  -10.3852   31.6881 C   0  0  2  0  0  0  0  0  0  0  0  0
   18.5345  -11.6736   32.0450 C   0  0  1  0  0  0  0  0  0  0  0  0
   19.5061  -12.0571   30.8644 C   0  0  0  0  0  0  0  0  0  0  0  0
   18.6469  -12.2785   29.5510 C   0  0  2  0  0  0  0  0  0  0  0  0
   19.3326  -11.4437   33.2811 N   0  0  0  0  0  0  0  0  0  0  0  0
   19.5660  -12.6417   28.4490 N   0  0  0  0  0  0  0  0  0  0  0  0
   16.1770   -9.3843   30.0927 O   0  0  0  0  0  0  0  0  0  0  0  0
   16.8293  -10.0618   32.7340 O   0  0  0  0  0  0  0  0  0  0  0  0
  1  2  1  0  0  0  0
  1 12  1  6  0  0  0
  1 13  1  0  0  0  0
  2  3  1  0  0  0  0
  2 10  1  6  0  0  0
  4  3  1  6  0  0  0
  4  5  1  0  0  0  0
  4 14  1  0  0  0  0
  5  6  1  0  0  0  0
  5 13  1  1  0  0  0
  6  7  1  0  0  0  0
  6 15  1  6  0  0  0
  7  8  1  0  0  0  0
  7 11  1  1  0  0  0
  8 14  1  0  0  0  0
  8 16  1  6  0  0  0
  9 11  1  0  0  0  0
 17 16  1  6  0  0  0
 17 18  1  0  0  0  0
 17 24  1  0  0  0  0
 18 19  1  0  0  0  0
 18 25  1  1  0  0  0
 19 20  1  0  0  0  0
 19 26  1  6  0  0  0
 20 21  1  0  0  0  0
 20 23  1  6  0  0  0
 21 22  1  6  0  0  0
 21 24  1  0  0  0  0
 22 27  1  0  0  0  0
 28 12  1  6  0  0  0
 28 29  1  0  0  0  0
 28 33  1  0  0  0  0
 29 30  1  0  0  0  0
 29 36  1  6  0  0  0
 30 31  1  0  0  0  0
 30 37  1  1  0  0  0
 31 32  1  0  0  0  0
 31 34  1  1  0  0  0
 32 33  1  0  0  0  0
 33 35  1  6  0  0  0
M  END
>  <CHROM.1>
-174.78795275,-68.54582704,66.25171465,165.05525025,-66.50875728,-65.22419327
14.23162547,-9.82311164,28.34391757,-0.52716499,0.51909587,-1.49135926

>  <Name>
2oe8_lig

>  <RI>
0

>  <Rbt.Current_Directory>
/home/itssahil/PROJECTS/Mol_Feturizer/New_Systems/rnas/2oe8

>  <Rbt.Executable>
rbdock ($Id: //depot/dev/client3/rdock/2013.1/src/exe/rbdock.cxx#4 $)

>  <Rbt.Library>
libRbt.so (2013.1, Build901 2013/11/27)

>  <Rbt.Parameter_File>
/export/apps/rDock/src/rDock_2013.1_src/data/scripts/dock_solv.prm

>  <Rbt.Receptor>
prm/blind_docking_40.prm

>  <SCORE>
40.3617

>  <SCORE.INTER>
5.30364

>  <SCORE.INTER.CONST>
1

>  <SCORE.INTER.POLAR>
-0.384309

>  <SCORE.INTER.ROT>
6

>  <SCORE.INTER.SOLV>
17.0228

>  <SCORE.INTER.VDW>
-8.45747

>  <SCORE.INTER.norm>
0.143342

>  <SCORE.INTRA>
7.25584

>  <SCORE.INTRA.DIHEDRAL>
-14.6179

>  <SCORE.INTRA.DIHEDRAL.0>
16.4056

>  <SCORE.INTRA.POLAR>
0

>  <SCORE.INTRA.POLAR.0>
0

>  <SCORE.INTRA.REPUL>
0

>  <SCORE.INTRA.REPUL.0>
0

>  <SCORE.INTRA.SOLV>
0.477866

>  <SCORE.INTRA.SOLV.lig_0>
-90.9627

>  <SCORE.INTRA.VDW>
14.3259

>  <SCORE.INTRA.VDW.0>
-3.28744

>  <SCORE.INTRA.norm>
0.196104

>  <SCORE.RESTR>
27.8022

>  <SCORE.RESTR.CAVITY>
27.8022

>  <SCORE.RESTR.norm>
0.751411

>  <SCORE.SYSTEM>
0

>  <SCORE.SYSTEM.CONST>
0

>  <SCORE.SYSTEM.DIHEDRAL>
0

>  <SCORE.SYSTEM.SOLV>
0

>  <SCORE.SYSTEM.norm>
0

>  <SCORE.heavy>
37

>  <SCORE.norm>
1.09086

>  <RMSD>
25.987

$$$$
2oe8_lig
 OpenBabel11021811463D
libRbt.so/2013.1/901 2013/11/27
 37 40  0  0  0  0  0  0  0  0999 V2000
   10.4761   -9.3815   29.1697 C   0  0  1  0  0  0  0  0  0  0  0  0
   10.7797  -10.1285   30.5236 C   0  0  1  0  0  0  0  0  0  0  0  0
   12.3029  -10.1414   30.7692 C   0  0  0  0  0  0  0  0  0  0  0  0
   12.9311  -10.8921   29.5536 C   0  0  1  0  0  0  0  0  0  0  0  0
   12.6108  -10.1494   28.1565 C   0  0  1  0  0  0  0  0  0  0  0  0
   13.2178  -10.9025   26.9366 C   0  0  1  0  0  0  0  0  0  0  0  0
   14.7798  -11.0041   27.1751 C   0  0  1  0  0  0  0  0  0  0  0  0
   15.0371  -11.6897   28.5621 C   0  0  2  0  0  0  0  0  0  0  0  0
   16.9136  -12.1624   26.1744 C   0  0  0  0  0  0  0  0  0  0  0  0
   10.0916   -9.4465   31.6654 N   0  0  0  0  0  0  0  0  0  0  0  0
   15.4626  -11.7726   26.0470 N   0  0  0  0  0  0  0  0  0  0  0  0
   10.9081   -8.0156   29.2100 O   0  0  0  0  0  0  0  0  0  0  0  0
   11.1521  -10.0416   28.0143 O   0  0  0  0  0  0  0  0  0  0  0  0
   14.3798  -10.9784   29.6978 O   0  0  0  0  0  0  0  0  0  0  0  0
   12.5910  -12.1849   26.8800 O   0  0  0  0  0  0  0  0  0  0  0  0
   16.3969  -11.7231   28.8003 O   0  0  0  0  0  0  0  0  0  0  0  0
   16.9138  -10.4877   29.3232 C   0  0  2  0  0  0  0  0  0  0  0  0
   18.4316  -10.3784   29.0402 C   0  0  1  0  0  0  0  0  0  0  0  0
   19.2457  -11.4552   29.8212 C   0  0  2  0  0  0  0  0  0  0  0  0
   18.9830  -11.2923   31.3475 C   0  0  1  0  0  0  0  0  0  0  0  0
   17.4268  -11.4955   31.5717 C   0  0  1  0  0  0  0  0  0  0  0  0
   17.0361  -11.3429   33.0390 C   0  0  0  0  0  0  0  0  0  0  0  0
   19.7604  -12.3206   32.0964 N   0  0  0  0  0  0  0  0  0  0  0  0
   16.6848  -10.4433   30.7908 O   0  0  0  0  0  0  0  0  0  0  0  0
   18.6098  -10.4959   27.6157 O   0  0  0  0  0  0  0  0  0  0  0  0
   20.6178  -11.2597   29.5501 O   0  0  0  0  0  0  0  0  0  0  0  0
   17.0176   -9.9814   33.3784 O   0  0  0  0  0  0  0  0  0  0  0  0
   11.5525   -7.5902   28.0269 C   0  0  1  0  0  0  0  0  0  0  0  0
   12.9623   -8.2619   27.9722 C   0  0  1  0  0  0  0  0  0  0  0  0
   13.6965   -7.7768   26.6883 C   0  0  2  0  0  0  0  0  0  0  0  0
   12.8811   -8.1458   25.4106 C   0  0  1  0  0  0  0  0  0  0  0  0
   11.4526   -7.4815   25.4622 C   0  0  0  0  0  0  0  0  0  0  0  0
   10.7061   -7.9827   26.7674 C   0  0  2  0  0  0  0  0  0  0  0  0
   13.6006   -7.6670   24.1978 N   0  0  0  0  0  0  0  0  0  0  0  0
    9.3649   -7.3575   26.8060 N   0  0  0  0  0  0  0  0  0  0  0  0
   13.7384   -7.8908   29.1268 O   0  0  0  0  0  0  0  0  0  0  0  0
   14.9674   -8.4053   26.6599 O   0  0  0  0  0  0  0  0  0  0  0  0
  1  2  1  0  0  0  0
  1 12  1  1  0  0  0
  1 13  1  0  0  0  0
  2  3  1  0  0  0  0
  2 10  1  1  0  0  0
  4  3  1  1  0  0  0
  4  5  1  0  0  0  0
  4 14  1  0  0  0  0
  5  6  1  0  0  0  0
  5 13  1  6  0  0  0
  6  7  1  0  0  0  0
  6 15  1  1  0  0  0
  7  8  1  0  0  0  0
  7 11  1  6  0  0  0
  8 14  1  0  0  0  0
  8 16  1  1  0  0  0
  9 11  1  0  0  0  0
 17 16  1  1  0  0  0
 17 18  1  0  0  0  0
 17 24  1  0  0  0  0
 18 19  1  0  0  0  0
 18 25  1  6  0  0  0
 19 20  1  0  0  0  0
 19 26  1  1  0  0  0
 20 21  1  0  0  0  0
 20 23  1  1  0  0  0
 21 22  1  1  0  0  0
 21 24  1  0  0  0  0
 22 27  1  0  0  0  0
 28 12  1  1  0  0  0
 28 29  1  0  0  0  0
 28 33  1  0  0  0  0
 29 30  1  0  0  0  0
 29 36  1  1  0  0  0
 30 31  1  0  0  0  0
 30 37  1  6  0  0  0
 31 32  1  0  0  0  0
 31 34  1  6  0  0  0
 32 33  1  0  0  0  0
 33 35  1  1  0  0  0
M  END
>  <CHROM.1>
137.35610312,-170.97376001,81.82068005,-157.38640604,76.65168424,-72.37789820
14.51878116,-10.01484812,28.71736731,2.71135464,0.30500925,-1.40953916

>  <Name>
2oe8_lig

>  <RI>
0

>  <Rbt.Current_Directory>
/home/itssahil/PROJECTS/Mol_Feturizer/New_Systems/rnas/2oe8

>  <Rbt.Executable>
rbdock ($Id: //depot/dev/client3/rdock/2013.1/src/exe/rbdock.cxx#4 $)

>  <Rbt.Library>
libRbt.so (2013.1, Build901 2013/11/27)

>  <Rbt.Parameter_File>
/export/apps/rDock/src/rDock_2013.1_src/data/scripts/dock_solv.prm

>  <Rbt.Receptor>
prm/blind_docking_40.prm

>  <SCORE>
53.3363

>  <SCORE.INTER>
2.41889

>  <SCORE.INTER.CONST>
1

>  <SCORE.INTER.POLAR>
-0.0401575

>  <SCORE.INTER.ROT>
6

>  <SCORE.INTER.SOLV>
22.0802

>  <SCORE.INTER.VDW>
-13.2136

>  <SCORE.INTER.norm>
0.0653755

>  <SCORE.INTRA>
27.7154

>  <SCORE.INTRA.DIHEDRAL>
-4.50815

>  <SCORE.INTRA.DIHEDRAL.0>
16.4056

>  <SCORE.INTRA.POLAR>
0

>  <SCORE.INTRA.POLAR.0>
0

>  <SCORE.INTRA.REPUL>
0.00542792

>  <SCORE.INTRA.REPUL.0>
0

>  <SCORE.INTRA.SOLV>
2.51306

>  <SCORE.INTRA.SOLV.lig_0>
-90.9627

>  <SCORE.INTRA.VDW>
28.6859

>  <SCORE.INTRA.VDW.0>
-3.28744

>  <SCORE.INTRA.norm>
0.749066

>  <SCORE.RESTR>
23.2019

>  <SCORE.RESTR.CAVITY>
23.2019

>  <SCORE.RESTR.norm>
0.627079

>  <SCORE.SYSTEM>
0

>  <SCORE.SYSTEM.CONST>
0

>  <SCORE.SYSTEM.DIHEDRAL>
0

>  <SCORE.SYSTEM.SOLV>
0

>  <SCORE.SYSTEM.norm>
0

>  <SCORE.heavy>
37

>  <SCORE.norm>
1.44152

>  <RMSD>
26.033

$$$$
2oe8_lig
 OpenBabel11021811463D
libRbt.so/2013.1/901 2013/11/27
 37 40  0  0  0  0  0  0  0  0999 V2000
   16.4694  -13.1909   27.4551 C   0  0  1  0  0  0  0  0  0  0  0  0
   16.7994  -12.1433   26.3251 C   0  0  1  0  0  0  0  0  0  0  0  0
   16.5917  -10.7167   26.8750 C   0  0  0  0  0  0  0  0  0  0  0  0
   15.0943  -10.6329   27.3069 C   0  0  1  0  0  0  0  0  0  0  0  0
   14.7361  -11.7150   28.4501 C   0  0  1  0  0  0  0  0  0  0  0  0
   13.2391  -11.6509   28.8730 C   0  0  1  0  0  0  0  0  0  0  0  0
   12.9559  -10.1788   29.3825 C   0  0  1  0  0  0  0  0  0  0  0  0
   13.3620   -9.1658   28.2560 C   0  0  2  0  0  0  0  0  0  0  0  0
   11.0408  -10.3720   31.1690 C   0  0  0  0  0  0  0  0  0  0  0  0
   18.2134  -12.3020   25.8586 N   0  0  0  0  0  0  0  0  0  0  0  0
   11.4924  -10.0027   29.7785 N   0  0  0  0  0  0  0  0  0  0  0  0
   17.3396  -13.0437   28.5843 O   0  0  0  0  0  0  0  0  0  0  0  0
   15.0643  -13.0531   27.9389 O   0  0  0  0  0  0  0  0  0  0  0  0
   14.7848   -9.3062   27.8274 O   0  0  0  0  0  0  0  0  0  0  0  0
   12.4625  -11.9879   27.7223 O   0  0  0  0  0  0  0  0  0  0  0  0
   13.1742   -7.8792   28.7212 O   0  0  0  0  0  0  0  0  0  0  0  0
   12.2578   -7.1128   27.9215 C   0  0  2  0  0  0  0  0  0  0  0  0
   10.8769   -7.8101   27.8707 C   0  0  1  0  0  0  0  0  0  0  0  0
   10.9434   -9.1728   27.1153 C   0  0  2  0  0  0  0  0  0  0  0  0
   11.4645   -8.9339   25.6673 C   0  0  1  0  0  0  0  0  0  0  0  0
   12.9094   -8.2947   25.7971 C   0  0  1  0  0  0  0  0  0  0  0  0
   13.5266   -7.9957   24.4338 C   0  0  0  0  0  0  0  0  0  0  0  0
   11.5287  -10.2352   24.9429 N   0  0  0  0  0  0  0  0  0  0  0  0
   12.7959   -6.9908   26.5416 O   0  0  0  0  0  0  0  0  0  0  0  0
   10.4285   -7.9687   29.2304 O   0  0  0  0  0  0  0  0  0  0  0  0
    9.6426   -9.7207   27.0694 O   0  0  0  0  0  0  0  0  0  0  0  0
   12.8044   -6.9673   23.8094 O   0  0  0  0  0  0  0  0  0  0  0  0
   16.8733  -12.1151   29.5414 C   0  0  1  0  0  0  0  0  0  0  0  0
   16.4034  -12.9100   30.8020 C   0  0  1  0  0  0  0  0  0  0  0  0
   15.8572  -11.9005   31.8534 C   0  0  2  0  0  0  0  0  0  0  0  0
   16.9562  -10.8684   32.2540 C   0  0  1  0  0  0  0  0  0  0  0  0
   17.4446  -10.0691   30.9862 C   0  0  0  0  0  0  0  0  0  0  0  0
   18.0056  -11.0999   29.9209 C   0  0  2  0  0  0  0  0  0  0  0  0
   16.4083   -9.9117   33.2552 N   0  0  0  0  0  0  0  0  0  0  0  0
   18.4652  -10.3412   28.7359 N   0  0  0  0  0  0  0  0  0  0  0  0
   15.3572  -13.8343   30.4493 O   0  0  0  0  0  0  0  0  0  0  0  0
   15.4450  -12.6459   32.9872 O   0  0  0  0  0  0  0  0  0  0  0  0
  1  2  1  0  0  0  0
  1 12  1  1  0  0  0
  1 13  1  0  0  0  0
  2  3  1  0  0  0  0
  2 10  1  1  0  0  0
  4  3  1  1  0  0  0
  4  5  1  0  0  0  0
  4 14  1  0  0  0  0
  5  6  1  0  0  0  0
  5 13  1  6  0  0  0
  6  7  1  0  0  0  0
  6 15  1  6  0  0  0
  7  8  1  0  0  0  0
  7 11  1  6  0  0  0
  8 14  1  0  0  0  0
  8 16  1  1  0  0  0
  9 11  1  0  0  0  0
 17 16  1  1  0  0  0
 17 18  1  0  0  0  0
 17 24  1  0  0  0  0
 18 19  1  0  0  0  0
 18 25  1  1  0  0  0
 19 20  1  0  0  0  0
 19 26  1  6  0  0  0
 20 21  1  0  0  0  0
 20 23  1  6  0  0  0
 21 22  1  6  0  0  0
 21 24  1  0  0  0  0
 22 27  1  0  0  0  0
 28 12  1  6  0  0  0
 28 29  1  0  0  0  0
 28 33  1  0  0  0  0
 29 30  1  0  0  0  0
 29 36  1  6  0  0  0
 30 31  1  0  0  0  0
 30 37  1  1  0  0  0
 31 32  1  0  0  0  0
 31 34  1  1  0  0  0
 32 33  1  0  0  0  0
 33 35  1  6  0  0  0
M  END
>  <CHROM.1>
87.96838318,85.89295134,-121.22337501,58.74621313,67.49422314,108.47700549
14.26248476,-10.37713750,28.42005826,-0.64965418,0.49713685,-1.34476548

>  <Name>
2oe8_lig

>  <RI>
0

>  <Rbt.Current_Directory>
/home/itssahil/PROJECTS/Mol_Feturizer/New_Systems/rnas/2oe8

>  <Rbt.Executable>
rbdock ($Id: //depot/dev/client3/rdock/2013.1/src/exe/rbdock.cxx#4 $)

>  <Rbt.Library>
libRbt.so (2013.1, Build901 2013/11/27)

>  <Rbt.Parameter_File>
/export/apps/rDock/src/rDock_2013.1_src/data/scripts/dock_solv.prm

>  <Rbt.Receptor>
prm/blind_docking_40.prm

>  <SCORE>
51.1874

>  <SCORE.INTER>
1.32179

>  <SCORE.INTER.CONST>
1

>  <SCORE.INTER.POLAR>
-1.289

>  <SCORE.INTER.ROT>
6

>  <SCORE.INTER.SOLV>
20.4021

>  <SCORE.INTER.VDW>
-9.22285

>  <SCORE.INTER.norm>
0.0357241

>  <SCORE.INTRA>
21.0144

>  <SCORE.INTRA.DIHEDRAL>
1.21079

>  <SCORE.INTRA.DIHEDRAL.0>
16.4056

>  <SCORE.INTRA.POLAR>
0

>  <SCORE.INTRA.POLAR.0>
0

>  <SCORE.INTRA.REPUL>
0

>  <SCORE.INTRA.REPUL.0>
0

>  <SCORE.INTRA.SOLV>
7.89774

>  <SCORE.INTRA.SOLV.lig_0>
-90.9627

>  <SCORE.INTRA.VDW>
16.4601

>  <SCORE.INTRA.VDW.0>
-3.28744

>  <SCORE.INTRA.norm>
0.567956

>  <SCORE.RESTR>
28.8513

>  <SCORE.RESTR.CAVITY>
28.8513

>  <SCORE.RESTR.norm>
0.779764

>  <SCORE.SYSTEM>
0

>  <SCORE.SYSTEM.CONST>
0

>  <SCORE.SYSTEM.DIHEDRAL>
0

>  <SCORE.SYSTEM.SOLV>
0

>  <SCORE.SYSTEM.norm>
0

>  <SCORE.heavy>
37

>  <SCORE.norm>
1.38344

>  <RMSD>
26.037

$$$$
2oe8_lig
 OpenBabel11021811463D
libRbt.so/2013.1/901 2013/11/27
 37 40  0  0  0  0  0  0  0  0999 V2000
   10.4881   -9.3621   29.1583 C   0  0  1  0  0  0  0  0  0  0  0  0
   10.7954  -10.0725   30.5310 C   0  0  1  0  0  0  0  0  0  0  0  0
   12.3197  -10.0853   30.7694 C   0  0  0  0  0  0  0  0  0  0  0  0
   12.9386  -10.8721   29.5720 C   0  0  1  0  0  0  0  0  0  0  0  0
   12.6145  -10.1671   28.1565 C   0  0  1  0  0  0  0  0  0  0  0  0
   13.2123  -10.9564   26.9550 C   0  0  1  0  0  0  0  0  0  0  0  0
   14.7750  -11.0581   27.1886 C   0  0  1  0  0  0  0  0  0  0  0  0
   15.0363  -11.7061   28.5928 C   0  0  2  0  0  0  0  0  0  0  0  0
   16.9157  -12.1959   26.1789 C   0  0  0  0  0  0  0  0  0  0  0  0
   10.1158   -9.3561   31.6567 N   0  0  0  0  0  0  0  0  0  0  0  0
   15.4489  -11.8607   26.0790 N   0  0  0  0  0  0  0  0  0  0  0  0
   10.9261   -7.9974   29.1585 O   0  0  0  0  0  0  0  0  0  0  0  0
   11.1556  -10.0569   28.0184 O   0  0  0  0  0  0  0  0  0  0  0  0
   14.3877  -10.9607   29.7116 O   0  0  0  0  0  0  0  0  0  0  0  0
   12.5797  -12.2371   26.9371 O   0  0  0  0  0  0  0  0  0  0  0  0
   16.3972  -11.7388   28.8252 O   0  0  0  0  0  0  0  0  0  0  0  0
   16.9161  -10.5023   29.3435 C   0  0  2  0  0  0  0  0  0  0  0  0
   18.4247  -10.3762   29.0211 C   0  0  1  0  0  0  0  0  0  0  0  0
   19.2694  -11.4507   29.7720 C   0  0  2  0  0  0  0  0  0  0  0  0
   19.0460  -11.3015   31.3060 C   0  0  1  0  0  0  0  0  0  0  0  0
   17.4984  -11.5213   31.5699 C   0  0  1  0  0  0  0  0  0  0  0  0
   17.1455  -11.3832   33.0482 C   0  0  0  0  0  0  0  0  0  0  0  0
   19.8529  -12.3276   32.0262 N   0  0  0  0  0  0  0  0  0  0  0  0
   16.7258  -10.4708   30.8170 O   0  0  0  0  0  0  0  0  0  0  0  0
   18.5659  -10.4817   27.5914 O   0  0  0  0  0  0  0  0  0  0  0  0
   20.6319  -11.2400   29.4660 O   0  0  0  0  0  0  0  0  0  0  0  0
   17.8042  -12.3822   33.7811 O   0  0  0  0  0  0  0  0  0  0  0  0
   11.5868   -7.6145   27.9700 C   0  0  1  0  0  0  0  0  0  0  0  0
   12.9986   -8.2840   27.9607 C   0  0  1  0  0  0  0  0  0  0  0  0
   13.7505   -7.8448   26.6704 C   0  0  2  0  0  0  0  0  0  0  0  0
   12.9546   -8.2630   25.3955 C   0  0  1  0  0  0  0  0  0  0  0  0
   11.5241   -7.6009   25.4018 C   0  0  0  0  0  0  0  0  0  0  0  0
   10.7597   -8.0555   26.7138 C   0  0  2  0  0  0  0  0  0  0  0  0
   13.6907   -7.8275   24.1764 N   0  0  0  0  0  0  0  0  0  0  0  0
    9.4168   -7.4328   26.7097 N   0  0  0  0  0  0  0  0  0  0  0  0
   13.7571   -7.8683   29.1118 O   0  0  0  0  0  0  0  0  0  0  0  0
   15.0230   -8.4706   26.6837 O   0  0  0  0  0  0  0  0  0  0  0  0
  1  2  1  0  0  0  0
  1 12  1  1  0  0  0
  1 13  1  0  0  0  0
  2  3  1  0  0  0  0
  2 10  1  1  0  0  0
  4  3  1  1  0  0  0
  4  5  1  0  0  0  0
  4 14  1  0  0  0  0
  5  6  1  0  0  0  0
  5 13  1  6  0  0  0
  6  7  1  0  0  0  0
  6 15  1  1  0  0  0
  7  8  1  0  0  0  0
  7 11  1  6  0  0  0
  8 14  1  0  0  0  0
  8 16  1  1  0  0  0
  9 11  1  0  0  0  0
 17 16  1  1  0  0  0
 17 18  1  0  0  0  0
 17 24  1  0  0  0  0
 18 19  1  0  0  0  0
 18 25  1  6  0  0  0
 19 20  1  0  0  0  0
 19 26  1  1  0  0  0
 20 21  1  0  0  0  0
 20 23  1  1  0  0  0
 21 22  1  1  0  0  0
 21 24  1  0  0  0  0
 22 27  1  0  0  0  0
 28 12  1  1  0  0  0
 28 29  1  0  0  0  0
 28 33  1  0  0  0  0
 29 30  1  0  0  0  0
 29 36  1  1  0  0  0
 30 31  1  0  0  0  0
 30 37  1  6  0  0  0
 31 32  1  0  0  0  0
 31 34  1  6  0  0  0
 32 33  1  0  0  0  0
 33 35  1  1  0  0  0
M  END
>  <CHROM.1>
136.32692331,-173.92343628,83.32073610,-155.89733503,-62.98065693,-72.84982534
14.56859401,-10.11055981,28.71905921,2.66899131,0.29553048,-1.34423229

>  <Name>
2oe8_lig

>  <RI>
0

>  <Rbt.Current_Directory>
/home/itssahil/PROJECTS/Mol_Feturizer/New_Systems/rnas/2oe8

>  <Rbt.Executable>
rbdock ($Id: //depot/dev/client3/rdock/2013.1/src/exe/rbdock.cxx#4 $)

>  <Rbt.Library>
libRbt.so (2013.1, Build901 2013/11/27)

>  <Rbt.Parameter_File>
/export/apps/rDock/src/rDock_2013.1_src/data/scripts/dock_solv.prm

>  <Rbt.Receptor>
prm/blind_docking_40.prm

>  <SCORE>
54.0325

>  <SCORE.INTER>
1.19256

>  <SCORE.INTER.CONST>
1

>  <SCORE.INTER.POLAR>
-0.0945051

>  <SCORE.INTER.ROT>
6

>  <SCORE.INTER.SOLV>
22.2319

>  <SCORE.INTER.VDW>
-13.9006

>  <SCORE.INTER.norm>
0.0322312

>  <SCORE.INTRA>
28.2701

>  <SCORE.INTRA.DIHEDRAL>
-4.72384

>  <SCORE.INTRA.DIHEDRAL.0>
16.4056

>  <SCORE.INTRA.POLAR>
0

>  <SCORE.INTRA.POLAR.0>
0

>  <SCORE.INTRA.REPUL>
0.000498917

>  <SCORE.INTRA.REPUL.0>
0

>  <SCORE.INTRA.SOLV>
3.27267

>  <SCORE.INTRA.SOLV.lig_0>
-90.9627

>  <SCORE.INTRA.VDW>
28.9932

>  <SCORE.INTRA.VDW.0>
-3.28744

>  <SCORE.INTRA.norm>
0.764057

>  <SCORE.RESTR>
24.5698

>  <SCORE.RESTR.CAVITY>
24.5698

>  <SCORE.RESTR.norm>
0.664049

>  <SCORE.SYSTEM>
0

>  <SCORE.SYSTEM.CONST>
0

>  <SCORE.SYSTEM.DIHEDRAL>
0

>  <SCORE.SYSTEM.SOLV>
0

>  <SCORE.SYSTEM.norm>
0

>  <SCORE.heavy>
37

>  <SCORE.norm>
1.46034

>  <RMSD>
26.054

$$$$
2oe8_lig
 OpenBabel11021811463D
libRbt.so/2013.1/901 2013/11/27
 37 40  0  0  0  0  0  0  0  0999 V2000
   10.7949  -10.3786   29.3015 C   0  0  1  0  0  0  0  0  0  0  0  0
   11.3451  -10.6573   30.7517 C   0  0  1  0  0  0  0  0  0  0  0  0
   12.6952   -9.9328   30.9336 C   0  0  0  0  0  0  0  0  0  0  0  0
   13.6488  -10.5141   29.8433 C   0  0  1  0  0  0  0  0  0  0  0  0
   13.0876  -10.2542   28.3522 C   0  0  1  0  0  0  0  0  0  0  0  0
   14.0237  -10.8480   27.2589 C   0  0  1  0  0  0  0  0  0  0  0  0
   15.4489  -10.1845   27.4478 C   0  0  1  0  0  0  0  0  0  0  0  0
   15.9285  -10.4250   28.9216 C   0  0  2  0  0  0  0  0  0  0  0  0
   16.2599  -12.1227   25.8723 C   0  0  0  0  0  0  0  0  0  0  0  0
   10.3727  -10.1761   31.7837 N   0  0  0  0  0  0  0  0  0  0  0  0
   16.4553  -10.7414   26.4446 N   0  0  0  0  0  0  0  0  0  0  0  0
   10.5564   -8.9821   29.0849 O   0  0  0  0  0  0  0  0  0  0  0  0
   11.7472  -10.8485   28.2527 O   0  0  0  0  0  0  0  0  0  0  0  0
   14.9704   -9.9052   29.9413 O   0  0  0  0  0  0  0  0  0  0  0  0
   14.0516  -12.2630   27.4530 O   0  0  0  0  0  0  0  0  0  0  0  0
   17.1429   -9.7940   29.1064 O   0  0  0  0  0  0  0  0  0  0  0  0
   18.1431  -10.6447   29.6920 C   0  0  2  0  0  0  0  0  0  0  0  0
   18.2191  -11.9884   28.9275 C   0  0  1  0  0  0  0  0  0  0  0  0
   16.9121  -12.8232   29.0916 C   0  0  2  0  0  0  0  0  0  0  0  0
   16.6601  -13.0932   30.6045 C   0  0  1  0  0  0  0  0  0  0  0  0
   16.5133  -11.6796   31.3068 C   0  0  1  0  0  0  0  0  0  0  0  0
   16.2772  -11.8095   32.8089 C   0  0  0  0  0  0  0  0  0  0  0  0
   15.4111  -13.8914   30.7639 N   0  0  0  0  0  0  0  0  0  0  0  0
   17.7917  -10.9081   31.1117 O   0  0  0  0  0  0  0  0  0  0  0  0
   18.4920  -11.6796   27.5473 O   0  0  0  0  0  0  0  0  0  0  0  0
   17.0776  -14.0488   28.4097 O   0  0  0  0  0  0  0  0  0  0  0  0
   14.9990  -12.3421   33.0365 O   0  0  0  0  0  0  0  0  0  0  0  0
   11.0988   -8.4960   27.8744 C   0  0  1  0  0  0  0  0  0  0  0  0
   12.6513   -8.4181   28.0333 C   0  0  1  0  0  0  0  0  0  0  0  0
   13.2599   -7.8537   26.7165 C   0  0  2  0  0  0  0  0  0  0  0  0
   12.8941   -8.7626   25.5026 C   0  0  1  0  0  0  0  0  0  0  0  0
   11.3288   -8.8563   25.3412 C   0  0  0  0  0  0  0  0  0  0  0  0
   10.7138   -9.4371   26.6815 C   0  0  2  0  0  0  0  0  0  0  0  0
   13.4823   -8.1994   24.2558 N   0  0  0  0  0  0  0  0  0  0  0  0
    9.2450   -9.5252   26.5200 N   0  0  0  0  0  0  0  0  0  0  0  0
   12.9993   -7.5455   29.1245 O   0  0  0  0  0  0  0  0  0  0  0  0
   14.6669   -7.8001   26.8850 O   0  0  0  0  0  0  0  0  0  0  0  0
  1  2  1  0  0  0  0
  1 12  1  1  0  0  0
  1 13  1  0  0  0  0
  2  3  1  0  0  0  0
  2 10  1  1  0  0  0
  4  3  1  1  0  0  0
  4  5  1  0  0  0  0
  4 14  1  0  0  0  0
  5  6  1  0  0  0  0
  5 13  1  1  0  0  0
  6  7  1  0  0  0  0
  6 15  1  1  0  0  0
  7  8  1  0  0  0  0
  7 11  1  6  0  0  0
  8 14  1  0  0  0  0
  8 16  1  6  0  0  0
  9 11  1  0  0  0  0
 17 16  1  6  0  0  0
 17 18  1  0  0  0  0
 17 24  1  0  0  0  0
 18 19  1  0  0  0  0
 18 25  1  6  0  0  0
 19 20  1  0  0  0  0
 19 26  1  6  0  0  0
 20 21  1  0  0  0  0
 20 23  1  6  0  0  0
 21 22  1  1  0  0  0
 21 24  1  0  0  0  0
 22 27  1  0  0  0  0
 28 12  1  1  0  0  0
 28 29  1  0  0  0  0
 28 33  1  0  0  0  0
 29 30  1  0  0  0  0
 29 36  1  1  0  0  0
 30 31  1  0  0  0  0
 30 37  1  1  0  0  0
 31 32  1  0  0  0  0
 31 34  1  6  0  0  0
 32 33  1  0  0  0  0
 33 35  1  6  0  0  0
M  END
>  <CHROM.1>
131.77978674,-26.02137063,-129.94098998,49.72213323,-69.45341165,-72.82983021
14.28807269,-10.49145002,28.68929501,2.61244266,0.34706352,-1.22963214

>  <Name>
2oe8_lig

>  <RI>
0

>  <Rbt.Current_Directory>
/home/itssahil/PROJECTS/Mol_Feturizer/New_Systems/rnas/2oe8

>  <Rbt.Executable>
rbdock ($Id: //depot/dev/client3/rdock/2013.1/src/exe/rbdock.cxx#4 $)

>  <Rbt.Library>
libRbt.so (2013.1, Build901 2013/11/27)

>  <Rbt.Parameter_File>
/export/apps/rDock/src/rDock_2013.1_src/data/scripts/dock_solv.prm

>  <Rbt.Receptor>
prm/blind_docking_40.prm

>  <SCORE>
72.2153

>  <SCORE.INTER>
5.91071

>  <SCORE.INTER.CONST>
1

>  <SCORE.INTER.POLAR>
-0.711683

>  <SCORE.INTER.ROT>
6

>  <SCORE.INTER.SOLV>
19.7912

>  <SCORE.INTER.VDW>
-7.88431

>  <SCORE.INTER.norm>
0.159749

>  <SCORE.INTRA>
41.2552

>  <SCORE.INTRA.DIHEDRAL>
-0.86448

>  <SCORE.INTRA.DIHEDRAL.0>
16.4056

>  <SCORE.INTRA.POLAR>
0

>  <SCORE.INTRA.POLAR.0>
0

>  <SCORE.INTRA.REPUL>
0.0306935

>  <SCORE.INTRA.REPUL.0>
0

>  <SCORE.INTRA.SOLV>
7.7275

>  <SCORE.INTRA.SOLV.lig_0>
-90.9627

>  <SCORE.INTRA.VDW>
37.6702

>  <SCORE.INTRA.VDW.0>
-3.28744

>  <SCORE.INTRA.norm>
1.11501

>  <SCORE.RESTR>
25.0494

>  <SCORE.RESTR.CAVITY>
25.0494

>  <SCORE.RESTR.norm>
0.677012

>  <SCORE.SYSTEM>
0

>  <SCORE.SYSTEM.CONST>
0

>  <SCORE.SYSTEM.DIHEDRAL>
0

>  <SCORE.SYSTEM.SOLV>
0

>  <SCORE.SYSTEM.norm>
0

>  <SCORE.heavy>
37

>  <SCORE.norm>
1.95177

>  <RMSD>
26.137

$$$$
2oe8_lig
 OpenBabel11021811463D
libRbt.so/2013.1/901 2013/11/27
 37 40  0  0  0  0  0  0  0  0999 V2000
   10.9294  -10.6855   29.3583 C   0  0  1  0  0  0  0  0  0  0  0  0
   11.5531  -10.8012   30.8009 C   0  0  1  0  0  0  0  0  0  0  0  0
   12.8642   -9.9897   30.8570 C   0  0  0  0  0  0  0  0  0  0  0  0
   13.8058  -10.6136   29.7799 C   0  0  1  0  0  0  0  0  0  0  0  0
   13.1707  -10.5209   28.2987 C   0  0  1  0  0  0  0  0  0  0  0  0
   14.0954  -11.1583   27.2205 C   0  0  1  0  0  0  0  0  0  0  0  0
   15.4854  -10.4028   27.2855 C   0  0  1  0  0  0  0  0  0  0  0  0
   16.0373  -10.4822   28.7514 C   0  0  2  0  0  0  0  0  0  0  0  0
   16.0701  -12.1417   25.4064 C   0  0  0  0  0  0  0  0  0  0  0  0
   10.5962  -10.2832   31.8297 N   0  0  0  0  0  0  0  0  0  0  0  0
   16.4817  -10.9915   26.2905 N   0  0  0  0  0  0  0  0  0  0  0  0
   10.6003   -9.3296   29.0308 O   0  0  0  0  0  0  0  0  0  0  0  0
   11.8649  -11.1949   28.3128 O   0  0  0  0  0  0  0  0  0  0  0  0
   15.0920   -9.9262   29.7639 O   0  0  0  0  0  0  0  0  0  0  0  0
   14.2147  -12.5464   27.5367 O   0  0  0  0  0  0  0  0  0  0  0  0
   17.2187   -9.7710   28.8248 O   0  0  0  0  0  0  0  0  0  0  0  0
   18.2988  -10.5200   29.4073 C   0  0  2  0  0  0  0  0  0  0  0  0
   18.2864  -11.9761   28.8827 C   0  0  1  0  0  0  0  0  0  0  0  0
   17.0234  -12.7545   29.3634 C   0  0  2  0  0  0  0  0  0  0  0  0
   16.9817  -12.7568   30.9201 C   0  0  1  0  0  0  0  0  0  0  0  0
   16.9148  -11.2417   31.3817 C   0  0  1  0  0  0  0  0  0  0  0  0
   16.8856  -11.1082   32.9017 C   0  0  0  0  0  0  0  0  0  0  0  0
   15.7751  -13.5007   31.3822 N   0  0  0  0  0  0  0  0  0  0  0  0
   18.1459  -10.5307   30.8855 O   0  0  0  0  0  0  0  0  0  0  0  0
   18.3664  -11.9129   27.4458 O   0  0  0  0  0  0  0  0  0  0  0  0
   17.1095  -14.0811   28.8868 O   0  0  0  0  0  0  0  0  0  0  0  0
   16.8845   -9.7492   33.2514 O   0  0  0  0  0  0  0  0  0  0  0  0
   11.2262   -8.8635   27.8532 C   0  0  1  0  0  0  0  0  0  0  0  0
   10.1269   -8.6793   26.7581 C   0  0  1  0  0  0  0  0  0  0  0  0
   10.8075   -8.1957   25.4444 C   0  0  2  0  0  0  0  0  0  0  0  0
   11.5613   -6.8493   25.6737 C   0  0  1  0  0  0  0  0  0  0  0  0
   12.6652   -7.0226   26.7855 C   0  0  0  0  0  0  0  0  0  0  0  0
   11.9674   -7.5090   28.1229 C   0  0  2  0  0  0  0  0  0  0  0  0
   12.2075   -6.4111   24.4057 N   0  0  0  0  0  0  0  0  0  0  0  0
   13.0100   -7.6655   29.1619 N   0  0  0  0  0  0  0  0  0  0  0  0
    9.4556   -9.9283   26.5080 O   0  0  0  0  0  0  0  0  0  0  0  0
    9.7891   -8.0303   24.4716 O   0  0  0  0  0  0  0  0  0  0  0  0
  1  2  1  0  0  0  0
  1 12  1  6  0  0  0
  1 13  1  0  0  0  0
  2  3  1  0  0  0  0
  2 10  1  1  0  0  0
  4  3  1  1  0  0  0
  4  5  1  0  0  0  0
  4 14  1  0  0  0  0
  5  6  1  0  0  0  0
  5 13  1  1  0  0  0
  6  7  1  0  0  0  0
  6 15  1  1  0  0  0
  7  8  1  0  0  0  0
  7 11  1  6  0  0  0
  8 14  1  0  0  0  0
  8 16  1  6  0  0  0
  9 11  1  0  0  0  0
 17 16  1  6  0  0  0
 17 18  1  0  0  0  0
 17 24  1  0  0  0  0
 18 19  1  0  0  0  0
 18 25  1  6  0  0  0
 19 20  1  0  0  0  0
 19 26  1  1  0  0  0
 20 21  1  0  0  0  0
 20 23  1  6  0  0  0
 21 22  1  1  0  0  0
 21 24  1  0  0  0  0
 22 27  1  0  0  0  0
 28 12  1  1  0  0  0
 28 29  1  0  0  0  0
 28 33  1  0  0  0  0
 29 30  1  0  0  0  0
 29 36  1  6  0  0  0
 30 31  1  0  0  0  0
 30 37  1  6  0  0  0
 31 32  1  0  0  0  0
 31 34  1  6  0  0  0
 32 33  1  0  0  0  0
 33 35  1  1  0  0  0
M  END
>  <CHROM.1>
123.01461474,0.34133083,-128.51997259,41.34054346,177.49613233,110.74616915
14.17030138,-10.29358506,28.62463237,2.60851130,0.38426580,-1.38026053

>  <Name>
2oe8_lig

>  <RI>
0

>  <Rbt.Current_Directory>
/home/itssahil/PROJECTS/Mol_Feturizer/New_Systems/rnas/2oe8

>  <Rbt.Executable>
rbdock ($Id: //depot/dev/client3/rdock/2013.1/src/exe/rbdock.cxx#4 $)

>  <Rbt.Library>
libRbt.so (2013.1, Build901 2013/11/27)

>  <Rbt.Parameter_File>
/export/apps/rDock/src/rDock_2013.1_src/data/scripts/dock_solv.prm

>  <Rbt.Receptor>
prm/blind_docking_40.prm

>  <SCORE>
44.0653

>  <SCORE.INTER>
-4.56025

>  <SCORE.INTER.CONST>
1

>  <SCORE.INTER.POLAR>
-2.16572

>  <SCORE.INTER.ROT>
6

>  <SCORE.INTER.SOLV>
20.9186

>  <SCORE.INTER.VDW>
-10.394

>  <SCORE.INTER.norm>
-0.12325

>  <SCORE.INTRA>
21.3946

>  <SCORE.INTRA.DIHEDRAL>
7.12433

>  <SCORE.INTRA.DIHEDRAL.0>
16.4056

>  <SCORE.INTRA.POLAR>
0

>  <SCORE.INTRA.POLAR.0>
0

>  <SCORE.INTRA.REPUL>
0

>  <SCORE.INTRA.REPUL.0>
0

>  <SCORE.INTRA.SOLV>
6.42927

>  <SCORE.INTRA.SOLV.lig_0>
-90.9627

>  <SCORE.INTRA.VDW>
14.6178

>  <SCORE.INTRA.VDW.0>
-3.28744

>  <SCORE.INTRA.norm>
0.578233

>  <SCORE.RESTR>
27.2309

>  <SCORE.RESTR.CAVITY>
27.2309

>  <SCORE.RESTR.norm>
0.73597

>  <SCORE.SYSTEM>
0

>  <SCORE.SYSTEM.CONST>
0

>  <SCORE.SYSTEM.DIHEDRAL>
0

>  <SCORE.SYSTEM.SOLV>
0

>  <SCORE.SYSTEM.norm>
0

>  <SCORE.heavy>
37

>  <SCORE.norm>
1.19095

>  <RMSD>
26.213

$$$$
2oe8_lig
 OpenBabel11021811463D
libRbt.so/2013.1/901 2013/11/27
 37 40  0  0  0  0  0  0  0  0999 V2000
   11.0156  -11.5771   29.5780 C   0  0  1  0  0  0  0  0  0  0  0  0
   11.7747  -11.1367   30.8869 C   0  0  1  0  0  0  0  0  0  0  0  0
   12.8987  -10.1466   30.5167 C   0  0  0  0  0  0  0  0  0  0  0  0
   13.8464  -10.9125   29.5414 C   0  0  1  0  0  0  0  0  0  0  0  0
   13.0772  -11.3883   28.2042 C   0  0  1  0  0  0  0  0  0  0  0  0
   14.0111  -12.1700   27.2343 C   0  0  1  0  0  0  0  0  0  0  0  0
   15.2239  -11.2167   26.8773 C   0  0  1  0  0  0  0  0  0  0  0  0
   15.9078  -10.7467   28.2082 C   0  0  2  0  0  0  0  0  0  0  0  0
   15.7645  -12.4965   24.6487 C   0  0  0  0  0  0  0  0  0  0  0  0
   10.8289  -10.4875   31.8492 N   0  0  0  0  0  0  0  0  0  0  0  0
   16.2253  -11.9154   25.9616 N   0  0  0  0  0  0  0  0  0  0  0  0
   10.3966  -10.4621   28.9242 O   0  0  0  0  0  0  0  0  0  0  0  0
   11.9374  -12.2270   28.6004 O   0  0  0  0  0  0  0  0  0  0  0  0
   14.9643  -10.0650   29.1424 O   0  0  0  0  0  0  0  0  0  0  0  0
   14.4307  -13.3527   27.9169 O   0  0  0  0  0  0  0  0  0  0  0  0
   16.9266   -9.8662   27.9019 O   0  0  0  0  0  0  0  0  0  0  0  0
   18.1794  -10.2084   28.5186 C   0  0  2  0  0  0  0  0  0  0  0  0
   18.4693  -11.7186   28.3426 C   0  0  1  0  0  0  0  0  0  0  0  0
   17.4452  -12.5998   29.1216 C   0  0  2  0  0  0  0  0  0  0  0  0
   17.4918  -12.2288   30.6333 C   0  0  1  0  0  0  0  0  0  0  0  0
   17.1079  -10.6946   30.7434 C   0  0  1  0  0  0  0  0  0  0  0  0
   17.1337  -10.2014   32.1874 C   0  0  0  0  0  0  0  0  0  0  0  0
   16.5136  -13.0702   31.3802 N   0  0  0  0  0  0  0  0  0  0  0  0
   18.1154   -9.8876   29.9682 O   0  0  0  0  0  0  0  0  0  0  0  0
   18.4527  -11.9947   26.9290 O   0  0  0  0  0  0  0  0  0  0  0  0
   17.8040  -13.9552   28.9521 O   0  0  0  0  0  0  0  0  0  0  0  0
   18.4607   -9.9621   32.5757 O   0  0  0  0  0  0  0  0  0  0  0  0
   11.3139   -9.6042   28.2773 C   0  0  1  0  0  0  0  0  0  0  0  0
   11.0706   -9.7043   26.7370 C   0  0  1  0  0  0  0  0  0  0  0  0
   12.0964   -8.7872   26.0093 C   0  0  2  0  0  0  0  0  0  0  0  0
   11.9457   -7.3066   26.4769 C   0  0  1  0  0  0  0  0  0  0  0  0
   12.1784   -7.1975   28.0321 C   0  0  0  0  0  0  0  0  0  0  0  0
   11.1281   -8.1278   28.7694 C   0  0  2  0  0  0  0  0  0  0  0  0
   12.9401   -6.4515   25.7716 N   0  0  0  0  0  0  0  0  0  0  0  0
   11.3511   -8.0164   30.2286 N   0  0  0  0  0  0  0  0  0  0  0  0
   11.2514  -11.0607   26.2890 O   0  0  0  0  0  0  0  0  0  0  0  0
   11.8496   -8.8912   24.6167 O   0  0  0  0  0  0  0  0  0  0  0  0
  1  2  1  0  0  0  0
  1 12  1  6  0  0  0
  1 13  1  0  0  0  0
  2  3  1  0  0  0  0
  2 10  1  1  0  0  0
  4  3  1  1  0  0  0
  4  5  1  0  0  0  0
  4 14  1  0  0  0  0
  5  6  1  0  0  0  0
  5 13  1  1  0  0  0
  6  7  1  0  0  0  0
  6 15  1  1  0  0  0
  7  8  1  0  0  0  0
  7 11  1  6  0  0  0
  8 14  1  0  0  0  0
  8 16  1  6  0  0  0
  9 11  1  0  0  0  0
 17 16  1  6  0  0  0
 17 18  1  0  0  0  0
 17 24  1  0  0  0  0
 18 19  1  0  0  0  0
 18 25  1  6  0  0  0
 19 20  1  0  0  0  0
 19 26  1  1  0  0  0
 20 21  1  0  0  0  0
 20 23  1  1  0  0  0
 21 22  1  1  0  0  0
 21 24  1  0  0  0  0
 22 27  1  0  0  0  0
 28 12  1  1  0  0  0
 28 29  1  0  0  0  0
 28 33  1  0  0  0  0
 29 30  1  0  0  0  0
 29 36  1  6  0  0  0
 30 31  1  0  0  0  0
 30 37  1  6  0  0  0
 31 32  1  0  0  0  0
 31 34  1  6  0  0  0
 32 33  1  0  0  0  0
 33 35  1  1  0  0  0
M  END
>  <CHROM.1>
72.90409645,56.14184659,-128.78509442,46.20665167,78.82543649,113.14858569
14.39916228,-10.61344191,28.54169923,2.87261321,0.36226405,-1.56748915

>  <Name>
2oe8_lig

>  <RI>
0

>  <Rbt.Current_Directory>
/home/itssahil/PROJECTS/Mol_Feturizer/New_Systems/rnas/2oe8

>  <Rbt.Executable>
rbdock ($Id: //depot/dev/client3/rdock/2013.1/src/exe/rbdock.cxx#4 $)

>  <Rbt.Library>
libRbt.so (2013.1, Build901 2013/11/27)

>  <Rbt.Parameter_File>
/export/apps/rDock/src/rDock_2013.1_src/data/scripts/dock_solv.prm

>  <Rbt.Receptor>
prm/blind_docking_40.prm

>  <SCORE>
52.5946

>  <SCORE.INTER>
5.62015

>  <SCORE.INTER.CONST>
1

>  <SCORE.INTER.POLAR>
-1.92493

>  <SCORE.INTER.ROT>
6

>  <SCORE.INTER.SOLV>
24.0363

>  <SCORE.INTER.VDW>
-5.44889

>  <SCORE.INTER.norm>
0.151896

>  <SCORE.INTRA>
19.8017

>  <SCORE.INTRA.DIHEDRAL>
0.258143

>  <SCORE.INTRA.DIHEDRAL.0>
16.4056

>  <SCORE.INTRA.POLAR>
0

>  <SCORE.INTRA.POLAR.0>
0

>  <SCORE.INTRA.REPUL>
0

>  <SCORE.INTRA.REPUL.0>
0

>  <SCORE.INTRA.SOLV>
7.76538

>  <SCORE.INTRA.SOLV.lig_0>
-90.9627

>  <SCORE.INTRA.VDW>
15.79

>  <SCORE.INTRA.VDW.0>
-3.28744

>  <SCORE.INTRA.norm>
0.535182

>  <SCORE.RESTR>
27.1727

>  <SCORE.RESTR.CAVITY>
27.1727

>  <SCORE.RESTR.norm>
0.734397

>  <SCORE.SYSTEM>
0

>  <SCORE.SYSTEM.CONST>
0

>  <SCORE.SYSTEM.DIHEDRAL>
0

>  <SCORE.SYSTEM.SOLV>
0

>  <SCORE.SYSTEM.norm>
0

>  <SCORE.heavy>
37

>  <SCORE.norm>
1.42147

>  <RMSD>
26.276

$$$$
2oe8_lig
 OpenBabel11021811463D
libRbt.so/2013.1/901 2013/11/27
 37 40  0  0  0  0  0  0  0  0999 V2000
   16.2302  -13.3641   27.0832 C   0  0  1  0  0  0  0  0  0  0  0  0
   16.5970  -12.2697   26.0102 C   0  0  1  0  0  0  0  0  0  0  0  0
   16.4587  -10.8688   26.6417 C   0  0  0  0  0  0  0  0  0  0  0  0
   14.9704  -10.7431   27.0946 C   0  0  1  0  0  0  0  0  0  0  0  0
   14.5738  -11.8712   28.1791 C   0  0  1  0  0  0  0  0  0  0  0  0
   13.0850  -11.7648   28.6219 C   0  0  1  0  0  0  0  0  0  0  0  0
   12.8729  -10.3127   29.2165 C   0  0  1  0  0  0  0  0  0  0  0  0
   13.3143   -9.2566   28.1443 C   0  0  2  0  0  0  0  0  0  0  0  0
   11.0208  -10.2929   31.0782 C   0  0  0  0  0  0  0  0  0  0  0  0
   17.9983  -12.4645   25.5195 N   0  0  0  0  0  0  0  0  0  0  0  0
   11.4224  -10.0945   29.6384 N   0  0  0  0  0  0  0  0  0  0  0  0
   17.1160  -13.3199   28.2089 O   0  0  0  0  0  0  0  0  0  0  0  0
   14.8369  -13.1915   27.5899 O   0  0  0  0  0  0  0  0  0  0  0  0
   14.7255   -9.4356   27.6924 O   0  0  0  0  0  0  0  0  0  0  0  0
   12.2840  -12.0011   27.4629 O   0  0  0  0  0  0  0  0  0  0  0  0
   13.1888   -7.9913   28.6832 O   0  0  0  0  0  0  0  0  0  0  0  0
   12.3144   -7.1353   27.9285 C   0  0  2  0  0  0  0  0  0  0  0  0
   10.8939   -7.7460   27.8592 C   0  0  1  0  0  0  0  0  0  0  0  0
   10.8733   -9.0736   27.0412 C   0  0  2  0  0  0  0  0  0  0  0  0
   11.3978   -8.7991   25.6008 C   0  0  1  0  0  0  0  0  0  0  0  0
   12.8793   -8.2539   25.7458 C   0  0  1  0  0  0  0  0  0  0  0  0
   13.5038   -7.9292   24.3917 C   0  0  0  0  0  0  0  0  0  0  0  0
   11.3788  -10.0669   24.8166 N   0  0  0  0  0  0  0  0  0  0  0  0
   12.8493   -6.9816   26.5506 O   0  0  0  0  0  0  0  0  0  0  0  0
   10.4463   -7.9406   29.2144 O   0  0  0  0  0  0  0  0  0  0  0  0
    9.5417   -9.5403   26.9828 O   0  0  0  0  0  0  0  0  0  0  0  0
   12.8146   -6.8572   23.8044 O   0  0  0  0  0  0  0  0  0  0  0  0
   16.8673  -12.2384   29.0832 C   0  0  1  0  0  0  0  0  0  0  0  0
   16.3725  -12.8190   30.4470 C   0  0  1  0  0  0  0  0  0  0  0  0
   16.0642  -11.6359   31.4104 C   0  0  2  0  0  0  0  0  0  0  0  0
   17.3344  -10.7584   31.6348 C   0  0  1  0  0  0  0  0  0  0  0  0
   17.8476  -10.1773   30.2623 C   0  0  0  0  0  0  0  0  0  0  0  0
   18.1661  -11.3850   29.2866 C   0  0  2  0  0  0  0  0  0  0  0  0
   17.0128   -9.6319   32.5542 N   0  0  0  0  0  0  0  0  0  0  0  0
   18.6507  -10.8308   28.0024 N   0  0  0  0  0  0  0  0  0  0  0  0
   15.1744  -13.5943   30.2555 O   0  0  0  0  0  0  0  0  0  0  0  0
   15.6249  -12.1895   32.6398 O   0  0  0  0  0  0  0  0  0  0  0  0
  1  2  1  0  0  0  0
  1 12  1  1  0  0  0
  1 13  1  0  0  0  0
  2  3  1  0  0  0  0
  2 10  1  1  0  0  0
  4  3  1  1  0  0  0
  4  5  1  0  0  0  0
  4 14  1  0  0  0  0
  5  6  1  0  0  0  0
  5 13  1  6  0  0  0
  6  7  1  0  0  0  0
  6 15  1  6  0  0  0
  7  8  1  0  0  0  0
  7 11  1  6  0  0  0
  8 14  1  0  0  0  0
  8 16  1  1  0  0  0
  9 11  1  0  0  0  0
 17 16  1  1  0  0  0
 17 18  1  0  0  0  0
 17 24  1  0  0  0  0
 18 19  1  0  0  0  0
 18 25  1  1  0  0  0
 19 20  1  0  0  0  0
 19 26  1  6  0  0  0
 20 21  1  0  0  0  0
 20 23  1  6  0  0  0
 21 22  1  6  0  0  0
 21 24  1  0  0  0  0
 22 27  1  0  0  0  0
 28 12  1  6  0  0  0
 28 29  1  0  0  0  0
 28 33  1  0  0  0  0
 29 30  1  0  0  0  0
 29 36  1  6  0  0  0
 30 31  1  0  0  0  0
 30 37  1  1  0  0  0
 31 32  1  0  0  0  0
 31 34  1  1  0  0  0
 32 33  1  0  0  0  0
 33 35  1  6  0  0  0
M  END
>  <CHROM.1>
75.20466428,96.61604183,-121.98952063,59.82549369,65.74274660,113.96026173
14.24689090,-10.39030778,28.17209969,-0.53082398,0.52034733,-1.38681943

>  <Name>
2oe8_lig

>  <RI>
0

>  <Rbt.Current_Directory>
/home/itssahil/PROJECTS/Mol_Feturizer/New_Systems/rnas/2oe8

>  <Rbt.Executable>
rbdock ($Id: //depot/dev/client3/rdock/2013.1/src/exe/rbdock.cxx#4 $)

>  <Rbt.Library>
libRbt.so (2013.1, Build901 2013/11/27)

>  <Rbt.Parameter_File>
/export/apps/rDock/src/rDock_2013.1_src/data/scripts/dock_solv.prm

>  <Rbt.Receptor>
prm/blind_docking_40.prm

>  <SCORE>
55.9008

>  <SCORE.INTER>
8.37061

>  <SCORE.INTER.CONST>
1

>  <SCORE.INTER.POLAR>
-1.37044

>  <SCORE.INTER.ROT>
6

>  <SCORE.INTER.SOLV>
28.5875

>  <SCORE.INTER.VDW>
-6.98064

>  <SCORE.INTER.norm>
0.226233

>  <SCORE.INTRA>
19.6984

>  <SCORE.INTRA.DIHEDRAL>
-0.221612

>  <SCORE.INTRA.DIHEDRAL.0>
16.4056

>  <SCORE.INTRA.POLAR>
0

>  <SCORE.INTRA.POLAR.0>
0

>  <SCORE.INTRA.REPUL>
0

>  <SCORE.INTRA.REPUL.0>
0

>  <SCORE.INTRA.SOLV>
8.72505

>  <SCORE.INTRA.SOLV.lig_0>
-90.9627

>  <SCORE.INTRA.VDW>
15.4467

>  <SCORE.INTRA.VDW.0>
-3.28744

>  <SCORE.INTRA.norm>
0.53239

>  <SCORE.RESTR>
27.8318

>  <SCORE.RESTR.CAVITY>
27.8318

>  <SCORE.RESTR.norm>
0.752211

>  <SCORE.SYSTEM>
0

>  <SCORE.SYSTEM.CONST>
0

>  <SCORE.SYSTEM.DIHEDRAL>
0

>  <SCORE.SYSTEM.SOLV>
0

>  <SCORE.SYSTEM.norm>
0

>  <SCORE.heavy>
37

>  <SCORE.norm>
1.51083

>  <RMSD>
26.297

$$$$
2oe8_lig
 OpenBabel11021811463D
libRbt.so/2013.1/901 2013/11/27
 37 40  0  0  0  0  0  0  0  0999 V2000
   12.8236   -8.0228   26.0793 C   0  0  1  0  0  0  0  0  0  0  0  0
   13.9643   -8.6600   25.1983 C   0  0  1  0  0  0  0  0  0  0  0  0
   14.1095  -10.1544   25.5539 C   0  0  0  0  0  0  0  0  0  0  0  0
   14.4693  -10.2052   27.0718 C   0  0  1  0  0  0  0  0  0  0  0  0
   13.3187   -9.5370   27.9859 C   0  0  1  0  0  0  0  0  0  0  0  0
   13.6787   -9.5665   29.5003 C   0  0  1  0  0  0  0  0  0  0  0  0
   13.9075  -11.0811   29.9010 C   0  0  1  0  0  0  0  0  0  0  0  0
   14.9984  -11.6959   28.9565 C   0  0  2  0  0  0  0  0  0  0  0  0
   13.7989  -12.3638   32.1900 C   0  0  0  0  0  0  0  0  0  0  0  0
   13.6446   -8.5179   23.7424 N   0  0  0  0  0  0  0  0  0  0  0  0
   14.3135  -11.2101   31.3666 N   0  0  0  0  0  0  0  0  0  0  0  0
   11.5545   -8.6406   25.8304 O   0  0  0  0  0  0  0  0  0  0  0  0
   13.1177   -8.1523   27.5368 O   0  0  0  0  0  0  0  0  0  0  0  0
   14.6501  -11.5847   27.5094 O   0  0  0  0  0  0  0  0  0  0  0  0
   14.8561   -8.7750   29.6678 O   0  0  0  0  0  0  0  0  0  0  0  0
   15.1548  -13.0333   29.2632 O   0  0  0  0  0  0  0  0  0  0  0  0
   16.5309  -13.4374   29.3624 C   0  0  2  0  0  0  0  0  0  0  0  0
   17.3421  -12.3885   30.1607 C   0  0  1  0  0  0  0  0  0  0  0  0
   17.4322  -11.0276   29.4044 C   0  0  2  0  0  0  0  0  0  0  0  0
   18.0932  -11.2547   28.0128 C   0  0  1  0  0  0  0  0  0  0  0  0
   17.1692  -12.2732   27.2242 C   0  0  1  0  0  0  0  0  0  0  0  0
   17.7231  -12.5923   25.8385 C   0  0  0  0  0  0  0  0  0  0  0  0
   18.1807   -9.9549   27.2878 N   0  0  0  0  0  0  0  0  0  0  0  0
   17.1036  -13.5640   27.9970 O   0  0  0  0  0  0  0  0  0  0  0  0
   16.7104  -12.2494   31.4477 O   0  0  0  0  0  0  0  0  0  0  0  0
   18.2243  -10.1440   30.1700 O   0  0  0  0  0  0  0  0  0  0  0  0
   18.9868  -13.1888   25.9665 O   0  0  0  0  0  0  0  0  0  0  0  0
   10.7379   -8.7396   26.9789 C   0  0  1  0  0  0  0  0  0  0  0  0
   11.3324   -9.8492   27.9046 C   0  0  1  0  0  0  0  0  0  0  0  0
   10.4237   -9.9910   29.1604 C   0  0  2  0  0  0  0  0  0  0  0  0
   10.3362   -8.6407   29.9367 C   0  0  1  0  0  0  0  0  0  0  0  0
    9.7477   -7.5121   29.0068 C   0  0  0  0  0  0  0  0  0  0  0  0
   10.6791   -7.3666   27.7327 C   0  0  2  0  0  0  0  0  0  0  0  0
    9.4582   -8.8006   31.1288 N   0  0  0  0  0  0  0  0  0  0  0  0
   10.1217   -6.3028   26.8674 N   0  0  0  0  0  0  0  0  0  0  0  0
   11.3756  -11.1099   27.2103 O   0  0  0  0  0  0  0  0  0  0  0  0
   10.9885  -10.9971   29.9849 O   0  0  0  0  0  0  0  0  0  0  0  0
  1  2  1  0  0  0  0
  1 12  1  1  0  0  0
  1 13  1  0  0  0  0
  2  3  1  0  0  0  0
  2 10  1  6  0  0  0
  4  3  1  6  0  0  0
  4  5  1  0  0  0  0
  4 14  1  0  0  0  0
  5  6  1  0  0  0  0
  5 13  1  6  0  0  0
  6  7  1  0  0  0  0
  6 15  1  6  0  0  0
  7  8  1  0  0  0  0
  7 11  1  1  0  0  0
  8 14  1  0  0  0  0
  8 16  1  1  0  0  0
  9 11  1  0  0  0  0
 17 16  1  6  0  0  0
 17 18  1  0  0  0  0
 17 24  1  0  0  0  0
 18 19  1  0  0  0  0
 18 25  1  1  0  0  0
 19 20  1  0  0  0  0
 19 26  1  1  0  0  0
 20 21  1  0  0  0  0
 20 23  1  6  0  0  0
 21 22  1  6  0  0  0
 21 24  1  0  0  0  0
 22 27  1  0  0  0  0
 28 12  1  6  0  0  0
 28 29  1  0  0  0  0
 28 33  1  0  0  0  0
 29 30  1  0  0  0  0
 29 36  1  6  0  0  0
 30 31  1  0  0  0  0
 30 37  1  1  0  0  0
 31 32  1  0  0  0  0
 31 34  1  1  0  0  0
 32 33  1  0  0  0  0
 33 35  1  6  0  0  0
M  END
>  <CHROM.1>
144.89736954,142.39805237,-134.23255294,43.98594370,61.15188387,-72.72333937
14.11583089,-10.37716693,28.28761176,-2.89474175,-0.47030367,1.94006938

>  <Name>
2oe8_lig

>  <RI>
0

>  <Rbt.Current_Directory>
/home/itssahil/PROJECTS/Mol_Feturizer/New_Systems/rnas/2oe8

>  <Rbt.Executable>
rbdock ($Id: //depot/dev/client3/rdock/2013.1/src/exe/rbdock.cxx#4 $)

>  <Rbt.Library>
libRbt.so (2013.1, Build901 2013/11/27)

>  <Rbt.Parameter_File>
/export/apps/rDock/src/rDock_2013.1_src/data/scripts/dock_solv.prm

>  <Rbt.Receptor>
prm/blind_docking_40.prm

>  <SCORE>
65.8624

>  <SCORE.INTER>
8.39555

>  <SCORE.INTER.CONST>
1

>  <SCORE.INTER.POLAR>
-0.974885

>  <SCORE.INTER.ROT>
6

>  <SCORE.INTER.SOLV>
20.4812

>  <SCORE.INTER.VDW>
-5.58043

>  <SCORE.INTER.norm>
0.226907

>  <SCORE.INTRA>
29.1497

>  <SCORE.INTRA.DIHEDRAL>
-2.84079

>  <SCORE.INTRA.DIHEDRAL.0>
16.4056

>  <SCORE.INTRA.POLAR>
0

>  <SCORE.INTRA.POLAR.0>
0

>  <SCORE.INTRA.REPUL>
0

>  <SCORE.INTRA.REPUL.0>
0

>  <SCORE.INTRA.SOLV>
5.03176

>  <SCORE.INTRA.SOLV.lig_0>
-90.9627

>  <SCORE.INTRA.VDW>
28.0542

>  <SCORE.INTRA.VDW.0>
-3.28744

>  <SCORE.INTRA.norm>
0.787829

>  <SCORE.RESTR>
28.3172

>  <SCORE.RESTR.CAVITY>
28.3172

>  <SCORE.RESTR.norm>
0.765329

>  <SCORE.SYSTEM>
0

>  <SCORE.SYSTEM.CONST>
0

>  <SCORE.SYSTEM.DIHEDRAL>
0

>  <SCORE.SYSTEM.SOLV>
0

>  <SCORE.SYSTEM.norm>
0

>  <SCORE.heavy>
37

>  <SCORE.norm>
1.78006

>  <RMSD>
26.320

$$$$
2oe8_lig
 OpenBabel11021811463D
libRbt.so/2013.1/901 2013/11/27
 37 40  0  0  0  0  0  0  0  0999 V2000
   11.1652  -10.5843   29.3950 C   0  0  1  0  0  0  0  0  0  0  0  0
   11.9937  -10.7030   30.7302 C   0  0  1  0  0  0  0  0  0  0  0  0
   13.3240   -9.9368   30.5755 C   0  0  0  0  0  0  0  0  0  0  0  0
   14.0730  -10.6066   29.3812 C   0  0  1  0  0  0  0  0  0  0  0  0
   13.2266  -10.5110   28.0099 C   0  0  1  0  0  0  0  0  0  0  0  0
   13.9584  -11.1938   26.8174 C   0  0  1  0  0  0  0  0  0  0  0  0
   15.3661  -10.4860   26.6608 C   0  0  1  0  0  0  0  0  0  0  0  0
   16.1284  -10.5657   28.0291 C   0  0  2  0  0  0  0  0  0  0  0  0
   16.1657  -12.6178   25.3521 C   0  0  0  0  0  0  0  0  0  0  0  0
   11.2189  -10.1391   31.8808 N   0  0  0  0  0  0  0  0  0  0  0  0
   16.1827  -11.1216   25.5389 N   0  0  0  0  0  0  0  0  0  0  0  0
   10.8346   -9.2221   29.0961 O   0  0  0  0  0  0  0  0  0  0  0  0
   11.9165  -11.1391   28.2308 O   0  0  0  0  0  0  0  0  0  0  0  0
   15.3639   -9.9644   29.1613 O   0  0  0  0  0  0  0  0  0  0  0  0
   14.0788  -12.5809   27.1370 O   0  0  0  0  0  0  0  0  0  0  0  0
   17.3299   -9.8949   27.9127 O   0  0  0  0  0  0  0  0  0  0  0  0
   18.4079  -10.5310   28.6199 C   0  0  2  0  0  0  0  0  0  0  0  0
   18.3227  -12.0680   28.4583 C   0  0  1  0  0  0  0  0  0  0  0  0
   17.0558  -12.6544   29.1534 C   0  0  2  0  0  0  0  0  0  0  0  0
   17.0816  -12.2861   30.6663 C   0  0  1  0  0  0  0  0  0  0  0  0
   17.0869  -10.7033   30.7553 C   0  0  1  0  0  0  0  0  0  0  0  0
   17.1283  -10.2123   32.1997 C   0  0  0  0  0  0  0  0  0  0  0  0
   15.8714  -12.8458   31.3332 N   0  0  0  0  0  0  0  0  0  0  0  0
   18.3190  -10.1845   30.0623 O   0  0  0  0  0  0  0  0  0  0  0  0
   18.3423  -12.3505   27.0460 O   0  0  0  0  0  0  0  0  0  0  0  0
   17.0754  -14.0586   29.0043 O   0  0  0  0  0  0  0  0  0  0  0  0
   16.4744  -11.1382   33.0268 O   0  0  0  0  0  0  0  0  0  0  0  0
   11.3725   -8.7642   27.8727 C   0  0  1  0  0  0  0  0  0  0  0  0
   10.1942   -8.5728   26.8644 C   0  0  1  0  0  0  0  0  0  0  0  0
   10.7763   -8.0981   25.5010 C   0  0  2  0  0  0  0  0  0  0  0  0
   11.5570   -6.7579   25.6681 C   0  0  1  0  0  0  0  0  0  0  0  0
   12.7414   -6.9385   26.6925 C   0  0  0  0  0  0  0  0  0  0  0  0
   12.1439   -7.4157   28.0808 C   0  0  2  0  0  0  0  0  0  0  0  0
   12.1080   -6.3282   24.3530 N   0  0  0  0  0  0  0  0  0  0  0  0
   13.2617   -7.5791   29.0374 N   0  0  0  0  0  0  0  0  0  0  0  0
    9.4949   -9.8163   26.6701 O   0  0  0  0  0  0  0  0  0  0  0  0
    9.6878   -7.9259   24.6086 O   0  0  0  0  0  0  0  0  0  0  0  0
  1  2  1  0  0  0  0
  1 12  1  6  0  0  0
  1 13  1  0  0  0  0
  2  3  1  0  0  0  0
  2 10  1  1  0  0  0
  4  3  1  1  0  0  0
  4  5  1  0  0  0  0
  4 14  1  0  0  0  0
  5  6  1  0  0  0  0
  5 13  1  1  0  0  0
  6  7  1  0  0  0  0
  6 15  1  1  0  0  0
  7  8  1  0  0  0  0
  7 11  1  6  0  0  0
  8 14  1  0  0  0  0
  8 16  1  6  0  0  0
  9 11  1  0  0  0  0
 17 16  1  6  0  0  0
 17 18  1  0  0  0  0
 17 24  1  0  0  0  0
 18 19  1  0  0  0  0
 18 25  1  6  0  0  0
 19 20  1  0  0  0  0
 19 26  1  1  0  0  0
 20 21  1  0  0  0  0
 20 23  1  1  0  0  0
 21 22  1  1  0  0  0
 21 24  1  0  0  0  0
 22 27  1  0  0  0  0
 28 12  1  1  0  0  0
 28 29  1  0  0  0  0
 28 33  1  0  0  0  0
 29 30  1  0  0  0  0
 29 36  1  6  0  0  0
 30 31  1  0  0  0  0
 30 37  1  6  0  0  0
 31 32  1  0  0  0  0
 31 34  1  6  0  0  0
 32 33  1  0  0  0  0
 33 35  1  1  0  0  0
M  END
>  <CHROM.1>
118.78152552,-39.70540496,-142.34028245,40.11221505,-30.68580842,110.16012237
14.25519740,-10.25866983,28.36401306,2.67403419,0.42722869,-1.40342631

>  <Name>
2oe8_lig

>  <RI>
0

>  <Rbt.Current_Directory>
/home/itssahil/PROJECTS/Mol_Feturizer/New_Systems/rnas/2oe8

>  <Rbt.Executable>
rbdock ($Id: //depot/dev/client3/rdock/2013.1/src/exe/rbdock.cxx#4 $)

>  <Rbt.Library>
libRbt.so (2013.1, Build901 2013/11/27)

>  <Rbt.Parameter_File>
/export/apps/rDock/src/rDock_2013.1_src/data/scripts/dock_solv.prm

>  <Rbt.Receptor>
prm/blind_docking_40.prm

>  <SCORE>
43.4046

>  <SCORE.INTER>
-7.93142

>  <SCORE.INTER.CONST>
1

>  <SCORE.INTER.POLAR>
-2.92339

>  <SCORE.INTER.ROT>
6

>  <SCORE.INTER.SOLV>
26.0286

>  <SCORE.INTER.VDW>
-11.8192

>  <SCORE.INTER.norm>
-0.214363

>  <SCORE.INTRA>
26.0022

>  <SCORE.INTRA.DIHEDRAL>
7.10907

>  <SCORE.INTRA.DIHEDRAL.0>
16.4056

>  <SCORE.INTRA.POLAR>
0

>  <SCORE.INTRA.POLAR.0>
0

>  <SCORE.INTRA.REPUL>
0

>  <SCORE.INTRA.REPUL.0>
0

>  <SCORE.INTRA.SOLV>
7.80261

>  <SCORE.INTRA.SOLV.lig_0>
-90.9627

>  <SCORE.INTRA.VDW>
18.5463

>  <SCORE.INTRA.VDW.0>
-3.28744

>  <SCORE.INTRA.norm>
0.702762

>  <SCORE.RESTR>
25.3338

>  <SCORE.RESTR.CAVITY>
25.3338

>  <SCORE.RESTR.norm>
0.684698

>  <SCORE.SYSTEM>
0

>  <SCORE.SYSTEM.CONST>
0

>  <SCORE.SYSTEM.DIHEDRAL>
0

>  <SCORE.SYSTEM.SOLV>
0

>  <SCORE.SYSTEM.norm>
0

>  <SCORE.heavy>
37

>  <SCORE.norm>
1.1731

>  <RMSD>
26.370

$$$$
2oe8_lig
 OpenBabel11021811463D
libRbt.so/2013.1/901 2013/11/27
 37 40  0  0  0  0  0  0  0  0999 V2000
   11.1705  -10.6141   29.4235 C   0  0  1  0  0  0  0  0  0  0  0  0
   12.0153  -10.7107   30.7503 C   0  0  1  0  0  0  0  0  0  0  0  0
   13.3386   -9.9378   30.5704 C   0  0  0  0  0  0  0  0  0  0  0  0
   14.0781  -10.6176   29.3760 C   0  0  1  0  0  0  0  0  0  0  0  0
   13.2151  -10.5448   28.0136 C   0  0  1  0  0  0  0  0  0  0  0  0
   13.9375  -11.2378   26.8212 C   0  0  1  0  0  0  0  0  0  0  0  0
   15.3385  -10.5229   26.6392 C   0  0  1  0  0  0  0  0  0  0  0  0
   16.1173  -10.5804   27.9994 C   0  0  2  0  0  0  0  0  0  0  0  0
   16.1716  -12.6683   25.3743 C   0  0  0  0  0  0  0  0  0  0  0  0
   11.2503  -10.1374   31.9028 N   0  0  0  0  0  0  0  0  0  0  0  0
   16.1462  -11.1672   25.5159 N   0  0  0  0  0  0  0  0  0  0  0  0
   10.8274   -9.2581   29.1115 O   0  0  0  0  0  0  0  0  0  0  0  0
   11.9119  -11.1786   28.2576 O   0  0  0  0  0  0  0  0  0  0  0  0
   15.3620   -9.9699   29.1328 O   0  0  0  0  0  0  0  0  0  0  0  0
   14.0709  -12.6200   27.1567 O   0  0  0  0  0  0  0  0  0  0  0  0
   17.3128   -9.9033   27.8605 O   0  0  0  0  0  0  0  0  0  0  0  0
   18.3999  -10.5153   28.5750 C   0  0  2  0  0  0  0  0  0  0  0  0
   18.3427  -12.0546   28.4237 C   0  0  1  0  0  0  0  0  0  0  0  0
   17.0844  -12.6588   29.1194 C   0  0  2  0  0  0  0  0  0  0  0  0
   17.0994  -12.2798   30.6298 C   0  0  1  0  0  0  0  0  0  0  0  0
   17.0762  -10.6966   30.7080 C   0  0  1  0  0  0  0  0  0  0  0  0
   17.1047  -10.1951   32.1490 C   0  0  0  0  0  0  0  0  0  0  0  0
   15.8974  -12.8565   31.2971 N   0  0  0  0  0  0  0  0  0  0  0  0
   18.3008  -10.1606   30.0148 O   0  0  0  0  0  0  0  0  0  0  0  0
   18.3714  -12.3463   27.0134 O   0  0  0  0  0  0  0  0  0  0  0  0
   17.1296  -14.0634   28.9799 O   0  0  0  0  0  0  0  0  0  0  0  0
   16.4690  -11.1291   32.9814 O   0  0  0  0  0  0  0  0  0  0  0  0
   11.3894   -8.7959   27.9006 C   0  0  1  0  0  0  0  0  0  0  0  0
   10.2368   -8.6408   26.8571 C   0  0  1  0  0  0  0  0  0  0  0  0
   10.8467   -8.1619   25.5075 C   0  0  2  0  0  0  0  0  0  0  0  0
   11.5894   -6.8018   25.6864 C   0  0  1  0  0  0  0  0  0  0  0  0
   12.7474   -6.9459   26.7461 C   0  0  0  0  0  0  0  0  0  0  0  0
   12.1215   -7.4275   28.1203 C   0  0  2  0  0  0  0  0  0  0  0  0
   12.1679   -6.3682   24.3844 N   0  0  0  0  0  0  0  0  0  0  0  0
   13.2145   -7.5565   29.1101 N   0  0  0  0  0  0  0  0  0  0  0  0
    9.5739   -9.9025   26.6525 O   0  0  0  0  0  0  0  0  0  0  0  0
    9.7808   -8.0228   24.5825 O   0  0  0  0  0  0  0  0  0  0  0  0
  1  2  1  0  0  0  0
  1 12  1  6  0  0  0
  1 13  1  0  0  0  0
  2  3  1  0  0  0  0
  2 10  1  1  0  0  0
  4  3  1  1  0  0  0
  4  5  1  0  0  0  0
  4 14  1  0  0  0  0
  5  6  1  0  0  0  0
  5 13  1  1  0  0  0
  6  7  1  0  0  0  0
  6 15  1  1  0  0  0
  7  8  1  0  0  0  0
  7 11  1  6  0  0  0
  8 14  1  0  0  0  0
  8 16  1  6  0  0  0
  9 11  1  0  0  0  0
 17 16  1  6  0  0  0
 17 18  1  0  0  0  0
 17 24  1  0  0  0  0
 18 19  1  0  0  0  0
 18 25  1  6  0  0  0
 19 20  1  0  0  0  0
 19 26  1  1  0  0  0
 20 21  1  0  0  0  0
 20 23  1  1  0  0  0
 21 22  1  1  0  0  0
 21 24  1  0  0  0  0
 22 27  1  0  0  0  0
 28 12  1  1  0  0  0
 28 29  1  0  0  0  0
 28 33  1  0  0  0  0
 29 30  1  0  0  0  0
 29 36  1  6  0  0  0
 30 31  1  0  0  0  0
 30 37  1  6  0  0  0
 31 32  1  0  0  0  0
 31 34  1  6  0  0  0
 32 33  1  0  0  0  0
 33 35  1  1  0  0  0
M  END
>  <CHROM.1>
116.53414622,-41.61243987,-142.98886986,41.29575253,-30.48544884,109.53168774
14.26575069,-10.27924237,28.35711278,2.68629303,0.42996393,-1.41410016

>  <Name>
2oe8_lig

>  <RI>
0

>  <Rbt.Current_Directory>
/home/itssahil/PROJECTS/Mol_Feturizer/New_Systems/rnas/2oe8

>  <Rbt.Executable>
rbdock ($Id: //depot/dev/client3/rdock/2013.1/src/exe/rbdock.cxx#4 $)

>  <Rbt.Library>
libRbt.so (2013.1, Build901 2013/11/27)

>  <Rbt.Parameter_File>
/export/apps/rDock/src/rDock_2013.1_src/data/scripts/dock_solv.prm

>  <Rbt.Receptor>
prm/blind_docking_40.prm

>  <SCORE>
43.8845

>  <SCORE.INTER>
-7.73577

>  <SCORE.INTER.CONST>
1

>  <SCORE.INTER.POLAR>
-2.8532

>  <SCORE.INTER.ROT>
6

>  <SCORE.INTER.SOLV>
26.3289

>  <SCORE.INTER.VDW>
-12.0228

>  <SCORE.INTER.norm>
-0.209075

>  <SCORE.INTRA>
26.4226

>  <SCORE.INTRA.DIHEDRAL>
6.67361

>  <SCORE.INTRA.DIHEDRAL.0>
16.4056

>  <SCORE.INTRA.POLAR>
0

>  <SCORE.INTRA.POLAR.0>
0

>  <SCORE.INTRA.REPUL>
0

>  <SCORE.INTRA.REPUL.0>
0

>  <SCORE.INTRA.SOLV>
7.71118

>  <SCORE.INTRA.SOLV.lig_0>
-90.9627

>  <SCORE.INTRA.VDW>
19.2302

>  <SCORE.INTRA.VDW.0>
-3.28744

>  <SCORE.INTRA.norm>
0.714125

>  <SCORE.RESTR>
25.1976

>  <SCORE.RESTR.CAVITY>
25.1976

>  <SCORE.RESTR.norm>
0.681017

>  <SCORE.SYSTEM>
0

>  <SCORE.SYSTEM.CONST>
0

>  <SCORE.SYSTEM.DIHEDRAL>
0

>  <SCORE.SYSTEM.SOLV>
0

>  <SCORE.SYSTEM.norm>
0

>  <SCORE.heavy>
37

>  <SCORE.norm>
1.18607

>  <RMSD>
26.376

$$$$
2oe8_lig
 OpenBabel11021811463D
libRbt.so/2013.1/901 2013/11/27
 37 40  0  0  0  0  0  0  0  0999 V2000
   11.1828  -10.6193   29.3936 C   0  0  1  0  0  0  0  0  0  0  0  0
   12.0128  -10.7029   30.7306 C   0  0  1  0  0  0  0  0  0  0  0  0
   13.3344   -9.9250   30.5606 C   0  0  0  0  0  0  0  0  0  0  0  0
   14.0907  -10.6094   29.3794 C   0  0  1  0  0  0  0  0  0  0  0  0
   13.2431  -10.5499   28.0068 C   0  0  1  0  0  0  0  0  0  0  0  0
   13.9824  -11.2475   26.8275 C   0  0  1  0  0  0  0  0  0  0  0  0
   15.3820  -10.5273   26.6567 C   0  0  1  0  0  0  0  0  0  0  0  0
   16.1453  -10.5719   28.0261 C   0  0  2  0  0  0  0  0  0  0  0  0
   16.1991  -12.6744   25.3844 C   0  0  0  0  0  0  0  0  0  0  0  0
   11.2319  -10.1254   31.8704 N   0  0  0  0  0  0  0  0  0  0  0  0
   16.2055  -11.1753   25.5470 N   0  0  0  0  0  0  0  0  0  0  0  0
   10.8370   -9.2670   29.0685 O   0  0  0  0  0  0  0  0  0  0  0  0
   11.9402  -11.1882   28.2402 O   0  0  0  0  0  0  0  0  0  0  0  0
   15.3743   -9.9572   29.1466 O   0  0  0  0  0  0  0  0  0  0  0  0
   14.1182  -12.6268   27.1739 O   0  0  0  0  0  0  0  0  0  0  0  0
   17.3393   -9.8901   27.8962 O   0  0  0  0  0  0  0  0  0  0  0  0
   18.4264  -10.5053   28.6079 C   0  0  2  0  0  0  0  0  0  0  0  0
   18.3670  -12.0441   28.4527 C   0  0  1  0  0  0  0  0  0  0  0  0
   17.1087  -12.6485   29.1482 C   0  0  2  0  0  0  0  0  0  0  0  0
   17.1258  -12.2734   30.6595 C   0  0  1  0  0  0  0  0  0  0  0  0
   17.1048  -10.6904   30.7419 C   0  0  1  0  0  0  0  0  0  0  0  0
   17.1356  -10.1927   32.1842 C   0  0  0  0  0  0  0  0  0  0  0  0
   15.9239  -12.8503   31.3268 N   0  0  0  0  0  0  0  0  0  0  0  0
   18.3293  -10.1542   30.0487 O   0  0  0  0  0  0  0  0  0  0  0  0
   18.3937  -12.3322   27.0416 O   0  0  0  0  0  0  0  0  0  0  0  0
   17.1519  -14.0528   29.0050 O   0  0  0  0  0  0  0  0  0  0  0  0
   16.4922  -11.1240   33.0136 O   0  0  0  0  0  0  0  0  0  0  0  0
   11.4205   -8.8064   27.8672 C   0  0  1  0  0  0  0  0  0  0  0  0
   10.2927   -8.6895   26.7920 C   0  0  1  0  0  0  0  0  0  0  0  0
   10.9274   -8.2128   25.4530 C   0  0  2  0  0  0  0  0  0  0  0  0
   11.6346   -6.8342   25.6347 C   0  0  1  0  0  0  0  0  0  0  0  0
   12.7671   -6.9398   26.7261 C   0  0  0  0  0  0  0  0  0  0  0  0
   12.1158   -7.4194   28.0892 C   0  0  2  0  0  0  0  0  0  0  0  0
   12.2376   -6.4029   24.3432 N   0  0  0  0  0  0  0  0  0  0  0  0
   13.1848   -7.5121   29.1089 N   0  0  0  0  0  0  0  0  0  0  0  0
    9.6637   -9.9682   26.5856 O   0  0  0  0  0  0  0  0  0  0  0  0
    9.8835   -8.1086   24.4988 O   0  0  0  0  0  0  0  0  0  0  0  0
  1  2  1  0  0  0  0
  1 12  1  6  0  0  0
  1 13  1  0  0  0  0
  2  3  1  0  0  0  0
  2 10  1  1  0  0  0
  4  3  1  1  0  0  0
  4  5  1  0  0  0  0
  4 14  1  0  0  0  0
  5  6  1  0  0  0  0
  5 13  1  1  0  0  0
  6  7  1  0  0  0  0
  6 15  1  1  0  0  0
  7  8  1  0  0  0  0
  7 11  1  6  0  0  0
  8 14  1  0  0  0  0
  8 16  1  6  0  0  0
  9 11  1  0  0  0  0
 17 16  1  6  0  0  0
 17 18  1  0  0  0  0
 17 24  1  0  0  0  0
 18 19  1  0  0  0  0
 18 25  1  6  0  0  0
 19 20  1  0  0  0  0
 19 26  1  1  0  0  0
 20 21  1  0  0  0  0
 20 23  1  1  0  0  0
 21 22  1  1  0  0  0
 21 24  1  0  0  0  0
 22 27  1  0  0  0  0
 28 12  1  1  0  0  0
 28 29  1  0  0  0  0
 28 33  1  0  0  0  0
 29 30  1  0  0  0  0
 29 36  1  6  0  0  0
 30 31  1  0  0  0  0
 30 37  1  6  0  0  0
 31 32  1  0  0  0  0
 31 34  1  6  0  0  0
 32 33  1  0  0  0  0
 33 35  1  1  0  0  0
M  END
>  <CHROM.1>
115.99298712,-39.35897885,-141.94358702,40.81040795,-30.85839219,108.48179906
14.29575631,-10.28406613,28.35431556,2.67604891,0.42670898,-1.41966982

>  <Name>
2oe8_lig

>  <RI>
0

>  <Rbt.Current_Directory>
/home/itssahil/PROJECTS/Mol_Feturizer/New_Systems/rnas/2oe8

>  <Rbt.Executable>
rbdock ($Id: //depot/dev/client3/rdock/2013.1/src/exe/rbdock.cxx#4 $)

>  <Rbt.Library>
libRbt.so (2013.1, Build901 2013/11/27)

>  <Rbt.Parameter_File>
/export/apps/rDock/src/rDock_2013.1_src/data/scripts/dock_solv.prm

>  <Rbt.Receptor>
prm/blind_docking_40.prm

>  <SCORE>
44.2473

>  <SCORE.INTER>
-6.95997

>  <SCORE.INTER.CONST>
1

>  <SCORE.INTER.POLAR>
-2.85821

>  <SCORE.INTER.ROT>
6

>  <SCORE.INTER.SOLV>
26.6267

>  <SCORE.INTER.VDW>
-11.5882

>  <SCORE.INTER.norm>
-0.188107

>  <SCORE.INTRA>
26.0975

>  <SCORE.INTRA.DIHEDRAL>
6.81167

>  <SCORE.INTRA.DIHEDRAL.0>
16.4056

>  <SCORE.INTRA.POLAR>
0

>  <SCORE.INTRA.POLAR.0>
0

>  <SCORE.INTRA.REPUL>
0

>  <SCORE.INTRA.REPUL.0>
0

>  <SCORE.INTRA.SOLV>
7.49907

>  <SCORE.INTRA.SOLV.lig_0>
-90.9627

>  <SCORE.INTRA.VDW>
18.9421

>  <SCORE.INTRA.VDW.0>
-3.28744

>  <SCORE.INTRA.norm>
0.705337

>  <SCORE.RESTR>
25.1098

>  <SCORE.RESTR.CAVITY>
25.1098

>  <SCORE.RESTR.norm>
0.678643

>  <SCORE.SYSTEM>
0

>  <SCORE.SYSTEM.CONST>
0

>  <SCORE.SYSTEM.DIHEDRAL>
0

>  <SCORE.SYSTEM.SOLV>
0

>  <SCORE.SYSTEM.norm>
0

>  <SCORE.heavy>
37

>  <SCORE.norm>
1.19587

>  <RMSD>
26.380

$$$$
2oe8_lig
 OpenBabel11021811463D
libRbt.so/2013.1/901 2013/11/27
 37 40  0  0  0  0  0  0  0  0999 V2000
   11.1765  -10.6327   29.3996 C   0  0  1  0  0  0  0  0  0  0  0  0
   12.0149  -10.7221   30.7310 C   0  0  1  0  0  0  0  0  0  0  0  0
   13.3345   -9.9418   30.5568 C   0  0  0  0  0  0  0  0  0  0  0  0
   14.0843  -10.6192   29.3673 C   0  0  1  0  0  0  0  0  0  0  0  0
   13.2281  -10.5537   28.0003 C   0  0  1  0  0  0  0  0  0  0  0  0
   13.9609  -11.2444   26.8129 C   0  0  1  0  0  0  0  0  0  0  0  0
   15.3586  -10.5216   26.6371 C   0  0  1  0  0  0  0  0  0  0  0  0
   16.1305  -10.5723   28.0015 C   0  0  2  0  0  0  0  0  0  0  0  0
   16.1617  -12.6605   25.3421 C   0  0  0  0  0  0  0  0  0  0  0  0
   11.2404  -10.1514   31.8784 N   0  0  0  0  0  0  0  0  0  0  0  0
   16.1759  -11.1630   25.5191 N   0  0  0  0  0  0  0  0  0  0  0  0
   10.8272   -9.2792   29.0835 O   0  0  0  0  0  0  0  0  0  0  0  0
   11.9274  -11.1948   28.2386 O   0  0  0  0  0  0  0  0  0  0  0  0
   15.3657   -9.9644   29.1299 O   0  0  0  0  0  0  0  0  0  0  0  0
   14.1005  -12.6253   27.1514 O   0  0  0  0  0  0  0  0  0  0  0  0
   17.3227   -9.8885   27.8678 O   0  0  0  0  0  0  0  0  0  0  0  0
   18.4138  -10.5031   28.5739 C   0  0  2  0  0  0  0  0  0  0  0  0
   18.3625  -12.0410   28.4073 C   0  0  1  0  0  0  0  0  0  0  0  0
   17.1081  -12.6573   29.0994 C   0  0  2  0  0  0  0  0  0  0  0  0
   17.1247  -12.2933   30.6135 C   0  0  1  0  0  0  0  0  0  0  0  0
   17.0952  -10.7111   30.7076 C   0  0  1  0  0  0  0  0  0  0  0  0
   17.1247  -10.2240   32.1536 C   0  0  0  0  0  0  0  0  0  0  0  0
   15.9265  -12.8816   31.2775 N   0  0  0  0  0  0  0  0  0  0  0  0
   18.3162  -10.1632   30.0173 O   0  0  0  0  0  0  0  0  0  0  0  0
   18.3895  -12.3185   26.9941 O   0  0  0  0  0  0  0  0  0  0  0  0
   17.1587  -14.0602   28.9458 O   0  0  0  0  0  0  0  0  0  0  0  0
   16.5257  -11.1848   32.9825 O   0  0  0  0  0  0  0  0  0  0  0  0
   11.4055   -8.8106   27.8828 C   0  0  1  0  0  0  0  0  0  0  0  0
   10.2701   -8.6686   26.8187 C   0  0  1  0  0  0  0  0  0  0  0  0
   10.8987   -8.1828   25.4802 C   0  0  2  0  0  0  0  0  0  0  0  0
   11.6224   -6.8142   25.6722 C   0  0  1  0  0  0  0  0  0  0  0  0
   12.7628   -6.9451   26.7526 C   0  0  0  0  0  0  0  0  0  0  0  0
   12.1177   -7.4339   28.1153 C   0  0  2  0  0  0  0  0  0  0  0  0
   12.2192   -6.3741   24.3808 N   0  0  0  0  0  0  0  0  0  0  0  0
   13.1942   -7.5503   29.1247 N   0  0  0  0  0  0  0  0  0  0  0  0
    9.6255   -9.9379   26.6025 O   0  0  0  0  0  0  0  0  0  0  0  0
    9.8481   -8.0559   24.5362 O   0  0  0  0  0  0  0  0  0  0  0  0
  1  2  1  0  0  0  0
  1 12  1  6  0  0  0
  1 13  1  0  0  0  0
  2  3  1  0  0  0  0
  2 10  1  1  0  0  0
  4  3  1  1  0  0  0
  4  5  1  0  0  0  0
  4 14  1  0  0  0  0
  5  6  1  0  0  0  0
  5 13  1  1  0  0  0
  6  7  1  0  0  0  0
  6 15  1  1  0  0  0
  7  8  1  0  0  0  0
  7 11  1  6  0  0  0
  8 14  1  0  0  0  0
  8 16  1  6  0  0  0
  9 11  1  0  0  0  0
 17 16  1  6  0  0  0
 17 18  1  0  0  0  0
 17 24  1  0  0  0  0
 18 19  1  0  0  0  0
 18 25  1  6  0  0  0
 19 20  1  0  0  0  0
 19 26  1  1  0  0  0
 20 21  1  0  0  0  0
 20 23  1  1  0  0  0
 21 22  1  1  0  0  0
 21 24  1  0  0  0  0
 22 27  1  0  0  0  0
 28 12  1  1  0  0  0
 28 29  1  0  0  0  0
 28 33  1  0  0  0  0
 29 30  1  0  0  0  0
 29 36  1  6  0  0  0
 30 31  1  0  0  0  0
 30 37  1  6  0  0  0
 31 32  1  0  0  0  0
 31 34  1  6  0  0  0
 32 33  1  0  0  0  0
 33 35  1  1  0  0  0
M  END
>  <CHROM.1>
115.83235177,-38.88023666,-142.17668001,41.25074408,-28.95379762,109.33526029
14.28527982,-10.28739341,28.34368962,2.68181181,0.42676309,-1.41153456

>  <Name>
2oe8_lig

>  <RI>
0

>  <Rbt.Current_Directory>
/home/itssahil/PROJECTS/Mol_Feturizer/New_Systems/rnas/2oe8

>  <Rbt.Executable>
rbdock ($Id: //depot/dev/client3/rdock/2013.1/src/exe/rbdock.cxx#4 $)

>  <Rbt.Library>
libRbt.so (2013.1, Build901 2013/11/27)

>  <Rbt.Parameter_File>
/export/apps/rDock/src/rDock_2013.1_src/data/scripts/dock_solv.prm

>  <Rbt.Receptor>
prm/blind_docking_40.prm

>  <SCORE>
43.9382

>  <SCORE.INTER>
-7.68484

>  <SCORE.INTER.CONST>
1

>  <SCORE.INTER.POLAR>
-2.84457

>  <SCORE.INTER.ROT>
6

>  <SCORE.INTER.SOLV>
26.3852

>  <SCORE.INTER.VDW>
-12.0364

>  <SCORE.INTER.norm>
-0.207698

>  <SCORE.INTRA>
26.4416

>  <SCORE.INTRA.DIHEDRAL>
7.06053

>  <SCORE.INTRA.DIHEDRAL.0>
16.4056

>  <SCORE.INTRA.POLAR>
0

>  <SCORE.INTRA.POLAR.0>
0

>  <SCORE.INTRA.REPUL>
0

>  <SCORE.INTRA.REPUL.0>
0

>  <SCORE.INTRA.SOLV>
7.62167

>  <SCORE.INTRA.SOLV.lig_0>
-90.9627

>  <SCORE.INTRA.VDW>
19.1005

>  <SCORE.INTRA.VDW.0>
-3.28744

>  <SCORE.INTRA.norm>
0.714637

>  <SCORE.RESTR>
25.1815

>  <SCORE.RESTR.CAVITY>
25.1815

>  <SCORE.RESTR.norm>
0.680581

>  <SCORE.SYSTEM>
0

>  <SCORE.SYSTEM.CONST>
0

>  <SCORE.SYSTEM.DIHEDRAL>
0

>  <SCORE.SYSTEM.SOLV>
0

>  <SCORE.SYSTEM.norm>
0

>  <SCORE.heavy>
37

>  <SCORE.norm>
1.18752

>  <RMSD>
26.387

$$$$
2oe8_lig
 OpenBabel11021811463D
libRbt.so/2013.1/901 2013/11/27
 37 40  0  0  0  0  0  0  0  0999 V2000
   11.1487  -10.5545   29.3714 C   0  0  1  0  0  0  0  0  0  0  0  0
   11.9984  -10.7025   30.6903 C   0  0  1  0  0  0  0  0  0  0  0  0
   13.3325   -9.9451   30.5259 C   0  0  0  0  0  0  0  0  0  0  0  0
   14.0556  -10.6012   29.3083 C   0  0  1  0  0  0  0  0  0  0  0  0
   13.1872  -10.4756   27.9532 C   0  0  1  0  0  0  0  0  0  0  0  0
   13.8931  -11.1446   26.7375 C   0  0  1  0  0  0  0  0  0  0  0  0
   15.3040  -10.4463   26.5688 C   0  0  1  0  0  0  0  0  0  0  0  0
   16.0884  -10.5552   27.9226 C   0  0  2  0  0  0  0  0  0  0  0  0
   16.1838  -12.5703   25.2994 C   0  0  0  0  0  0  0  0  0  0  0  0
   11.2478  -10.1513   31.8630 N   0  0  0  0  0  0  0  0  0  0  0  0
   16.0962  -11.0700   25.4230 N   0  0  0  0  0  0  0  0  0  0  0  0
   10.8251   -9.1849   29.1007 O   0  0  0  0  0  0  0  0  0  0  0  0
   11.8756  -11.0962   28.1857 O   0  0  0  0  0  0  0  0  0  0  0  0
   15.3482   -9.9664   29.0773 O   0  0  0  0  0  0  0  0  0  0  0  0
   14.0066  -12.5379   27.0320 O   0  0  0  0  0  0  0  0  0  0  0  0
   17.2936   -9.8928   27.7970 O   0  0  0  0  0  0  0  0  0  0  0  0
   18.3659  -10.5198   28.5208 C   0  0  2  0  0  0  0  0  0  0  0  0
   18.2784  -12.0589   28.3831 C   0  0  1  0  0  0  0  0  0  0  0  0
   17.0061  -12.6316   29.0797 C   0  0  2  0  0  0  0  0  0  0  0  0
   17.0236  -12.2394   30.5867 C   0  0  1  0  0  0  0  0  0  0  0  0
   17.0317  -10.6554   30.6507 C   0  0  1  0  0  0  0  0  0  0  0  0
   17.0655  -10.1416   32.0873 C   0  0  0  0  0  0  0  0  0  0  0  0
   15.8082  -12.7860   31.2550 N   0  0  0  0  0  0  0  0  0  0  0  0
   18.2691  -10.1502   29.9569 O   0  0  0  0  0  0  0  0  0  0  0  0
   18.3060  -12.3639   26.9756 O   0  0  0  0  0  0  0  0  0  0  0  0
   17.0237  -14.0380   28.9530 O   0  0  0  0  0  0  0  0  0  0  0  0
   18.2855  -10.4976   32.6822 O   0  0  0  0  0  0  0  0  0  0  0  0
   11.3360   -8.7148   27.8703 C   0  0  1  0  0  0  0  0  0  0  0  0
   10.1301   -8.4442   26.9142 C   0  0  1  0  0  0  0  0  0  0  0  0
   10.6806   -7.9553   25.5428 C   0  0  2  0  0  0  0  0  0  0  0  0
   11.5247   -6.6549   25.7161 C   0  0  1  0  0  0  0  0  0  0  0  0
   12.7377   -6.9153   26.6884 C   0  0  0  0  0  0  0  0  0  0  0  0
   12.1726   -7.4069   28.0853 C   0  0  2  0  0  0  0  0  0  0  0  0
   12.0440   -6.2109   24.3929 N   0  0  0  0  0  0  0  0  0  0  0  0
   13.3174   -7.6453   28.9929 N   0  0  0  0  0  0  0  0  0  0  0  0
    9.3705   -9.6508   26.7131 O   0  0  0  0  0  0  0  0  0  0  0  0
    9.5679   -7.7111   24.6983 O   0  0  0  0  0  0  0  0  0  0  0  0
  1  2  1  0  0  0  0
  1 12  1  6  0  0  0
  1 13  1  0  0  0  0
  2  3  1  0  0  0  0
  2 10  1  1  0  0  0
  4  3  1  1  0  0  0
  4  5  1  0  0  0  0
  4 14  1  0  0  0  0
  5  6  1  0  0  0  0
  5 13  1  1  0  0  0
  6  7  1  0  0  0  0
  6 15  1  1  0  0  0
  7  8  1  0  0  0  0
  7 11  1  6  0  0  0
  8 14  1  0  0  0  0
  8 16  1  6  0  0  0
  9 11  1  0  0  0  0
 17 16  1  6  0  0  0
 17 18  1  0  0  0  0
 17 24  1  0  0  0  0
 18 19  1  0  0  0  0
 18 25  1  6  0  0  0
 19 20  1  0  0  0  0
 19 26  1  1  0  0  0
 20 21  1  0  0  0  0
 20 23  1  1  0  0  0
 21 22  1  1  0  0  0
 21 24  1  0  0  0  0
 22 27  1  0  0  0  0
 28 12  1  1  0  0  0
 28 29  1  0  0  0  0
 28 33  1  0  0  0  0
 29 30  1  0  0  0  0
 29 36  1  6  0  0  0
 30 31  1  0  0  0  0
 30 37  1  6  0  0  0
 31 32  1  0  0  0  0
 31 34  1  6  0  0  0
 32 33  1  0  0  0  0
 33 35  1  1  0  0  0
M  END
>  <CHROM.1>
119.33302790,-46.25260790,-144.75284537,40.43709579,65.93344946,112.30563140
14.27196728,-10.19643731,28.30943991,2.71153330,0.42743200,-1.44267416

>  <Name>
2oe8_lig

>  <RI>
0

>  <Rbt.Current_Directory>
/home/itssahil/PROJECTS/Mol_Feturizer/New_Systems/rnas/2oe8

>  <Rbt.Executable>
rbdock ($Id: //depot/dev/client3/rdock/2013.1/src/exe/rbdock.cxx#4 $)

>  <Rbt.Library>
libRbt.so (2013.1, Build901 2013/11/27)

>  <Rbt.Parameter_File>
/export/apps/rDock/src/rDock_2013.1_src/data/scripts/dock_solv.prm

>  <Rbt.Receptor>
prm/blind_docking_40.prm

>  <SCORE>
41.5928

>  <SCORE.INTER>
-7.61765

>  <SCORE.INTER.CONST>
1

>  <SCORE.INTER.POLAR>
-2.85271

>  <SCORE.INTER.ROT>
6

>  <SCORE.INTER.SOLV>
26.2507

>  <SCORE.INTER.VDW>
-11.9196

>  <SCORE.INTER.norm>
-0.205882

>  <SCORE.INTRA>
24.4576

>  <SCORE.INTRA.DIHEDRAL>
4.24171

>  <SCORE.INTRA.DIHEDRAL.0>
16.4056

>  <SCORE.INTRA.POLAR>
0

>  <SCORE.INTRA.POLAR.0>
0

>  <SCORE.INTRA.REPUL>
0

>  <SCORE.INTRA.REPUL.0>
0

>  <SCORE.INTRA.SOLV>
7.53776

>  <SCORE.INTRA.SOLV.lig_0>
-90.9627

>  <SCORE.INTRA.VDW>
18.5679

>  <SCORE.INTRA.VDW.0>
-3.28744

>  <SCORE.INTRA.norm>
0.661016

>  <SCORE.RESTR>
24.7529

>  <SCORE.RESTR.CAVITY>
24.7529

>  <SCORE.RESTR.norm>
0.668996

>  <SCORE.SYSTEM>
0

>  <SCORE.SYSTEM.CONST>
0

>  <SCORE.SYSTEM.DIHEDRAL>
0

>  <SCORE.SYSTEM.SOLV>
0

>  <SCORE.SYSTEM.norm>
0

>  <SCORE.heavy>
37

>  <SCORE.norm>
1.12413

>  <RMSD>
26.388

$$$$
2oe8_lig
 OpenBabel11021811463D
libRbt.so/2013.1/901 2013/11/27
 37 40  0  0  0  0  0  0  0  0999 V2000
   11.1233  -10.5681   29.3968 C   0  0  1  0  0  0  0  0  0  0  0  0
   11.9750  -10.6824   30.7179 C   0  0  1  0  0  0  0  0  0  0  0  0
   13.3024   -9.9168   30.5375 C   0  0  0  0  0  0  0  0  0  0  0  0
   14.0305  -10.5907   29.3327 C   0  0  1  0  0  0  0  0  0  0  0  0
   13.1604  -10.4996   27.9760 C   0  0  1  0  0  0  0  0  0  0  0  0
   13.8714  -11.1865   26.7732 C   0  0  1  0  0  0  0  0  0  0  0  0
   15.2761  -10.4794   26.5898 C   0  0  1  0  0  0  0  0  0  0  0  0
   16.0621  -10.5545   27.9449 C   0  0  2  0  0  0  0  0  0  0  0  0
   16.1320  -12.6205   25.3330 C   0  0  0  0  0  0  0  0  0  0  0  0
   11.2203  -10.1146   31.8799 N   0  0  0  0  0  0  0  0  0  0  0  0
   16.0731  -11.1188   25.4560 N   0  0  0  0  0  0  0  0  0  0  0  0
   10.7877   -9.2069   29.0992 O   0  0  0  0  0  0  0  0  0  0  0  0
   11.8543  -11.1269   28.2217 O   0  0  0  0  0  0  0  0  0  0  0  0
   15.3174   -9.9493   29.0881 O   0  0  0  0  0  0  0  0  0  0  0  0
   13.9972  -12.5726   27.0953 O   0  0  0  0  0  0  0  0  0  0  0  0
   17.2614   -9.8842   27.8054 O   0  0  0  0  0  0  0  0  0  0  0  0
   18.3419  -10.4934   28.5322 C   0  0  2  0  0  0  0  0  0  0  0  0
   18.2806  -12.0338   28.3939 C   0  0  1  0  0  0  0  0  0  0  0  0
   17.0160  -12.6279   29.0866 C   0  0  2  0  0  0  0  0  0  0  0  0
   17.0224  -12.2358   30.5937 C   0  0  1  0  0  0  0  0  0  0  0  0
   17.0039  -10.6519   30.6580 C   0  0  1  0  0  0  0  0  0  0  0  0
   17.0247  -10.1380   32.0948 C   0  0  0  0  0  0  0  0  0  0  0  0
   15.8144  -12.8028   31.2583 N   0  0  0  0  0  0  0  0  0  0  0  0
   18.2346  -10.1259   29.9681 O   0  0  0  0  0  0  0  0  0  0  0  0
   18.3175  -12.3379   26.9864 O   0  0  0  0  0  0  0  0  0  0  0  0
   17.0575  -14.0338   28.9597 O   0  0  0  0  0  0  0  0  0  0  0  0
   18.3535  -10.0267   32.5319 O   0  0  0  0  0  0  0  0  0  0  0  0
   11.3288   -8.7440   27.8791 C   0  0  1  0  0  0  0  0  0  0  0  0
   10.1562   -8.5723   26.8607 C   0  0  1  0  0  0  0  0  0  0  0  0
   10.7425   -8.0923   25.5010 C   0  0  2  0  0  0  0  0  0  0  0  0
   11.5021   -6.7404   25.6711 C   0  0  1  0  0  0  0  0  0  0  0  0
   12.6805   -6.9012   26.7057 C   0  0  0  0  0  0  0  0  0  0  0  0
   12.0786   -7.3839   28.0902 C   0  0  2  0  0  0  0  0  0  0  0  0
   12.0575   -6.3058   24.3596 N   0  0  0  0  0  0  0  0  0  0  0  0
   13.1908   -7.5285   29.0564 N   0  0  0  0  0  0  0  0  0  0  0  0
    9.4769   -9.8264   26.6638 O   0  0  0  0  0  0  0  0  0  0  0  0
    9.6590   -7.9381   24.5993 O   0  0  0  0  0  0  0  0  0  0  0  0
  1  2  1  0  0  0  0
  1 12  1  6  0  0  0
  1 13  1  0  0  0  0
  2  3  1  0  0  0  0
  2 10  1  1  0  0  0
  4  3  1  1  0  0  0
  4  5  1  0  0  0  0
  4 14  1  0  0  0  0
  5  6  1  0  0  0  0
  5 13  1  1  0  0  0
  6  7  1  0  0  0  0
  6 15  1  1  0  0  0
  7  8  1  0  0  0  0
  7 11  1  6  0  0  0
  8 14  1  0  0  0  0
  8 16  1  6  0  0  0
  9 11  1  0  0  0  0
 17 16  1  6  0  0  0
 17 18  1  0  0  0  0
 17 24  1  0  0  0  0
 18 19  1  0  0  0  0
 18 25  1  6  0  0  0
 19 20  1  0  0  0  0
 19 26  1  1  0  0  0
 20 21  1  0  0  0  0
 20 23  1  1  0  0  0
 21 22  1  1  0  0  0
 21 24  1  0  0  0  0
 22 27  1  0  0  0  0
 28 12  1  1  0  0  0
 28 29  1  0  0  0  0
 28 33  1  0  0  0  0
 29 30  1  0  0  0  0
 29 36  1  6  0  0  0
 30 31  1  0  0  0  0
 30 37  1  6  0  0  0
 31 32  1  0  0  0  0
 31 34  1  6  0  0  0
 32 33  1  0  0  0  0
 33 35  1  1  0  0  0
M  END
>  <CHROM.1>
117.46378576,-44.02456247,-144.28967009,41.43654596,87.12458504,109.50159643
14.26099595,-10.20430061,28.31132608,2.72822482,0.42763994,-1.48484763

>  <Name>
2oe8_lig

>  <RI>
0

>  <Rbt.Current_Directory>
/home/itssahil/PROJECTS/Mol_Feturizer/New_Systems/rnas/2oe8

>  <Rbt.Executable>
rbdock ($Id: //depot/dev/client3/rdock/2013.1/src/exe/rbdock.cxx#4 $)

>  <Rbt.Library>
libRbt.so (2013.1, Build901 2013/11/27)

>  <Rbt.Parameter_File>
/export/apps/rDock/src/rDock_2013.1_src/data/scripts/dock_solv.prm

>  <Rbt.Receptor>
prm/blind_docking_40.prm

>  <SCORE>
41.5423

>  <SCORE.INTER>
-8.14535

>  <SCORE.INTER.CONST>
1

>  <SCORE.INTER.POLAR>
-2.97771

>  <SCORE.INTER.ROT>
6

>  <SCORE.INTER.SOLV>
26.7451

>  <SCORE.INTER.VDW>
-12.0196

>  <SCORE.INTER.norm>
-0.220144

>  <SCORE.INTRA>
24.9663

>  <SCORE.INTRA.DIHEDRAL>
6.05871

>  <SCORE.INTRA.DIHEDRAL.0>
16.4056

>  <SCORE.INTRA.POLAR>
0

>  <SCORE.INTRA.POLAR.0>
0

>  <SCORE.INTRA.REPUL>
0

>  <SCORE.INTRA.REPUL.0>
0

>  <SCORE.INTRA.SOLV>
6.85053

>  <SCORE.INTRA.SOLV.lig_0>
-90.9627

>  <SCORE.INTRA.VDW>
18.5117

>  <SCORE.INTRA.VDW.0>
-3.28744

>  <SCORE.INTRA.norm>
0.674766

>  <SCORE.RESTR>
24.7213

>  <SCORE.RESTR.CAVITY>
24.7213

>  <SCORE.RESTR.norm>
0.668143

>  <SCORE.SYSTEM>
0

>  <SCORE.SYSTEM.CONST>
0

>  <SCORE.SYSTEM.DIHEDRAL>
0

>  <SCORE.SYSTEM.SOLV>
0

>  <SCORE.SYSTEM.norm>
0

>  <SCORE.heavy>
37

>  <SCORE.norm>
1.12276

>  <RMSD>
26.395

$$$$
2oe8_lig
 OpenBabel11021811463D
libRbt.so/2013.1/901 2013/11/27
 37 40  0  0  0  0  0  0  0  0999 V2000
   11.1582  -10.5970   29.3954 C   0  0  1  0  0  0  0  0  0  0  0  0
   11.9994  -10.6932   30.7245 C   0  0  1  0  0  0  0  0  0  0  0  0
   13.3244   -9.9228   30.5471 C   0  0  0  0  0  0  0  0  0  0  0  0
   14.0659  -10.6054   29.3554 C   0  0  1  0  0  0  0  0  0  0  0  0
   13.2066  -10.5329   27.9907 C   0  0  1  0  0  0  0  0  0  0  0  0
   13.9310  -11.2286   26.8011 C   0  0  1  0  0  0  0  0  0  0  0  0
   15.3337  -10.5163   26.6219 C   0  0  1  0  0  0  0  0  0  0  0  0
   16.1087  -10.5734   27.9842 C   0  0  2  0  0  0  0  0  0  0  0  0
   16.1389  -12.6627   25.3409 C   0  0  0  0  0  0  0  0  0  0  0  0
   11.2323  -10.1172   31.8742 N   0  0  0  0  0  0  0  0  0  0  0  0
   16.1432  -11.1634   25.5015 N   0  0  0  0  0  0  0  0  0  0  0  0
   10.8183   -9.2407   29.0808 O   0  0  0  0  0  0  0  0  0  0  0  0
   11.9018  -11.1642   28.2322 O   0  0  0  0  0  0  0  0  0  0  0  0
   15.3515   -9.9601   29.1149 O   0  0  0  0  0  0  0  0  0  0  0  0
   14.0611  -12.6106   27.1387 O   0  0  0  0  0  0  0  0  0  0  0  0
   17.3058   -9.8985   27.8476 O   0  0  0  0  0  0  0  0  0  0  0  0
   18.3910  -10.5138   28.5621 C   0  0  2  0  0  0  0  0  0  0  0  0
   18.3200  -12.0538   28.4237 C   0  0  1  0  0  0  0  0  0  0  0  0
   17.0599  -12.6416   29.1299 C   0  0  2  0  0  0  0  0  0  0  0  0
   17.0850  -12.2504   30.6371 C   0  0  1  0  0  0  0  0  0  0  0  0
   17.0756  -10.6665   30.7025 C   0  0  1  0  0  0  0  0  0  0  0  0
   17.1151  -10.1537   32.1393 C   0  0  0  0  0  0  0  0  0  0  0  0
   15.8814  -12.8115   31.3146 N   0  0  0  0  0  0  0  0  0  0  0  0
   18.3015  -10.1467   29.9994 O   0  0  0  0  0  0  0  0  0  0  0  0
   18.3397  -12.3572   27.0157 O   0  0  0  0  0  0  0  0  0  0  0  0
   17.0925  -14.0476   29.0017 O   0  0  0  0  0  0  0  0  0  0  0  0
   16.4796  -11.0777   32.9828 O   0  0  0  0  0  0  0  0  0  0  0  0
   11.3948   -8.7769   27.8773 C   0  0  1  0  0  0  0  0  0  0  0  0
   10.2661   -8.6854   26.8006 C   0  0  1  0  0  0  0  0  0  0  0  0
   10.8936   -8.2052   25.4595 C   0  0  2  0  0  0  0  0  0  0  0  0
   11.5769   -6.8137   25.6340 C   0  0  1  0  0  0  0  0  0  0  0  0
   12.7101   -6.8937   26.7269 C   0  0  0  0  0  0  0  0  0  0  0  0
   12.0659   -7.3768   28.0921 C   0  0  2  0  0  0  0  0  0  0  0  0
   12.1736   -6.3794   24.3406 N   0  0  0  0  0  0  0  0  0  0  0  0
   13.1355   -7.4454   29.1131 N   0  0  0  0  0  0  0  0  0  0  0  0
    9.6594   -9.9758   26.6009 O   0  0  0  0  0  0  0  0  0  0  0  0
    9.8490   -8.1243   24.5039 O   0  0  0  0  0  0  0  0  0  0  0  0
  1  2  1  0  0  0  0
  1 12  1  6  0  0  0
  1 13  1  0  0  0  0
  2  3  1  0  0  0  0
  2 10  1  1  0  0  0
  4  3  1  1  0  0  0
  4  5  1  0  0  0  0
  4 14  1  0  0  0  0
  5  6  1  0  0  0  0
  5 13  1  1  0  0  0
  6  7  1  0  0  0  0
  6 15  1  1  0  0  0
  7  8  1  0  0  0  0
  7 11  1  6  0  0  0
  8 14  1  0  0  0  0
  8 16  1  6  0  0  0
  9 11  1  0  0  0  0
 17 16  1  6  0  0  0
 17 18  1  0  0  0  0
 17 24  1  0  0  0  0
 18 19  1  0  0  0  0
 18 25  1  6  0  0  0
 19 20  1  0  0  0  0
 19 26  1  1  0  0  0
 20 21  1  0  0  0  0
 20 23  1  1  0  0  0
 21 22  1  1  0  0  0
 21 24  1  0  0  0  0
 22 27  1  0  0  0  0
 28 12  1  1  0  0  0
 28 29  1  0  0  0  0
 28 33  1  0  0  0  0
 29 30  1  0  0  0  0
 29 36  1  6  0  0  0
 30 31  1  0  0  0  0
 30 37  1  6  0  0  0
 31 32  1  0  0  0  0
 31 34  1  6  0  0  0
 32 33  1  0  0  0  0
 33 35  1  1  0  0  0
M  END
>  <CHROM.1>
115.95317208,-40.08995811,-142.79337973,40.55018384,-30.27577321,106.90561712
14.25914982,-10.26991504,28.33720710,2.68414547,0.43392409,-1.43002739

>  <Name>
2oe8_lig

>  <RI>
0

>  <Rbt.Current_Directory>
/home/itssahil/PROJECTS/Mol_Feturizer/New_Systems/rnas/2oe8

>  <Rbt.Executable>
rbdock ($Id: //depot/dev/client3/rdock/2013.1/src/exe/rbdock.cxx#4 $)

>  <Rbt.Library>
libRbt.so (2013.1, Build901 2013/11/27)

>  <Rbt.Parameter_File>
/export/apps/rDock/src/rDock_2013.1_src/data/scripts/dock_solv.prm

>  <Rbt.Receptor>
prm/blind_docking_40.prm

>  <SCORE>
44.3275

>  <SCORE.INTER>
-6.77149

>  <SCORE.INTER.CONST>
1

>  <SCORE.INTER.POLAR>
-2.82686

>  <SCORE.INTER.ROT>
6

>  <SCORE.INTER.SOLV>
26.7935

>  <SCORE.INTER.VDW>
-11.6226

>  <SCORE.INTER.norm>
-0.183013

>  <SCORE.INTRA>
26.0063

>  <SCORE.INTRA.DIHEDRAL>
6.58796

>  <SCORE.INTRA.DIHEDRAL.0>
16.4056

>  <SCORE.INTRA.POLAR>
0

>  <SCORE.INTRA.POLAR.0>
0

>  <SCORE.INTRA.REPUL>
0

>  <SCORE.INTRA.REPUL.0>
0

>  <SCORE.INTRA.SOLV>
7.29328

>  <SCORE.INTRA.SOLV.lig_0>
-90.9627

>  <SCORE.INTRA.VDW>
19.0656

>  <SCORE.INTRA.VDW.0>
-3.28744

>  <SCORE.INTRA.norm>
0.702872

>  <SCORE.RESTR>
25.0927

>  <SCORE.RESTR.CAVITY>
25.0927

>  <SCORE.RESTR.norm>
0.678181

>  <SCORE.SYSTEM>
0

>  <SCORE.SYSTEM.CONST>
0

>  <SCORE.SYSTEM.DIHEDRAL>
0

>  <SCORE.SYSTEM.SOLV>
0

>  <SCORE.SYSTEM.norm>
0

>  <SCORE.heavy>
37

>  <SCORE.norm>
1.19804

>  <RMSD>
26.396

$$$$
2oe8_lig
 OpenBabel11021811463D
libRbt.so/2013.1/901 2013/11/27
 37 40  0  0  0  0  0  0  0  0999 V2000
   10.2579   -9.7054   29.6523 C   0  0  1  0  0  0  0  0  0  0  0  0
   10.8919  -10.2789   30.9761 C   0  0  1  0  0  0  0  0  0  0  0  0
   12.4299  -10.2665   30.8527 C   0  0  0  0  0  0  0  0  0  0  0  0
   12.7728  -11.1651   29.6236 C   0  0  1  0  0  0  0  0  0  0  0  0
   12.1125  -10.6012   28.2627 C   0  0  1  0  0  0  0  0  0  0  0  0
   12.4340  -11.5027   27.0347 C   0  0  1  0  0  0  0  0  0  0  0  0
   14.0102  -11.5794   26.9061 C   0  0  1  0  0  0  0  0  0  0  0  0
   14.6054  -12.0877   28.2653 C   0  0  2  0  0  0  0  0  0  0  0  0
   15.7318  -12.2382   25.0356 C   0  0  0  0  0  0  0  0  0  0  0  0
   10.4751   -9.4574   32.1566 N   0  0  0  0  0  0  0  0  0  0  0  0
   14.4273  -12.4851   25.7506 N   0  0  0  0  0  0  0  0  0  0  0  0
   10.6514   -8.3466   29.4220 O   0  0  0  0  0  0  0  0  0  0  0  0
   10.6592  -10.5068   28.4588 O   0  0  0  0  0  0  0  0  0  0  0  0
   14.2164  -11.2380   29.4291 O   0  0  0  0  0  0  0  0  0  0  0  0
   11.8452  -12.7799   27.2854 O   0  0  0  0  0  0  0  0  0  0  0  0
   15.9835  -12.0960   28.1761 O   0  0  0  0  0  0  0  0  0  0  0  0
   16.5589  -10.7794   28.1290 C   0  0  2  0  0  0  0  0  0  0  0  0
   18.0538  -10.8607   27.7364 C   0  0  1  0  0  0  0  0  0  0  0  0
   18.9031  -11.5733   28.8333 C   0  0  2  0  0  0  0  0  0  0  0  0
   18.7548  -10.8045   30.1794 C   0  0  1  0  0  0  0  0  0  0  0  0
   17.2156  -10.8309   30.5582 C   0  0  1  0  0  0  0  0  0  0  0  0
   16.9352  -10.0892   31.8621 C   0  0  0  0  0  0  0  0  0  0  0  0
   19.5661  -11.4837   31.2297 N   0  0  0  0  0  0  0  0  0  0  0  0
   16.4378  -10.1441   29.4670 O   0  0  0  0  0  0  0  0  0  0  0  0
   18.1261  -11.5436   26.4702 O   0  0  0  0  0  0  0  0  0  0  0  0
   20.2552  -11.5644   28.4257 O   0  0  0  0  0  0  0  0  0  0  0  0
   17.4850  -10.8068   32.9353 O   0  0  0  0  0  0  0  0  0  0  0  0
   11.0408   -8.0880   28.0888 C   0  0  1  0  0  0  0  0  0  0  0  0
    9.8207   -7.4643   27.3378 C   0  0  1  0  0  0  0  0  0  0  0  0
   10.2262   -7.2032   25.8578 C   0  0  2  0  0  0  0  0  0  0  0  0
   11.4491   -6.2378   25.7803 C   0  0  1  0  0  0  0  0  0  0  0  0
   12.6821   -6.8539   26.5452 C   0  0  0  0  0  0  0  0  0  0  0  0
   12.2670   -7.1124   28.0529 C   0  0  2  0  0  0  0  0  0  0  0  0
   11.8208   -6.0083   24.3566 N   0  0  0  0  0  0  0  0  0  0  0  0
   13.4309   -7.6870   28.7644 N   0  0  0  0  0  0  0  0  0  0  0  0
    8.7003   -8.3684   27.3661 O   0  0  0  0  0  0  0  0  0  0  0  0
    9.1059   -6.6321   25.2024 O   0  0  0  0  0  0  0  0  0  0  0  0
  1  2  1  0  0  0  0
  1 12  1  6  0  0  0
  1 13  1  0  0  0  0
  2  3  1  0  0  0  0
  2 10  1  1  0  0  0
  4  3  1  1  0  0  0
  4  5  1  0  0  0  0
  4 14  1  0  0  0  0
  5  6  1  0  0  0  0
  5 13  1  1  0  0  0
  6  7  1  0  0  0  0
  6 15  1  1  0  0  0
  7  8  1  0  0  0  0
  7 11  1  6  0  0  0
  8 14  1  0  0  0  0
  8 16  1  6  0  0  0
  9 11  1  0  0  0  0
 17 16  1  1  0  0  0
 17 18  1  0  0  0  0
 17 24  1  0  0  0  0
 18 19  1  0  0  0  0
 18 25  1  6  0  0  0
 19 20  1  0  0  0  0
 19 26  1  6  0  0  0
 20 21  1  0  0  0  0
 20 23  1  1  0  0  0
 21 22  1  1  0  0  0
 21 24  1  0  0  0  0
 22 27  1  0  0  0  0
 28 12  1  1  0  0  0
 28 29  1  0  0  0  0
 28 33  1  0  0  0  0
 29 30  1  0  0  0  0
 29 36  1  6  0  0  0
 30 31  1  0  0  0  0
 30 37  1  6  0  0  0
 31 32  1  0  0  0  0
 31 34  1  6  0  0  0
 32 33  1  0  0  0  0
 33 35  1  1  0  0  0
M  END
>  <CHROM.1>
134.84652669,151.66027876,69.66711609,-168.24616547,-68.96080817,97.68390820
13.86268809,-9.98274766,28.38842565,2.83334093,0.37554553,-1.41931777

>  <Name>
2oe8_lig

>  <RI>
0

>  <Rbt.Current_Directory>
/home/itssahil/PROJECTS/Mol_Feturizer/New_Systems/rnas/2oe8

>  <Rbt.Executable>
rbdock ($Id: //depot/dev/client3/rdock/2013.1/src/exe/rbdock.cxx#4 $)

>  <Rbt.Library>
libRbt.so (2013.1, Build901 2013/11/27)

>  <Rbt.Parameter_File>
/export/apps/rDock/src/rDock_2013.1_src/data/scripts/dock_solv.prm

>  <Rbt.Receptor>
prm/blind_docking_40.prm

>  <SCORE>
41.615

>  <SCORE.INTER>
2.74045

>  <SCORE.INTER.CONST>
1

>  <SCORE.INTER.POLAR>
-1.06023

>  <SCORE.INTER.ROT>
6

>  <SCORE.INTER.SOLV>
24.2296

>  <SCORE.INTER.VDW>
-10.3155

>  <SCORE.INTER.norm>
0.0740662

>  <SCORE.INTRA>
6.71421

>  <SCORE.INTRA.DIHEDRAL>
-3.2721

>  <SCORE.INTRA.DIHEDRAL.0>
16.4056

>  <SCORE.INTRA.POLAR>
0

>  <SCORE.INTRA.POLAR.0>
0

>  <SCORE.INTRA.REPUL>
0.592765

>  <SCORE.INTRA.REPUL.0>
0

>  <SCORE.INTRA.SOLV>
2.23468

>  <SCORE.INTRA.SOLV.lig_0>
-90.9627

>  <SCORE.INTRA.VDW>
4.2691

>  <SCORE.INTRA.VDW.0>
-3.28744

>  <SCORE.INTRA.norm>
0.181465

>  <SCORE.RESTR>
32.1603

>  <SCORE.RESTR.CAVITY>
32.1603

>  <SCORE.RESTR.norm>
0.869197

>  <SCORE.SYSTEM>
0

>  <SCORE.SYSTEM.CONST>
0

>  <SCORE.SYSTEM.DIHEDRAL>
0

>  <SCORE.SYSTEM.SOLV>
0

>  <SCORE.SYSTEM.norm>
0

>  <SCORE.heavy>
37

>  <SCORE.norm>
1.12473

>  <RMSD>
26.398

$$$$
2oe8_lig
 OpenBabel11021811463D
libRbt.so/2013.1/901 2013/11/27
 37 40  0  0  0  0  0  0  0  0999 V2000
   11.1399  -10.5886   29.3959 C   0  0  1  0  0  0  0  0  0  0  0  0
   11.9991  -10.7011   30.7122 C   0  0  1  0  0  0  0  0  0  0  0  0
   13.3243   -9.9335   30.5241 C   0  0  0  0  0  0  0  0  0  0  0  0
   14.0467  -10.6068   29.3154 C   0  0  1  0  0  0  0  0  0  0  0  0
   13.1688  -10.5176   27.9636 C   0  0  1  0  0  0  0  0  0  0  0  0
   13.8741  -11.2039   26.7572 C   0  0  1  0  0  0  0  0  0  0  0  0
   15.2767  -10.4948   26.5656 C   0  0  1  0  0  0  0  0  0  0  0  0
   16.0704  -10.5682   27.9163 C   0  0  2  0  0  0  0  0  0  0  0  0
   16.0866  -12.6335   25.2746 C   0  0  0  0  0  0  0  0  0  0  0  0
   11.2501  -10.1339   31.8782 N   0  0  0  0  0  0  0  0  0  0  0  0
   16.0682  -11.1335   25.4276 N   0  0  0  0  0  0  0  0  0  0  0  0
   10.8005   -9.2281   29.0996 O   0  0  0  0  0  0  0  0  0  0  0  0
   11.8651  -11.1467   28.2169 O   0  0  0  0  0  0  0  0  0  0  0  0
   15.3312   -9.9636   29.0634 O   0  0  0  0  0  0  0  0  0  0  0  0
   14.0038  -12.5897   27.0791 O   0  0  0  0  0  0  0  0  0  0  0  0
   17.2679   -9.8961   27.7697 O   0  0  0  0  0  0  0  0  0  0  0  0
   18.3540  -10.5051   28.4883 C   0  0  2  0  0  0  0  0  0  0  0  0
   18.2846  -12.0461   28.3611 C   0  0  1  0  0  0  0  0  0  0  0  0
   17.0254  -12.6300   29.0722 C   0  0  2  0  0  0  0  0  0  0  0  0
   17.0508  -12.2278   30.5765 C   0  0  1  0  0  0  0  0  0  0  0  0
   17.0398  -10.6435   30.6303 C   0  0  1  0  0  0  0  0  0  0  0  0
   17.0793  -10.1201   32.0632 C   0  0  0  0  0  0  0  0  0  0  0  0
   15.8481  -12.7852   31.2586 N   0  0  0  0  0  0  0  0  0  0  0  0
   18.2648  -10.1275   29.9228 O   0  0  0  0  0  0  0  0  0  0  0  0
   18.3040  -12.3598   26.9554 O   0  0  0  0  0  0  0  0  0  0  0  0
   17.0595  -14.0369   28.9543 O   0  0  0  0  0  0  0  0  0  0  0  0
   18.3081  -10.4582   32.6504 O   0  0  0  0  0  0  0  0  0  0  0  0
   11.3500   -8.7588   27.8857 C   0  0  1  0  0  0  0  0  0  0  0  0
   10.1866   -8.5969   26.8553 C   0  0  1  0  0  0  0  0  0  0  0  0
   10.7826   -8.1100   25.5023 C   0  0  2  0  0  0  0  0  0  0  0  0
   11.5277   -6.7513   25.6817 C   0  0  1  0  0  0  0  0  0  0  0  0
   12.6967   -6.9023   26.7284 C   0  0  0  0  0  0  0  0  0  0  0  0
   12.0849   -7.3920   28.1060 C   0  0  2  0  0  0  0  0  0  0  0  0
   12.0928   -6.3101   24.3764 N   0  0  0  0  0  0  0  0  0  0  0  0
   13.1882   -7.5274   29.0836 N   0  0  0  0  0  0  0  0  0  0  0  0
    9.5210   -9.8571   26.6500 O   0  0  0  0  0  0  0  0  0  0  0  0
    9.7072   -7.9649   24.5894 O   0  0  0  0  0  0  0  0  0  0  0  0
  1  2  1  0  0  0  0
  1 12  1  6  0  0  0
  1 13  1  0  0  0  0
  2  3  1  0  0  0  0
  2 10  1  1  0  0  0
  4  3  1  1  0  0  0
  4  5  1  0  0  0  0
  4 14  1  0  0  0  0
  5  6  1  0  0  0  0
  5 13  1  1  0  0  0
  6  7  1  0  0  0  0
  6 15  1  1  0  0  0
  7  8  1  0  0  0  0
  7 11  1  6  0  0  0
  8 14  1  0  0  0  0
  8 16  1  6  0  0  0
  9 11  1  0  0  0  0
 17 16  1  6  0  0  0
 17 18  1  0  0  0  0
 17 24  1  0  0  0  0
 18 19  1  0  0  0  0
 18 25  1  6  0  0  0
 19 20  1  0  0  0  0
 19 26  1  1  0  0  0
 20 21  1  0  0  0  0
 20 23  1  1  0  0  0
 21 22  1  1  0  0  0
 21 24  1  0  0  0  0
 22 27  1  0  0  0  0
 28 12  1  1  0  0  0
 28 29  1  0  0  0  0
 28 33  1  0  0  0  0
 29 30  1  0  0  0  0
 29 36  1  6  0  0  0
 30 31  1  0  0  0  0
 30 37  1  6  0  0  0
 31 32  1  0  0  0  0
 31 34  1  6  0  0  0
 32 33  1  0  0  0  0
 33 35  1  1  0  0  0
M  END
>  <CHROM.1>
116.60099441,-41.74978899,-144.15575833,40.80151174,65.87192630,109.19116093
14.27535614,-10.22859742,28.30209827,2.72179829,0.42926950,-1.47613496

>  <Name>
2oe8_lig

>  <RI>
0

>  <Rbt.Current_Directory>
/home/itssahil/PROJECTS/Mol_Feturizer/New_Systems/rnas/2oe8

>  <Rbt.Executable>
rbdock ($Id: //depot/dev/client3/rdock/2013.1/src/exe/rbdock.cxx#4 $)

>  <Rbt.Library>
libRbt.so (2013.1, Build901 2013/11/27)

>  <Rbt.Parameter_File>
/export/apps/rDock/src/rDock_2013.1_src/data/scripts/dock_solv.prm

>  <Rbt.Receptor>
prm/blind_docking_40.prm

>  <SCORE>
40.8572

>  <SCORE.INTER>
-7.81095

>  <SCORE.INTER.CONST>
1

>  <SCORE.INTER.POLAR>
-2.781

>  <SCORE.INTER.ROT>
6

>  <SCORE.INTER.SOLV>
26.6523

>  <SCORE.INTER.VDW>
-12.4214

>  <SCORE.INTER.norm>
-0.211107

>  <SCORE.INTRA>
23.838

>  <SCORE.INTRA.DIHEDRAL>
4.06522

>  <SCORE.INTRA.DIHEDRAL.0>
16.4056

>  <SCORE.INTRA.POLAR>
0

>  <SCORE.INTRA.POLAR.0>
0

>  <SCORE.INTRA.REPUL>
0

>  <SCORE.INTRA.REPUL.0>
0

>  <SCORE.INTRA.SOLV>
6.99785

>  <SCORE.INTRA.SOLV.lig_0>
-90.9627

>  <SCORE.INTRA.VDW>
18.3065

>  <SCORE.INTRA.VDW.0>
-3.28744

>  <SCORE.INTRA.norm>
0.644271

>  <SCORE.RESTR>
24.8301

>  <SCORE.RESTR.CAVITY>
24.8301

>  <SCORE.RESTR.norm>
0.671083

>  <SCORE.SYSTEM>
0

>  <SCORE.SYSTEM.CONST>
0

>  <SCORE.SYSTEM.DIHEDRAL>
0

>  <SCORE.SYSTEM.SOLV>
0

>  <SCORE.SYSTEM.norm>
0

>  <SCORE.heavy>
37

>  <SCORE.norm>
1.10425

>  <RMSD>
26.406

$$$$
2oe8_lig
 OpenBabel11021811463D
libRbt.so/2013.1/901 2013/11/27
 37 40  0  0  0  0  0  0  0  0999 V2000
   11.1560  -10.6195   29.4137 C   0  0  1  0  0  0  0  0  0  0  0  0
   12.0024  -10.6944   30.7409 C   0  0  1  0  0  0  0  0  0  0  0  0
   13.3225   -9.9190   30.5492 C   0  0  0  0  0  0  0  0  0  0  0  0
   14.0636  -10.6124   29.3635 C   0  0  1  0  0  0  0  0  0  0  0  0
   13.1991  -10.5617   28.0011 C   0  0  1  0  0  0  0  0  0  0  0  0
   13.9232  -11.2682   26.8177 C   0  0  1  0  0  0  0  0  0  0  0  0
   15.3212  -10.5505   26.6245 C   0  0  1  0  0  0  0  0  0  0  0  0
   16.1014  -10.5862   27.9847 C   0  0  2  0  0  0  0  0  0  0  0  0
   15.5640  -12.3913   24.7674 C   0  0  0  0  0  0  0  0  0  0  0  0
   11.2361  -10.1083   31.8861 N   0  0  0  0  0  0  0  0  0  0  0  0
   16.1304  -11.2071   25.5094 N   0  0  0  0  0  0  0  0  0  0  0  0
   10.8074   -9.2691   29.0834 O   0  0  0  0  0  0  0  0  0  0  0  0
   11.8986  -11.1971   28.2550 O   0  0  0  0  0  0  0  0  0  0  0  0
   15.3447   -9.9631   29.1103 O   0  0  0  0  0  0  0  0  0  0  0  0
   14.0621  -12.6451   27.1720 O   0  0  0  0  0  0  0  0  0  0  0  0
   17.2942   -9.9065   27.8353 O   0  0  0  0  0  0  0  0  0  0  0  0
   18.3899  -10.5189   28.5362 C   0  0  2  0  0  0  0  0  0  0  0  0
   18.3300  -12.0582   28.3858 C   0  0  1  0  0  0  0  0  0  0  0  0
   17.0804  -12.6617   29.0973 C   0  0  2  0  0  0  0  0  0  0  0  0
   17.1145  -12.2826   30.6073 C   0  0  1  0  0  0  0  0  0  0  0  0
   17.0930  -10.6993   30.6856 C   0  0  1  0  0  0  0  0  0  0  0  0
   17.1399  -10.1978   32.1262 C   0  0  0  0  0  0  0  0  0  0  0  0
   15.9208  -12.8587   31.2898 N   0  0  0  0  0  0  0  0  0  0  0  0
   18.3091  -10.1640   29.9770 O   0  0  0  0  0  0  0  0  0  0  0  0
   18.3408  -12.3501   26.9753 O   0  0  0  0  0  0  0  0  0  0  0  0
   17.1231  -14.0664   28.9574 O   0  0  0  0  0  0  0  0  0  0  0  0
   18.3926  -10.4957   32.6841 O   0  0  0  0  0  0  0  0  0  0  0  0
   11.3929   -8.8107   27.8822 C   0  0  1  0  0  0  0  0  0  0  0  0
   10.2637   -8.6769   26.8105 C   0  0  1  0  0  0  0  0  0  0  0  0
   10.9002   -8.2024   25.4717 C   0  0  2  0  0  0  0  0  0  0  0  0
   11.6236   -6.8327   25.6566 C   0  0  1  0  0  0  0  0  0  0  0  0
   12.7576   -6.9552   26.7445 C   0  0  0  0  0  0  0  0  0  0  0  0
   12.1045   -7.4325   28.1076 C   0  0  2  0  0  0  0  0  0  0  0  0
   12.2280   -6.4034   24.3651 N   0  0  0  0  0  0  0  0  0  0  0  0
   13.1752   -7.5412   29.1240 N   0  0  0  0  0  0  0  0  0  0  0  0
    9.6196   -9.9475   26.6010 O   0  0  0  0  0  0  0  0  0  0  0  0
    9.8551   -8.0827   24.5207 O   0  0  0  0  0  0  0  0  0  0  0  0
  1  2  1  0  0  0  0
  1 12  1  6  0  0  0
  1 13  1  0  0  0  0
  2  3  1  0  0  0  0
  2 10  1  1  0  0  0
  4  3  1  1  0  0  0
  4  5  1  0  0  0  0
  4 14  1  0  0  0  0
  5  6  1  0  0  0  0
  5 13  1  1  0  0  0
  6  7  1  0  0  0  0
  6 15  1  1  0  0  0
  7  8  1  0  0  0  0
  7 11  1  6  0  0  0
  8 14  1  0  0  0  0
  8 16  1  6  0  0  0
  9 11  1  0  0  0  0
 17 16  1  6  0  0  0
 17 18  1  0  0  0  0
 17 24  1  0  0  0  0
 18 19  1  0  0  0  0
 18 25  1  6  0  0  0
 19 20  1  0  0  0  0
 19 26  1  1  0  0  0
 20 21  1  0  0  0  0
 20 23  1  1  0  0  0
 21 22  1  1  0  0  0
 21 24  1  0  0  0  0
 22 27  1  0  0  0  0
 28 12  1  1  0  0  0
 28 29  1  0  0  0  0
 28 33  1  0  0  0  0
 29 30  1  0  0  0  0
 29 36  1  6  0  0  0
 30 31  1  0  0  0  0
 30 37  1  6  0  0  0
 31 32  1  0  0  0  0
 31 34  1  6  0  0  0
 32 33  1  0  0  0  0
 33 35  1  1  0  0  0
M  END
>  <CHROM.1>
115.07648653,-0.46702690,-141.85316336,41.03264963,67.88253243,109.43458870
14.30860605,-10.26290174,28.31103926,2.70851111,0.42550731,-1.49170138

>  <Name>
2oe8_lig

>  <RI>
0

>  <Rbt.Current_Directory>
/home/itssahil/PROJECTS/Mol_Feturizer/New_Systems/rnas/2oe8

>  <Rbt.Executable>
rbdock ($Id: //depot/dev/client3/rdock/2013.1/src/exe/rbdock.cxx#4 $)

>  <Rbt.Library>
libRbt.so (2013.1, Build901 2013/11/27)

>  <Rbt.Parameter_File>
/export/apps/rDock/src/rDock_2013.1_src/data/scripts/dock_solv.prm

>  <Rbt.Receptor>
prm/blind_docking_40.prm

>  <SCORE>
41.0149

>  <SCORE.INTER>
-8.09358

>  <SCORE.INTER.CONST>
1

>  <SCORE.INTER.POLAR>
-2.77189

>  <SCORE.INTER.ROT>
6

>  <SCORE.INTER.SOLV>
26.78

>  <SCORE.INTER.VDW>
-12.6827

>  <SCORE.INTER.norm>
-0.218745

>  <SCORE.INTRA>
23.7119

>  <SCORE.INTRA.DIHEDRAL>
5.43386

>  <SCORE.INTRA.DIHEDRAL.0>
16.4056

>  <SCORE.INTRA.POLAR>
0

>  <SCORE.INTRA.POLAR.0>
0

>  <SCORE.INTRA.REPUL>
0

>  <SCORE.INTRA.REPUL.0>
0

>  <SCORE.INTRA.SOLV>
6.66964

>  <SCORE.INTRA.SOLV.lig_0>
-90.9627

>  <SCORE.INTRA.VDW>
17.6601

>  <SCORE.INTRA.VDW.0>
-3.28744

>  <SCORE.INTRA.norm>
0.640861

>  <SCORE.RESTR>
25.3966

>  <SCORE.RESTR.CAVITY>
25.3966

>  <SCORE.RESTR.norm>
0.686395

>  <SCORE.SYSTEM>
0

>  <SCORE.SYSTEM.CONST>
0

>  <SCORE.SYSTEM.DIHEDRAL>
0

>  <SCORE.SYSTEM.SOLV>
0

>  <SCORE.SYSTEM.norm>
0

>  <SCORE.heavy>
37

>  <SCORE.norm>
1.10851

>  <RMSD>
26.407

$$$$
2oe8_lig
 OpenBabel11021811463D
libRbt.so/2013.1/901 2013/11/27
 37 40  0  0  0  0  0  0  0  0999 V2000
   11.7570   -9.9346   28.7852 C   0  0  1  0  0  0  0  0  0  0  0  0
   11.9388  -11.0099   29.9228 C   0  0  1  0  0  0  0  0  0  0  0  0
   13.4437  -11.2241   30.1871 C   0  0  0  0  0  0  0  0  0  0  0  0
   14.0545  -11.7164   28.8379 C   0  0  1  0  0  0  0  0  0  0  0  0
   13.8575  -10.6334   27.6571 C   0  0  1  0  0  0  0  0  0  0  0  0
   14.4472  -11.1251   26.3027 C   0  0  1  0  0  0  0  0  0  0  0  0
   15.9834  -11.4270   26.5394 C   0  0  1  0  0  0  0  0  0  0  0  0
   16.1230  -12.4465   27.7231 C   0  0  2  0  0  0  0  0  0  0  0  0
   16.6168  -13.4416   24.9785 C   0  0  0  0  0  0  0  0  0  0  0  0
   11.2654  -10.5605   31.1825 N   0  0  0  0  0  0  0  0  0  0  0  0
   16.6433  -11.9627   25.2718 N   0  0  0  0  0  0  0  0  0  0  0  0
   12.3032   -8.6650   29.1643 O   0  0  0  0  0  0  0  0  0  0  0  0
   12.4207  -10.3584   27.5173 O   0  0  0  0  0  0  0  0  0  0  0  0
   15.4832  -11.9702   28.9847 O   0  0  0  0  0  0  0  0  0  0  0  0
   13.7149  -12.2919   25.9244 O   0  0  0  0  0  0  0  0  0  0  0  0
   17.4639  -12.6634   27.9721 O   0  0  0  0  0  0  0  0  0  0  0  0
   18.2132  -11.4497   28.1518 C   0  0  2  0  0  0  0  0  0  0  0  0
   19.5454  -11.7446   28.8824 C   0  0  1  0  0  0  0  0  0  0  0  0
   19.3090  -12.2283   30.3460 C   0  0  2  0  0  0  0  0  0  0  0  0
   18.5124  -11.1405   31.1253 C   0  0  1  0  0  0  0  0  0  0  0  0
   17.1323  -10.9494   30.3691 C   0  0  1  0  0  0  0  0  0  0  0  0
   16.2594   -9.8877   31.0323 C   0  0  0  0  0  0  0  0  0  0  0  0
   18.2852  -11.6004   32.5251 N   0  0  0  0  0  0  0  0  0  0  0  0
   17.4118  -10.4949   28.9610 O   0  0  0  0  0  0  0  0  0  0  0  0
   20.2543  -12.7236   28.0989 O   0  0  0  0  0  0  0  0  0  0  0  0
   20.5660  -12.4284   30.9577 O   0  0  0  0  0  0  0  0  0  0  0  0
   15.5660   -9.1701   30.0458 O   0  0  0  0  0  0  0  0  0  0  0  0
   12.0587   -7.6396   28.2237 C   0  0  1  0  0  0  0  0  0  0  0  0
   12.8770   -7.9594   26.9315 C   0  0  1  0  0  0  0  0  0  0  0  0
   12.6415   -6.8203   25.8972 C   0  0  2  0  0  0  0  0  0  0  0  0
   11.1262   -6.6918   25.5494 C   0  0  1  0  0  0  0  0  0  0  0  0
   10.2909   -6.3802   26.8494 C   0  0  0  0  0  0  0  0  0  0  0  0
   10.5286   -7.5453   27.8974 C   0  0  2  0  0  0  0  0  0  0  0  0
   10.9265   -5.5934   24.5638 N   0  0  0  0  0  0  0  0  0  0  0  0
    9.7381   -7.2469   29.1128 N   0  0  0  0  0  0  0  0  0  0  0  0
   14.2824   -8.0359   27.2354 O   0  0  0  0  0  0  0  0  0  0  0  0
   13.3882   -7.1382   24.7343 O   0  0  0  0  0  0  0  0  0  0  0  0
  1  2  1  0  0  0  0
  1 12  1  1  0  0  0
  1 13  1  0  0  0  0
  2  3  1  0  0  0  0
  2 10  1  1  0  0  0
  4  3  1  1  0  0  0
  4  5  1  0  0  0  0
  4 14  1  0  0  0  0
  5  6  1  0  0  0  0
  5 13  1  6  0  0  0
  6  7  1  0  0  0  0
  6 15  1  1  0  0  0
  7  8  1  0  0  0  0
  7 11  1  6  0  0  0
  8 14  1  0  0  0  0
  8 16  1  1  0  0  0
  9 11  1  0  0  0  0
 17 16  1  1  0  0  0
 17 18  1  0  0  0  0
 17 24  1  0  0  0  0
 18 19  1  0  0  0  0
 18 25  1  6  0  0  0
 19 20  1  0  0  0  0
 19 26  1  1  0  0  0
 20 21  1  0  0  0  0
 20 23  1  1  0  0  0
 21 22  1  1  0  0  0
 21 24  1  0  0  0  0
 22 27  1  0  0  0  0
 28 12  1  1  0  0  0
 28 29  1  0  0  0  0
 28 33  1  0  0  0  0
 29 30  1  0  0  0  0
 29 36  1  1  0  0  0
 30 31  1  0  0  0  0
 30 37  1  6  0  0  0
 31 32  1  0  0  0  0
 31 34  1  6  0  0  0
 32 33  1  0  0  0  0
 33 35  1  1  0  0  0
M  END
>  <CHROM.1>
-174.72590052,-87.18805754,51.84436064,160.82965429,143.46714545,-68.05969086
14.81316158,-10.19281266,28.21980710,2.84653788,0.55198721,-1.53258141

>  <Name>
2oe8_lig

>  <RI>
0

>  <Rbt.Current_Directory>
/home/itssahil/PROJECTS/Mol_Feturizer/New_Systems/rnas/2oe8

>  <Rbt.Executable>
rbdock ($Id: //depot/dev/client3/rdock/2013.1/src/exe/rbdock.cxx#4 $)

>  <Rbt.Library>
libRbt.so (2013.1, Build901 2013/11/27)

>  <Rbt.Parameter_File>
/export/apps/rDock/src/rDock_2013.1_src/data/scripts/dock_solv.prm

>  <Rbt.Receptor>
prm/blind_docking_40.prm

>  <SCORE>
41.5435

>  <SCORE.INTER>
3.39301

>  <SCORE.INTER.CONST>
1

>  <SCORE.INTER.POLAR>
-0.627808

>  <SCORE.INTER.ROT>
6

>  <SCORE.INTER.SOLV>
19.2091

>  <SCORE.INTER.VDW>
-9.64833

>  <SCORE.INTER.norm>
0.0917031

>  <SCORE.INTRA>
9.44449

>  <SCORE.INTRA.DIHEDRAL>
-9.85612

>  <SCORE.INTRA.DIHEDRAL.0>
16.4056

>  <SCORE.INTRA.POLAR>
0

>  <SCORE.INTRA.POLAR.0>
0

>  <SCORE.INTRA.REPUL>
0.479923

>  <SCORE.INTRA.REPUL.0>
0

>  <SCORE.INTRA.SOLV>
0.856898

>  <SCORE.INTRA.SOLV.lig_0>
-90.9627

>  <SCORE.INTRA.VDW>
11.5445

>  <SCORE.INTRA.VDW.0>
-3.28744

>  <SCORE.INTRA.norm>
0.255257

>  <SCORE.RESTR>
28.706

>  <SCORE.RESTR.CAVITY>
28.706

>  <SCORE.RESTR.norm>
0.775839

>  <SCORE.SYSTEM>
0

>  <SCORE.SYSTEM.CONST>
0

>  <SCORE.SYSTEM.DIHEDRAL>
0

>  <SCORE.SYSTEM.SOLV>
0

>  <SCORE.SYSTEM.norm>
0

>  <SCORE.heavy>
37

>  <SCORE.norm>
1.1228

>  <RMSD>
26.414

$$$$
2oe8_lig
 OpenBabel11021811463D
libRbt.so/2013.1/901 2013/11/27
 37 40  0  0  0  0  0  0  0  0999 V2000
   11.0993  -10.5764   29.3760 C   0  0  1  0  0  0  0  0  0  0  0  0
   11.9563  -10.6854   30.6940 C   0  0  1  0  0  0  0  0  0  0  0  0
   13.2817   -9.9180   30.5061 C   0  0  0  0  0  0  0  0  0  0  0  0
   14.0062  -10.5941   29.3004 C   0  0  1  0  0  0  0  0  0  0  0  0
   13.1306  -10.5085   27.9469 C   0  0  1  0  0  0  0  0  0  0  0  0
   13.8380  -11.1976   26.7434 C   0  0  1  0  0  0  0  0  0  0  0  0
   15.2408  -10.4887   26.5523 C   0  0  1  0  0  0  0  0  0  0  0  0
   16.0323  -10.5585   27.9046 C   0  0  2  0  0  0  0  0  0  0  0  0
   16.1209  -12.6320   25.3161 C   0  0  0  0  0  0  0  0  0  0  0  0
   11.2053  -10.1155   31.8573 N   0  0  0  0  0  0  0  0  0  0  0  0
   16.0344  -11.1300   25.4172 N   0  0  0  0  0  0  0  0  0  0  0  0
   10.7601   -9.2166   29.0758 O   0  0  0  0  0  0  0  0  0  0  0  0
   11.8266  -11.1373   28.1996 O   0  0  0  0  0  0  0  0  0  0  0  0
   15.2910   -9.9513   29.0489 O   0  0  0  0  0  0  0  0  0  0  0  0
   13.9675  -12.5826   27.0689 O   0  0  0  0  0  0  0  0  0  0  0  0
   17.2298   -9.8866   27.7583 O   0  0  0  0  0  0  0  0  0  0  0  0
   18.3144  -10.4921   28.4822 C   0  0  2  0  0  0  0  0  0  0  0  0
   18.2607  -12.0324   28.3401 C   0  0  1  0  0  0  0  0  0  0  0  0
   17.0000  -12.6346   29.0330 C   0  0  2  0  0  0  0  0  0  0  0  0
   17.0065  -12.2463   30.5411 C   0  0  1  0  0  0  0  0  0  0  0  0
   16.9800  -10.6627   30.6094 C   0  0  1  0  0  0  0  0  0  0  0  0
   17.0002  -10.1523   32.0474 C   0  0  0  0  0  0  0  0  0  0  0  0
   15.8022  -12.8211   31.2058 N   0  0  0  0  0  0  0  0  0  0  0  0
   18.2072  -10.1288   29.9191 O   0  0  0  0  0  0  0  0  0  0  0  0
   18.2972  -12.3328   26.9318 O   0  0  0  0  0  0  0  0  0  0  0  0
   17.0484  -14.0400   28.9024 O   0  0  0  0  0  0  0  0  0  0  0  0
   18.3295   -9.9974   32.4696 O   0  0  0  0  0  0  0  0  0  0  0  0
   11.3268   -8.7444   27.8709 C   0  0  1  0  0  0  0  0  0  0  0  0
   10.1785   -8.5836   26.8233 C   0  0  1  0  0  0  0  0  0  0  0  0
   10.7937   -8.0935   25.4801 C   0  0  2  0  0  0  0  0  0  0  0  0
   11.5331   -6.7334   25.6726 C   0  0  1  0  0  0  0  0  0  0  0  0
   12.6865   -6.8833   26.7364 C   0  0  0  0  0  0  0  0  0  0  0  0
   12.0552   -7.3763   28.1041 C   0  0  2  0  0  0  0  0  0  0  0  0
   12.1167   -6.2891   24.3765 N   0  0  0  0  0  0  0  0  0  0  0  0
   13.1440   -7.5107   29.0979 N   0  0  0  0  0  0  0  0  0  0  0  0
    9.5190   -9.8449   26.6063 O   0  0  0  0  0  0  0  0  0  0  0  0
    9.7318   -7.9495   24.5514 O   0  0  0  0  0  0  0  0  0  0  0  0
  1  2  1  0  0  0  0
  1 12  1  6  0  0  0
  1 13  1  0  0  0  0
  2  3  1  0  0  0  0
  2 10  1  1  0  0  0
  4  3  1  1  0  0  0
  4  5  1  0  0  0  0
  4 14  1  0  0  0  0
  5  6  1  0  0  0  0
  5 13  1  1  0  0  0
  6  7  1  0  0  0  0
  6 15  1  1  0  0  0
  7  8  1  0  0  0  0
  7 11  1  6  0  0  0
  8 14  1  0  0  0  0
  8 16  1  6  0  0  0
  9 11  1  0  0  0  0
 17 16  1  6  0  0  0
 17 18  1  0  0  0  0
 17 24  1  0  0  0  0
 18 19  1  0  0  0  0
 18 25  1  6  0  0  0
 19 20  1  0  0  0  0
 19 26  1  1  0  0  0
 20 21  1  0  0  0  0
 20 23  1  1  0  0  0
 21 22  1  1  0  0  0
 21 24  1  0  0  0  0
 22 27  1  0  0  0  0
 28 12  1  1  0  0  0
 28 29  1  0  0  0  0
 28 33  1  0  0  0  0
 29 30  1  0  0  0  0
 29 36  1  6  0  0  0
 30 31  1  0  0  0  0
 30 37  1  6  0  0  0
 31 32  1  0  0  0  0
 31 34  1  6  0  0  0
 32 33  1  0  0  0  0
 33 35  1  1  0  0  0
M  END
>  <CHROM.1>
115.77233861,-45.38393369,-144.26453722,41.81924046,88.87054870,109.25947470
14.24943376,-10.20743038,28.28023354,2.73400040,0.43218187,-1.48763861

>  <Name>
2oe8_lig

>  <RI>
0

>  <Rbt.Current_Directory>
/home/itssahil/PROJECTS/Mol_Feturizer/New_Systems/rnas/2oe8

>  <Rbt.Executable>
rbdock ($Id: //depot/dev/client3/rdock/2013.1/src/exe/rbdock.cxx#4 $)

>  <Rbt.Library>
libRbt.so (2013.1, Build901 2013/11/27)

>  <Rbt.Parameter_File>
/export/apps/rDock/src/rDock_2013.1_src/data/scripts/dock_solv.prm

>  <Rbt.Receptor>
prm/blind_docking_40.prm

>  <SCORE>
41.9135

>  <SCORE.INTER>
-8.24326

>  <SCORE.INTER.CONST>
1

>  <SCORE.INTER.POLAR>
-2.94848

>  <SCORE.INTER.ROT>
6

>  <SCORE.INTER.SOLV>
26.898

>  <SCORE.INTER.VDW>
-12.2332

>  <SCORE.INTER.norm>
-0.222791

>  <SCORE.INTRA>
25.5455

>  <SCORE.INTRA.DIHEDRAL>
6.1335

>  <SCORE.INTRA.DIHEDRAL.0>
16.4056

>  <SCORE.INTRA.POLAR>
0

>  <SCORE.INTRA.POLAR.0>
0

>  <SCORE.INTRA.REPUL>
0

>  <SCORE.INTRA.REPUL.0>
0

>  <SCORE.INTRA.SOLV>
6.78367

>  <SCORE.INTRA.SOLV.lig_0>
-90.9627

>  <SCORE.INTRA.VDW>
19.0869

>  <SCORE.INTRA.VDW.0>
-3.28744

>  <SCORE.INTRA.norm>
0.69042

>  <SCORE.RESTR>
24.6113

>  <SCORE.RESTR.CAVITY>
24.6113

>  <SCORE.RESTR.norm>
0.66517

>  <SCORE.SYSTEM>
0

>  <SCORE.SYSTEM.CONST>
0

>  <SCORE.SYSTEM.DIHEDRAL>
0

>  <SCORE.SYSTEM.SOLV>
0

>  <SCORE.SYSTEM.norm>
0

>  <SCORE.heavy>
37

>  <SCORE.norm>
1.1328

>  <RMSD>
26.421

$$$$
2oe8_lig
 OpenBabel11021811463D
libRbt.so/2013.1/901 2013/11/27
 37 40  0  0  0  0  0  0  0  0999 V2000
   11.1495  -10.6423   29.3571 C   0  0  1  0  0  0  0  0  0  0  0  0
   11.9668  -10.7086   30.7028 C   0  0  1  0  0  0  0  0  0  0  0  0
   13.2842   -9.9222   30.5394 C   0  0  0  0  0  0  0  0  0  0  0  0
   14.0573  -10.6106   29.3714 C   0  0  1  0  0  0  0  0  0  0  0  0
   13.2229  -10.5688   27.9901 C   0  0  1  0  0  0  0  0  0  0  0  0
   13.9791  -11.2706   26.8240 C   0  0  1  0  0  0  0  0  0  0  0  0
   15.3749  -10.5412   26.6610 C   0  0  1  0  0  0  0  0  0  0  0  0
   16.1250  -10.5687   28.0382 C   0  0  2  0  0  0  0  0  0  0  0  0
   15.7232  -12.4468   24.8879 C   0  0  0  0  0  0  0  0  0  0  0  0
   11.1703  -10.1277   31.8300 N   0  0  0  0  0  0  0  0  0  0  0  0
   16.2142  -11.1922   25.5650 N   0  0  0  0  0  0  0  0  0  0  0  0
   10.7969   -9.2954   29.0173 O   0  0  0  0  0  0  0  0  0  0  0  0
   11.9226  -11.2150   28.2159 O   0  0  0  0  0  0  0  0  0  0  0  0
   15.3383   -9.9507   29.1459 O   0  0  0  0  0  0  0  0  0  0  0  0
   14.1218  -12.6458   27.1832 O   0  0  0  0  0  0  0  0  0  0  0  0
   17.3150   -9.8791   27.9144 O   0  0  0  0  0  0  0  0  0  0  0  0
   18.4135  -10.5134   28.5910 C   0  0  2  0  0  0  0  0  0  0  0  0
   18.3397  -12.0489   28.4116 C   0  0  1  0  0  0  0  0  0  0  0  0
   17.0933  -12.6565   29.1253 C   0  0  2  0  0  0  0  0  0  0  0  0
   17.1471  -12.3070   30.6419 C   0  0  1  0  0  0  0  0  0  0  0  0
   17.1391  -10.7254   30.7510 C   0  0  1  0  0  0  0  0  0  0  0  0
   17.2059  -10.2523   32.2003 C   0  0  0  0  0  0  0  0  0  0  0  0
   15.9565  -12.8870   31.3265 N   0  0  0  0  0  0  0  0  0  0  0  0
   18.3514  -10.1859   30.0392 O   0  0  0  0  0  0  0  0  0  0  0  0
   18.3326  -12.3135   26.9957 O   0  0  0  0  0  0  0  0  0  0  0  0
   17.1233  -14.0584   28.9578 O   0  0  0  0  0  0  0  0  0  0  0  0
   16.4458  -11.1119   33.0079 O   0  0  0  0  0  0  0  0  0  0  0  0
   11.4023   -8.8346   27.8269 C   0  0  1  0  0  0  0  0  0  0  0  0
   10.3041   -8.7662   26.7174 C   0  0  1  0  0  0  0  0  0  0  0  0
   10.9642   -8.2897   25.3907 C   0  0  2  0  0  0  0  0  0  0  0  0
   11.6252   -6.8884   25.5726 C   0  0  1  0  0  0  0  0  0  0  0  0
   12.7272   -6.9451   26.6983 C   0  0  0  0  0  0  0  0  0  0  0  0
   12.0499   -7.4246   28.0486 C   0  0  2  0  0  0  0  0  0  0  0  0
   12.2536   -6.4575   24.2931 N   0  0  0  0  0  0  0  0  0  0  0  0
   13.0903   -7.4713   29.1005 N   0  0  0  0  0  0  0  0  0  0  0  0
    9.7191  -10.0657   26.5117 O   0  0  0  0  0  0  0  0  0  0  0  0
    9.9466   -8.2298   24.4049 O   0  0  0  0  0  0  0  0  0  0  0  0
  1  2  1  0  0  0  0
  1 12  1  6  0  0  0
  1 13  1  0  0  0  0
  2  3  1  0  0  0  0
  2 10  1  1  0  0  0
  4  3  1  1  0  0  0
  4  5  1  0  0  0  0
  4 14  1  0  0  0  0
  5  6  1  0  0  0  0
  5 13  1  1  0  0  0
  6  7  1  0  0  0  0
  6 15  1  1  0  0  0
  7  8  1  0  0  0  0
  7 11  1  6  0  0  0
  8 14  1  0  0  0  0
  8 16  1  6  0  0  0
  9 11  1  0  0  0  0
 17 16  1  6  0  0  0
 17 18  1  0  0  0  0
 17 24  1  0  0  0  0
 18 19  1  0  0  0  0
 18 25  1  6  0  0  0
 19 20  1  0  0  0  0
 19 26  1  1  0  0  0
 20 21  1  0  0  0  0
 20 23  1  1  0  0  0
 21 22  1  1  0  0  0
 21 24  1  0  0  0  0
 22 27  1  0  0  0  0
 28 12  1  1  0  0  0
 28 29  1  0  0  0  0
 28 33  1  0  0  0  0
 29 30  1  0  0  0  0
 29 36  1  6  0  0  0
 30 31  1  0  0  0  0
 30 37  1  6  0  0  0
 31 32  1  0  0  0  0
 31 34  1  6  0  0  0
 32 33  1  0  0  0  0
 33 35  1  1  0  0  0
M  END
>  <CHROM.1>
115.23569645,-5.32883594,-139.23461254,39.62013321,-37.51976064,107.20755156
14.27040948,-10.29992606,28.31607299,2.66587365,0.42346828,-1.43628957

>  <Name>
2oe8_lig

>  <RI>
0

>  <Rbt.Current_Directory>
/home/itssahil/PROJECTS/Mol_Feturizer/New_Systems/rnas/2oe8

>  <Rbt.Executable>
rbdock ($Id: //depot/dev/client3/rdock/2013.1/src/exe/rbdock.cxx#4 $)

>  <Rbt.Library>
libRbt.so (2013.1, Build901 2013/11/27)

>  <Rbt.Parameter_File>
/export/apps/rDock/src/rDock_2013.1_src/data/scripts/dock_solv.prm

>  <Rbt.Receptor>
prm/blind_docking_40.prm

>  <SCORE>
42.9155

>  <SCORE.INTER>
-7.88963

>  <SCORE.INTER.CONST>
1

>  <SCORE.INTER.POLAR>
-2.83307

>  <SCORE.INTER.ROT>
6

>  <SCORE.INTER.SOLV>
26.376

>  <SCORE.INTER.VDW>
-12.2082

>  <SCORE.INTER.norm>
-0.213233

>  <SCORE.INTRA>
24.9382

>  <SCORE.INTRA.DIHEDRAL>
7.23861

>  <SCORE.INTRA.DIHEDRAL.0>
16.4056

>  <SCORE.INTRA.POLAR>
0

>  <SCORE.INTRA.POLAR.0>
0

>  <SCORE.INTRA.REPUL>
0

>  <SCORE.INTRA.REPUL.0>
0

>  <SCORE.INTRA.SOLV>
7.0133

>  <SCORE.INTRA.SOLV.lig_0>
-90.9627

>  <SCORE.INTRA.VDW>
17.8122

>  <SCORE.INTRA.VDW.0>
-3.28744

>  <SCORE.INTRA.norm>
0.674005

>  <SCORE.RESTR>
25.867

>  <SCORE.RESTR.CAVITY>
25.867

>  <SCORE.RESTR.norm>
0.699108

>  <SCORE.SYSTEM>
0

>  <SCORE.SYSTEM.CONST>
0

>  <SCORE.SYSTEM.DIHEDRAL>
0

>  <SCORE.SYSTEM.SOLV>
0

>  <SCORE.SYSTEM.norm>
0

>  <SCORE.heavy>
37

>  <SCORE.norm>
1.15988

>  <RMSD>
26.429

$$$$
2oe8_lig
 OpenBabel11021811463D
libRbt.so/2013.1/901 2013/11/27
 37 40  0  0  0  0  0  0  0  0999 V2000
   15.3558  -12.9478   27.0659 C   0  0  1  0  0  0  0  0  0  0  0  0
   15.1798  -12.2212   25.6786 C   0  0  1  0  0  0  0  0  0  0  0  0
   15.1732  -10.6941   25.8993 C   0  0  0  0  0  0  0  0  0  0  0  0
   13.9718  -10.3993   26.8509 C   0  0  1  0  0  0  0  0  0  0  0  0
   14.1281  -11.1540   28.2693 C   0  0  1  0  0  0  0  0  0  0  0  0
   12.9240  -10.8805   29.2176 C   0  0  1  0  0  0  0  0  0  0  0  0
   12.8309   -9.3130   29.4210 C   0  0  1  0  0  0  0  0  0  0  0  0
   12.7270   -8.6249   28.0155 C   0  0  2  0  0  0  0  0  0  0  0  0
   10.9700   -9.9963   31.1434 C   0  0  0  0  0  0  0  0  0  0  0  0
   16.2928  -12.5905   24.7475 N   0  0  0  0  0  0  0  0  0  0  0  0
   11.6440   -8.9397   30.3049 N   0  0  0  0  0  0  0  0  0  0  0  0
   16.6009  -12.6066   27.6883 O   0  0  0  0  0  0  0  0  0  0  0  0
   14.2583  -12.5953   28.0140 O   0  0  0  0  0  0  0  0  0  0  0  0
   13.8628   -8.9682   27.1100 O   0  0  0  0  0  0  0  0  0  0  0  0
   11.7609  -11.4177   28.5857 O   0  0  0  0  0  0  0  0  0  0  0  0
   12.7084   -7.2548   28.1873 O   0  0  0  0  0  0  0  0  0  0  0  0
   11.7791   -6.5847   27.3189 C   0  0  2  0  0  0  0  0  0  0  0  0
   10.4606   -7.3893   27.2205 C   0  0  1  0  0  0  0  0  0  0  0  0
   10.6714   -8.7626   26.5122 C   0  0  2  0  0  0  0  0  0  0  0  0
   11.2481   -8.5231   25.0856 C   0  0  1  0  0  0  0  0  0  0  0  0
   12.6307   -7.7693   25.2680 C   0  0  1  0  0  0  0  0  0  0  0  0
   13.2940   -7.4601   23.9288 C   0  0  0  0  0  0  0  0  0  0  0  0
   11.4503   -9.8346   24.4063 N   0  0  0  0  0  0  0  0  0  0  0  0
   12.3782   -6.4585   25.9648 O   0  0  0  0  0  0  0  0  0  0  0  0
    9.9547   -7.5455   28.5601 O   0  0  0  0  0  0  0  0  0  0  0  0
    9.4208   -9.4119   26.4180 O   0  0  0  0  0  0  0  0  0  0  0  0
   13.9779   -8.5972   23.4726 O   0  0  0  0  0  0  0  0  0  0  0  0
   16.4616  -11.7428   28.7975 C   0  0  1  0  0  0  0  0  0  0  0  0
   16.4720  -12.6123   30.0957 C   0  0  1  0  0  0  0  0  0  0  0  0
   16.2875  -11.6756   31.3251 C   0  0  2  0  0  0  0  0  0  0  0  0
   17.4270  -10.6120   31.3876 C   0  0  1  0  0  0  0  0  0  0  0  0
   17.4313   -9.7369   30.0765 C   0  0  0  0  0  0  0  0  0  0  0  0
   17.6256  -10.6937   28.8278 C   0  0  2  0  0  0  0  0  0  0  0  0
   17.2253   -9.7259   32.5673 N   0  0  0  0  0  0  0  0  0  0  0  0
   17.6324   -9.8639   27.6020 N   0  0  0  0  0  0  0  0  0  0  0  0
   15.3954  -13.5680   30.0665 O   0  0  0  0  0  0  0  0  0  0  0  0
   16.3076  -12.4875   32.4875 O   0  0  0  0  0  0  0  0  0  0  0  0
  1  2  1  0  0  0  0
  1 12  1  1  0  0  0
  1 13  1  0  0  0  0
  2  3  1  0  0  0  0
  2 10  1  6  0  0  0
  4  3  1  6  0  0  0
  4  5  1  0  0  0  0
  4 14  1  0  0  0  0
  5  6  1  0  0  0  0
  5 13  1  6  0  0  0
  6  7  1  0  0  0  0
  6 15  1  6  0  0  0
  7  8  1  0  0  0  0
  7 11  1  1  0  0  0
  8 14  1  0  0  0  0
  8 16  1  1  0  0  0
  9 11  1  0  0  0  0
 17 16  1  1  0  0  0
 17 18  1  0  0  0  0
 17 24  1  0  0  0  0
 18 19  1  0  0  0  0
 18 25  1  1  0  0  0
 19 20  1  0  0  0  0
 19 26  1  6  0  0  0
 20 21  1  0  0  0  0
 20 23  1  1  0  0  0
 21 22  1  6  0  0  0
 21 24  1  0  0  0  0
 22 27  1  0  0  0  0
 28 12  1  6  0  0  0
 28 29  1  0  0  0  0
 28 33  1  0  0  0  0
 29 30  1  0  0  0  0
 29 36  1  6  0  0  0
 30 31  1  0  0  0  0
 30 37  1  1  0  0  0
 31 32  1  0  0  0  0
 31 34  1  1  0  0  0
 32 33  1  0  0  0  0
 33 35  1  6  0  0  0
M  END
>  <CHROM.1>
107.08481495,16.09603664,-139.47147632,41.04994636,-81.95711067,97.21072319
13.91029473,-10.04409373,27.93543411,-0.59487301,0.59351263,-1.50326420

>  <Name>
2oe8_lig

>  <RI>
0

>  <Rbt.Current_Directory>
/home/itssahil/PROJECTS/Mol_Feturizer/New_Systems/rnas/2oe8

>  <Rbt.Executable>
rbdock ($Id: //depot/dev/client3/rdock/2013.1/src/exe/rbdock.cxx#4 $)

>  <Rbt.Library>
libRbt.so (2013.1, Build901 2013/11/27)

>  <Rbt.Parameter_File>
/export/apps/rDock/src/rDock_2013.1_src/data/scripts/dock_solv.prm

>  <Rbt.Receptor>
prm/blind_docking_40.prm

>  <SCORE>
57.5686

>  <SCORE.INTER>
6.89572

>  <SCORE.INTER.CONST>
1

>  <SCORE.INTER.POLAR>
-0.368193

>  <SCORE.INTER.ROT>
6

>  <SCORE.INTER.SOLV>
29.649

>  <SCORE.INTER.VDW>
-11.6585

>  <SCORE.INTER.norm>
0.186371

>  <SCORE.INTRA>
22.7681

>  <SCORE.INTRA.DIHEDRAL>
4.56487

>  <SCORE.INTRA.DIHEDRAL.0>
16.4056

>  <SCORE.INTRA.POLAR>
0

>  <SCORE.INTRA.POLAR.0>
0

>  <SCORE.INTRA.REPUL>
0

>  <SCORE.INTRA.REPUL.0>
0

>  <SCORE.INTRA.SOLV>
5.82806

>  <SCORE.INTRA.SOLV.lig_0>
-90.9627

>  <SCORE.INTRA.VDW>
17.5716

>  <SCORE.INTRA.VDW.0>
-3.28744

>  <SCORE.INTRA.norm>
0.615354

>  <SCORE.RESTR>
27.9048

>  <SCORE.RESTR.CAVITY>
27.9048

>  <SCORE.RESTR.norm>
0.754184

>  <SCORE.SYSTEM>
0

>  <SCORE.SYSTEM.CONST>
0

>  <SCORE.SYSTEM.DIHEDRAL>
0

>  <SCORE.SYSTEM.SOLV>
0

>  <SCORE.SYSTEM.norm>
0

>  <SCORE.heavy>
37

>  <SCORE.norm>
1.55591

>  <RMSD>
26.458

$$$$
2oe8_lig
 OpenBabel11021811463D
libRbt.so/2013.1/901 2013/11/27
 37 40  0  0  0  0  0  0  0  0999 V2000
   11.2046  -10.4785   29.5864 C   0  0  1  0  0  0  0  0  0  0  0  0
   12.0897  -10.7430   30.8632 C   0  0  1  0  0  0  0  0  0  0  0  0
   13.4433  -10.0196   30.7050 C   0  0  0  0  0  0  0  0  0  0  0  0
   14.1048  -10.6146   29.4227 C   0  0  1  0  0  0  0  0  0  0  0  0
   13.1992  -10.3694   28.1090 C   0  0  1  0  0  0  0  0  0  0  0  0
   13.8431  -10.9769   26.8282 C   0  0  1  0  0  0  0  0  0  0  0  0
   15.2713  -10.3146   26.6592 C   0  0  1  0  0  0  0  0  0  0  0  0
   16.0935  -10.5403   27.9756 C   0  0  2  0  0  0  0  0  0  0  0  0
   16.0501  -12.3757   25.2303 C   0  0  0  0  0  0  0  0  0  0  0  0
   11.3958  -10.2487   32.0947 N   0  0  0  0  0  0  0  0  0  0  0  0
   16.0051  -10.8843   25.4483 N   0  0  0  0  0  0  0  0  0  0  0  0
   10.9201   -9.0839   29.4188 O   0  0  0  0  0  0  0  0  0  0  0  0
   11.8749  -10.9617   28.3435 O   0  0  0  0  0  0  0  0  0  0  0  0
   15.4106  -10.0076   29.1912 O   0  0  0  0  0  0  0  0  0  0  0  0
   13.9177  -12.3898   27.0251 O   0  0  0  0  0  0  0  0  0  0  0  0
   17.3163   -9.9102   27.8541 O   0  0  0  0  0  0  0  0  0  0  0  0
   18.3789  -10.5920   28.5417 C   0  0  2  0  0  0  0  0  0  0  0  0
   18.2152  -12.1243   28.3974 C   0  0  1  0  0  0  0  0  0  0  0  0
   16.9385  -12.6420   29.1283 C   0  0  2  0  0  0  0  0  0  0  0  0
   17.0191  -12.2621   30.6364 C   0  0  1  0  0  0  0  0  0  0  0  0
   17.1035  -10.6808   30.7096 C   0  0  1  0  0  0  0  0  0  0  0  0
   17.2039  -10.1798   32.1476 C   0  0  0  0  0  0  0  0  0  0  0  0
   15.7997  -12.7562   31.3375 N   0  0  0  0  0  0  0  0  0  0  0  0
   18.3421  -10.2289   29.9822 O   0  0  0  0  0  0  0  0  0  0  0  0
   18.1867  -12.4198   26.9879 O   0  0  0  0  0  0  0  0  0  0  0  0
   16.8862  -14.0467   28.9927 O   0  0  0  0  0  0  0  0  0  0  0  0
   18.4402  -10.5620   32.6903 O   0  0  0  0  0  0  0  0  0  0  0  0
   10.5731   -8.7318   28.0954 C   0  0  1  0  0  0  0  0  0  0  0  0
   11.8674   -8.2491   27.3650 C   0  0  1  0  0  0  0  0  0  0  0  0
   11.4936   -7.8277   25.9139 C   0  0  2  0  0  0  0  0  0  0  0  0
   10.8575   -9.0212   25.1365 C   0  0  1  0  0  0  0  0  0  0  0  0
    9.5567   -9.5225   25.8724 C   0  0  0  0  0  0  0  0  0  0  0  0
    9.9427   -9.9563   27.3472 C   0  0  2  0  0  0  0  0  0  0  0  0
   10.5041   -8.5919   23.7550 N   0  0  0  0  0  0  0  0  0  0  0  0
    8.7169  -10.4290   28.0294 N   0  0  0  0  0  0  0  0  0  0  0  0
   12.4371   -7.1187   28.0512 O   0  0  0  0  0  0  0  0  0  0  0  0
   12.6845   -7.4014   25.2728 O   0  0  0  0  0  0  0  0  0  0  0  0
  1  2  1  0  0  0  0
  1 12  1  6  0  0  0
  1 13  1  0  0  0  0
  2  3  1  0  0  0  0
  2 10  1  1  0  0  0
  4  3  1  1  0  0  0
  4  5  1  0  0  0  0
  4 14  1  0  0  0  0
  5  6  1  0  0  0  0
  5 13  1  1  0  0  0
  6  7  1  0  0  0  0
  6 15  1  1  0  0  0
  7  8  1  0  0  0  0
  7 11  1  6  0  0  0
  8 14  1  0  0  0  0
  8 16  1  6  0  0  0
  9 11  1  0  0  0  0
 17 16  1  6  0  0  0
 17 18  1  0  0  0  0
 17 24  1  0  0  0  0
 18 19  1  0  0  0  0
 18 25  1  6  0  0  0
 19 20  1  0  0  0  0
 19 26  1  1  0  0  0
 20 21  1  0  0  0  0
 20 23  1  1  0  0  0
 21 22  1  1  0  0  0
 21 24  1  0  0  0  0
 22 27  1  0  0  0  0
 28 12  1  1  0  0  0
 28 29  1  0  0  0  0
 28 33  1  0  0  0  0
 29 30  1  0  0  0  0
 29 36  1  1  0  0  0
 30 31  1  0  0  0  0
 30 37  1  6  0  0  0
 31 32  1  0  0  0  0
 31 34  1  6  0  0  0
 32 33  1  0  0  0  0
 33 35  1  1  0  0  0
M  END
>  <CHROM.1>
158.23744156,-46.93331948,-147.02529334,38.44754853,67.71623559,-94.35178054
14.19198775,-10.41643351,28.35902897,2.74214473,0.32045119,-1.50292322

>  <Name>
2oe8_lig

>  <RI>
0

>  <Rbt.Current_Directory>
/home/itssahil/PROJECTS/Mol_Feturizer/New_Systems/rnas/2oe8

>  <Rbt.Executable>
rbdock ($Id: //depot/dev/client3/rdock/2013.1/src/exe/rbdock.cxx#4 $)

>  <Rbt.Library>
libRbt.so (2013.1, Build901 2013/11/27)

>  <Rbt.Parameter_File>
/export/apps/rDock/src/rDock_2013.1_src/data/scripts/dock_solv.prm

>  <Rbt.Receptor>
prm/blind_docking_40.prm

>  <SCORE>
51.077

>  <SCORE.INTER>
-1.17027

>  <SCORE.INTER.CONST>
1

>  <SCORE.INTER.POLAR>
-2.208

>  <SCORE.INTER.ROT>
6

>  <SCORE.INTER.SOLV>
18.6836

>  <SCORE.INTER.VDW>
-7.24802

>  <SCORE.INTER.norm>
-0.0316289

>  <SCORE.INTRA>
24.2889

>  <SCORE.INTRA.DIHEDRAL>
-3.32671

>  <SCORE.INTRA.DIHEDRAL.0>
16.4056

>  <SCORE.INTRA.POLAR>
0

>  <SCORE.INTRA.POLAR.0>
0

>  <SCORE.INTRA.REPUL>
0

>  <SCORE.INTRA.REPUL.0>
0

>  <SCORE.INTRA.SOLV>
4.53089

>  <SCORE.INTRA.SOLV.lig_0>
-90.9627

>  <SCORE.INTRA.VDW>
23.6869

>  <SCORE.INTRA.VDW.0>
-3.28744

>  <SCORE.INTRA.norm>
0.656458

>  <SCORE.RESTR>
27.9583

>  <SCORE.RESTR.CAVITY>
27.9583

>  <SCORE.RESTR.norm>
0.755631

>  <SCORE.SYSTEM>
0

>  <SCORE.SYSTEM.CONST>
0

>  <SCORE.SYSTEM.DIHEDRAL>
0

>  <SCORE.SYSTEM.SOLV>
0

>  <SCORE.SYSTEM.norm>
0

>  <SCORE.heavy>
37

>  <SCORE.norm>
1.38046

>  <RMSD>
26.473

$$$$
2oe8_lig
 OpenBabel11021811463D
libRbt.so/2013.1/901 2013/11/27
 37 40  0  0  0  0  0  0  0  0999 V2000
   10.6525   -9.2913   29.3672 C   0  0  1  0  0  0  0  0  0  0  0  0
   11.0313  -10.3162   30.5028 C   0  0  1  0  0  0  0  0  0  0  0  0
   12.5462  -10.6033   30.4469 C   0  0  0  0  0  0  0  0  0  0  0  0
   12.8222  -11.1980   29.0306 C   0  0  1  0  0  0  0  0  0  0  0  0
   12.4195  -10.1667   27.8557 C   0  0  1  0  0  0  0  0  0  0  0  0
   12.6739  -10.7597   26.4389 C   0  0  1  0  0  0  0  0  0  0  0  0
   14.2092  -11.1375   26.3548 C   0  0  1  0  0  0  0  0  0  0  0  0
   14.5595  -12.1020   27.5409 C   0  0  2  0  0  0  0  0  0  0  0  0
   14.4700  -10.9522   23.7482 C   0  0  0  0  0  0  0  0  0  0  0  0
   10.6727   -9.7653   31.8482 N   0  0  0  0  0  0  0  0  0  0  0  0
   14.5491  -11.7741   25.0099 N   0  0  0  0  0  0  0  0  0  0  0  0
   11.3257   -8.0377   29.5390 O   0  0  0  0  0  0  0  0  0  0  0  0
   11.0011   -9.8165   28.0143 O   0  0  0  0  0  0  0  0  0  0  0  0
   14.2352  -11.5262   28.8792 O   0  0  0  0  0  0  0  0  0  0  0  0
   11.8242  -11.8999   26.3018 O   0  0  0  0  0  0  0  0  0  0  0  0
   15.9110  -12.3832   27.5059 O   0  0  0  0  0  0  0  0  0  0  0  0
   16.7385  -11.2306   27.7377 C   0  0  2  0  0  0  0  0  0  0  0  0
   18.2344  -11.6149   27.6375 C   0  0  1  0  0  0  0  0  0  0  0  0
   18.6611  -12.5859   28.7808 C   0  0  2  0  0  0  0  0  0  0  0  0
   18.3827  -11.9137   30.1577 C   0  0  1  0  0  0  0  0  0  0  0  0
   16.8257  -11.6229   30.2223 C   0  0  1  0  0  0  0  0  0  0  0  0
   16.4249  -10.9439   31.5289 C   0  0  0  0  0  0  0  0  0  0  0  0
   18.7901  -12.8400   31.2525 N   0  0  0  0  0  0  0  0  0  0  0  0
   16.4607  -10.6934   29.0952 O   0  0  0  0  0  0  0  0  0  0  0  0
   18.4403  -12.1930   26.3343 O   0  0  0  0  0  0  0  0  0  0  0  0
   20.0423  -12.8492   28.6495 O   0  0  0  0  0  0  0  0  0  0  0  0
   16.5491   -9.5530   31.3899 O   0  0  0  0  0  0  0  0  0  0  0  0
   11.8936   -7.5320   28.3484 C   0  0  1  0  0  0  0  0  0  0  0  0
   13.1458   -8.3993   27.9999 C   0  0  1  0  0  0  0  0  0  0  0  0
   13.8004   -7.8331   26.7061 C   0  0  2  0  0  0  0  0  0  0  0  0
   12.7897   -7.8556   25.5179 C   0  0  1  0  0  0  0  0  0  0  0  0
   11.5176   -6.9920   25.8651 C   0  0  0  0  0  0  0  0  0  0  0  0
   10.8506   -7.5756   27.1792 C   0  0  2  0  0  0  0  0  0  0  0  0
   13.4370   -7.3048   24.2951 N   0  0  0  0  0  0  0  0  0  0  0  0
    9.6554   -6.7617   27.4957 N   0  0  0  0  0  0  0  0  0  0  0  0
   14.1042   -8.3483   29.0732 O   0  0  0  0  0  0  0  0  0  0  0  0
   14.9275   -8.6407   26.4091 O   0  0  0  0  0  0  0  0  0  0  0  0
  1  2  1  0  0  0  0
  1 12  1  1  0  0  0
  1 13  1  0  0  0  0
  2  3  1  0  0  0  0
  2 10  1  1  0  0  0
  4  3  1  1  0  0  0
  4  5  1  0  0  0  0
  4 14  1  0  0  0  0
  5  6  1  0  0  0  0
  5 13  1  6  0  0  0
  6  7  1  0  0  0  0
  6 15  1  1  0  0  0
  7  8  1  0  0  0  0
  7 11  1  6  0  0  0
  8 14  1  0  0  0  0
  8 16  1  1  0  0  0
  9 11  1  0  0  0  0
 17 16  1  1  0  0  0
 17 18  1  0  0  0  0
 17 24  1  0  0  0  0
 18 19  1  0  0  0  0
 18 25  1  6  0  0  0
 19 20  1  0  0  0  0
 19 26  1  6  0  0  0
 20 21  1  0  0  0  0
 20 23  1  1  0  0  0
 21 22  1  1  0  0  0
 21 24  1  0  0  0  0
 22 27  1  0  0  0  0
 28 12  1  1  0  0  0
 28 29  1  0  0  0  0
 28 33  1  0  0  0  0
 29 30  1  0  0  0  0
 29 36  1  1  0  0  0
 30 31  1  0  0  0  0
 30 37  1  6  0  0  0
 31 32  1  0  0  0  0
 31 34  1  6  0  0  0
 32 33  1  0  0  0  0
 33 35  1  1  0  0  0
M  END
>  <CHROM.1>
134.37758669,66.91102344,64.70451637,-178.15769499,87.78282701,-72.58084592
14.26780335,-10.20577654,28.10977971,2.91301251,0.48804816,-1.46701111

>  <Name>
2oe8_lig

>  <RI>
0

>  <Rbt.Current_Directory>
/home/itssahil/PROJECTS/Mol_Feturizer/New_Systems/rnas/2oe8

>  <Rbt.Executable>
rbdock ($Id: //depot/dev/client3/rdock/2013.1/src/exe/rbdock.cxx#4 $)

>  <Rbt.Library>
libRbt.so (2013.1, Build901 2013/11/27)

>  <Rbt.Parameter_File>
/export/apps/rDock/src/rDock_2013.1_src/data/scripts/dock_solv.prm

>  <Rbt.Receptor>
prm/blind_docking_40.prm

>  <SCORE>
62.4448

>  <SCORE.INTER>
11.2857

>  <SCORE.INTER.CONST>
1

>  <SCORE.INTER.POLAR>
-0.0481074

>  <SCORE.INTER.ROT>
6

>  <SCORE.INTER.SOLV>
22.4395

>  <SCORE.INTER.VDW>
-7.39571

>  <SCORE.INTER.norm>
0.305018

>  <SCORE.INTRA>
26.2745

>  <SCORE.INTRA.DIHEDRAL>
-6.91022

>  <SCORE.INTRA.DIHEDRAL.0>
16.4056

>  <SCORE.INTRA.POLAR>
0

>  <SCORE.INTRA.POLAR.0>
0

>  <SCORE.INTRA.REPUL>
0

>  <SCORE.INTRA.REPUL.0>
0

>  <SCORE.INTRA.SOLV>
3.93333

>  <SCORE.INTRA.SOLV.lig_0>
-90.9627

>  <SCORE.INTRA.VDW>
27.7629

>  <SCORE.INTRA.VDW.0>
-3.28744

>  <SCORE.INTRA.norm>
0.71012

>  <SCORE.RESTR>
24.8846

>  <SCORE.RESTR.CAVITY>
24.8846

>  <SCORE.RESTR.norm>
0.672557

>  <SCORE.SYSTEM>
0

>  <SCORE.SYSTEM.CONST>
0

>  <SCORE.SYSTEM.DIHEDRAL>
0

>  <SCORE.SYSTEM.SOLV>
0

>  <SCORE.SYSTEM.norm>
0

>  <SCORE.heavy>
37

>  <SCORE.norm>
1.6877

>  <RMSD>
26.537

$$$$
2oe8_lig
 OpenBabel11021811463D
libRbt.so/2013.1/901 2013/11/27
 37 40  0  0  0  0  0  0  0  0999 V2000
   11.4491   -9.9612   28.6897 C   0  0  1  0  0  0  0  0  0  0  0  0
   11.6172  -11.0978   29.7682 C   0  0  1  0  0  0  0  0  0  0  0  0
   13.1189  -11.3278   30.0378 C   0  0  0  0  0  0  0  0  0  0  0  0
   13.7452  -11.7455   28.6706 C   0  0  1  0  0  0  0  0  0  0  0  0
   13.5623  -10.5987   27.5492 C   0  0  1  0  0  0  0  0  0  0  0  0
   14.1676  -11.0155   26.1767 C   0  0  1  0  0  0  0  0  0  0  0  0
   15.7008  -11.3315   26.4142 C   0  0  1  0  0  0  0  0  0  0  0  0
   15.8263  -12.4149   27.5412 C   0  0  2  0  0  0  0  0  0  0  0  0
   16.2736  -13.2413   24.7051 C   0  0  0  0  0  0  0  0  0  0  0  0
   10.9294  -10.7180   31.0429 N   0  0  0  0  0  0  0  0  0  0  0  0
   16.3753  -11.7971   25.1266 N   0  0  0  0  0  0  0  0  0  0  0  0
   11.9913   -8.7150   29.1446 O   0  0  0  0  0  0  0  0  0  0  0  0
   12.1274  -10.3150   27.4081 O   0  0  0  0  0  0  0  0  0  0  0  0
   15.1720  -12.0084   28.8197 O   0  0  0  0  0  0  0  0  0  0  0  0
   13.4393  -12.1589   25.7260 O   0  0  0  0  0  0  0  0  0  0  0  0
   17.1641  -12.6466   27.7935 O   0  0  0  0  0  0  0  0  0  0  0  0
   17.9400  -11.4412   27.9018 C   0  0  2  0  0  0  0  0  0  0  0  0
   19.2260  -11.7027   28.7225 C   0  0  1  0  0  0  0  0  0  0  0  0
   18.9047  -12.0452   30.2096 C   0  0  2  0  0  0  0  0  0  0  0  0
   18.1046  -10.8711   30.8471 C   0  0  1  0  0  0  0  0  0  0  0  0
   16.7689  -10.7141   30.0076 C   0  0  1  0  0  0  0  0  0  0  0  0
   15.8975   -9.5745   30.5280 C   0  0  0  0  0  0  0  0  0  0  0  0
   17.7963  -11.1961   32.2690 N   0  0  0  0  0  0  0  0  0  0  0  0
   17.1297  -10.3967   28.5806 O   0  0  0  0  0  0  0  0  0  0  0  0
   19.9420  -12.7667   28.0667 O   0  0  0  0  0  0  0  0  0  0  0  0
   20.1241  -12.2211   30.8998 O   0  0  0  0  0  0  0  0  0  0  0  0
   14.9443   -9.2340   29.5562 O   0  0  0  0  0  0  0  0  0  0  0  0
   11.8089   -7.6514   28.2328 C   0  0  1  0  0  0  0  0  0  0  0  0
   12.6811   -7.9392   26.9687 C   0  0  1  0  0  0  0  0  0  0  0  0
   12.5140   -6.7587   25.9679 C   0  0  2  0  0  0  0  0  0  0  0  0
   11.0191   -6.5888   25.5558 C   0  0  1  0  0  0  0  0  0  0  0  0
   10.1294   -6.3091   26.8266 C   0  0  0  0  0  0  0  0  0  0  0  0
   10.2975   -7.5161   27.8400 C   0  0  2  0  0  0  0  0  0  0  0  0
   10.8848   -5.4515   24.6038 N   0  0  0  0  0  0  0  0  0  0  0  0
    9.4563   -7.2473   29.0280 N   0  0  0  0  0  0  0  0  0  0  0  0
   14.0691   -8.0535   27.3340 O   0  0  0  0  0  0  0  0  0  0  0  0
   13.3087   -7.0480   24.8296 O   0  0  0  0  0  0  0  0  0  0  0  0
  1  2  1  0  0  0  0
  1 12  1  1  0  0  0
  1 13  1  0  0  0  0
  2  3  1  0  0  0  0
  2 10  1  1  0  0  0
  4  3  1  1  0  0  0
  4  5  1  0  0  0  0
  4 14  1  0  0  0  0
  5  6  1  0  0  0  0
  5 13  1  6  0  0  0
  6  7  1  0  0  0  0
  6 15  1  1  0  0  0
  7  8  1  0  0  0  0
  7 11  1  6  0  0  0
  8 14  1  0  0  0  0
  8 16  1  1  0  0  0
  9 11  1  0  0  0  0
 17 16  1  1  0  0  0
 17 18  1  0  0  0  0
 17 24  1  0  0  0  0
 18 19  1  0  0  0  0
 18 25  1  6  0  0  0
 19 20  1  0  0  0  0
 19 26  1  1  0  0  0
 20 21  1  0  0  0  0
 20 23  1  1  0  0  0
 21 22  1  1  0  0  0
 21 24  1  0  0  0  0
 22 27  1  0  0  0  0
 28 12  1  1  0  0  0
 28 29  1  0  0  0  0
 28 33  1  0  0  0  0
 29 30  1  0  0  0  0
 29 36  1  1  0  0  0
 30 31  1  0  0  0  0
 30 37  1  6  0  0  0
 31 32  1  0  0  0  0
 31 34  1  6  0  0  0
 32 33  1  0  0  0  0
 33 35  1  1  0  0  0
M  END
>  <CHROM.1>
-177.31964802,-83.13546804,45.34756810,156.99027416,163.51217792,-67.68079925
14.51932187,-10.12678760,28.08281233,2.85623808,0.54477700,-1.49490445

>  <Name>
2oe8_lig

>  <RI>
0

>  <Rbt.Current_Directory>
/home/itssahil/PROJECTS/Mol_Feturizer/New_Systems/rnas/2oe8

>  <Rbt.Executable>
rbdock ($Id: //depot/dev/client3/rdock/2013.1/src/exe/rbdock.cxx#4 $)

>  <Rbt.Library>
libRbt.so (2013.1, Build901 2013/11/27)

>  <Rbt.Parameter_File>
/export/apps/rDock/src/rDock_2013.1_src/data/scripts/dock_solv.prm

>  <Rbt.Receptor>
prm/blind_docking_40.prm

>  <SCORE>
42.3417

>  <SCORE.INTER>
2.98741

>  <SCORE.INTER.CONST>
1

>  <SCORE.INTER.POLAR>
-0.915624

>  <SCORE.INTER.ROT>
6

>  <SCORE.INTER.SOLV>
19.7405

>  <SCORE.INTER.VDW>
-9.13648

>  <SCORE.INTER.norm>
0.0807408

>  <SCORE.INTRA>
11.3859

>  <SCORE.INTRA.DIHEDRAL>
-11.3855

>  <SCORE.INTRA.DIHEDRAL.0>
16.4056

>  <SCORE.INTRA.POLAR>
0

>  <SCORE.INTRA.POLAR.0>
0

>  <SCORE.INTRA.REPUL>
0.586013

>  <SCORE.INTRA.REPUL.0>
0

>  <SCORE.INTRA.SOLV>
1.61598

>  <SCORE.INTRA.SOLV.lig_0>
-90.9627

>  <SCORE.INTRA.VDW>
13.3406

>  <SCORE.INTRA.VDW.0>
-3.28744

>  <SCORE.INTRA.norm>
0.307726

>  <SCORE.RESTR>
27.9685

>  <SCORE.RESTR.CAVITY>
27.9685

>  <SCORE.RESTR.norm>
0.755904

>  <SCORE.SYSTEM>
0

>  <SCORE.SYSTEM.CONST>
0

>  <SCORE.SYSTEM.DIHEDRAL>
0

>  <SCORE.SYSTEM.SOLV>
0

>  <SCORE.SYSTEM.norm>
0

>  <SCORE.heavy>
37

>  <SCORE.norm>
1.14437

>  <RMSD>
26.549

$$$$
2oe8_lig
 OpenBabel11021811463D
libRbt.so/2013.1/901 2013/11/27
 37 40  0  0  0  0  0  0  0  0999 V2000
   11.1222  -10.5704   29.3328 C   0  0  1  0  0  0  0  0  0  0  0  0
   12.0350  -10.6893   30.6119 C   0  0  1  0  0  0  0  0  0  0  0  0
   13.3518   -9.9216   30.3726 C   0  0  0  0  0  0  0  0  0  0  0  0
   14.0232  -10.5898   29.1321 C   0  0  1  0  0  0  0  0  0  0  0  0
   13.0902  -10.4941   27.8182 C   0  0  1  0  0  0  0  0  0  0  0  0
   13.7446  -11.1753   26.5805 C   0  0  1  0  0  0  0  0  0  0  0  0
   15.1385  -10.4660   26.3343 C   0  0  1  0  0  0  0  0  0  0  0  0
   15.9874  -10.5459   27.6507 C   0  0  2  0  0  0  0  0  0  0  0  0
   15.5017  -10.7393   23.7478 C   0  0  0  0  0  0  0  0  0  0  0  0
   11.3353  -10.1270   31.8104 N   0  0  0  0  0  0  0  0  0  0  0  0
   15.8819  -11.1000   25.1617 N   0  0  0  0  0  0  0  0  0  0  0  0
   10.7718   -9.2084   29.0568 O   0  0  0  0  0  0  0  0  0  0  0  0
   11.7977  -11.1236   28.1223 O   0  0  0  0  0  0  0  0  0  0  0  0
   15.2966   -9.9461   28.8301 O   0  0  0  0  0  0  0  0  0  0  0  0
   13.8865  -12.5625   26.8906 O   0  0  0  0  0  0  0  0  0  0  0  0
   17.1782   -9.8738   27.4578 O   0  0  0  0  0  0  0  0  0  0  0  0
   18.2997  -10.5081   28.0957 C   0  0  2  0  0  0  0  0  0  0  0  0
   18.2255  -12.0429   27.9098 C   0  0  1  0  0  0  0  0  0  0  0  0
   17.0041  -12.6589   28.6587 C   0  0  2  0  0  0  0  0  0  0  0  0
   17.1045  -12.3179   30.1749 C   0  0  1  0  0  0  0  0  0  0  0  0
   17.0945  -10.7371   30.2934 C   0  0  1  0  0  0  0  0  0  0  0  0
   17.2053  -10.2720   31.7427 C   0  0  0  0  0  0  0  0  0  0  0  0
   15.9380  -12.9061   30.8932 N   0  0  0  0  0  0  0  0  0  0  0  0
   18.2820  -10.1891   29.5471 O   0  0  0  0  0  0  0  0  0  0  0  0
   18.1747  -12.2993   26.4932 O   0  0  0  0  0  0  0  0  0  0  0  0
   17.0336  -14.0598   28.4822 O   0  0  0  0  0  0  0  0  0  0  0  0
   16.4962  -11.1544   32.5720 O   0  0  0  0  0  0  0  0  0  0  0  0
   11.3154   -8.7174   27.8489 C   0  0  1  0  0  0  0  0  0  0  0  0
   10.1492   -8.5524   26.8220 C   0  0  1  0  0  0  0  0  0  0  0  0
   10.7390   -8.0415   25.4751 C   0  0  2  0  0  0  0  0  0  0  0  0
   11.4714   -6.6783   25.6723 C   0  0  1  0  0  0  0  0  0  0  0  0
   12.6430   -6.8325   26.7156 C   0  0  0  0  0  0  0  0  0  0  0  0
   12.0375   -7.3468   28.0871 C   0  0  2  0  0  0  0  0  0  0  0  0
   12.0307   -6.2139   24.3726 N   0  0  0  0  0  0  0  0  0  0  0  0
   13.1432   -7.4850   29.0615 N   0  0  0  0  0  0  0  0  0  0  0  0
    9.4954   -9.8160   26.6002 O   0  0  0  0  0  0  0  0  0  0  0  0
    9.6612   -7.8942   24.5655 O   0  0  0  0  0  0  0  0  0  0  0  0
  1  2  1  0  0  0  0
  1 12  1  6  0  0  0
  1 13  1  0  0  0  0
  2  3  1  0  0  0  0
  2 10  1  1  0  0  0
  4  3  1  1  0  0  0
  4  5  1  0  0  0  0
  4 14  1  0  0  0  0
  5  6  1  0  0  0  0
  5 13  1  1  0  0  0
  6  7  1  0  0  0  0
  6 15  1  1  0  0  0
  7  8  1  0  0  0  0
  7 11  1  6  0  0  0
  8 14  1  0  0  0  0
  8 16  1  6  0  0  0
  9 11  1  0  0  0  0
 17 16  1  6  0  0  0
 17 18  1  0  0  0  0
 17 24  1  0  0  0  0
 18 19  1  0  0  0  0
 18 25  1  6  0  0  0
 19 20  1  0  0  0  0
 19 26  1  1  0  0  0
 20 21  1  0  0  0  0
 20 23  1  1  0  0  0
 21 22  1  1  0  0  0
 21 24  1  0  0  0  0
 22 27  1  0  0  0  0
 28 12  1  1  0  0  0
 28 29  1  0  0  0  0
 28 33  1  0  0  0  0
 29 30  1  0  0  0  0
 29 36  1  6  0  0  0
 30 31  1  0  0  0  0
 30 37  1  6  0  0  0
 31 32  1  0  0  0  0
 31 34  1  6  0  0  0
 32 33  1  0  0  0  0
 33 35  1  1  0  0  0
M  END
>  <CHROM.1>
114.21879331,79.34152735,-142.44412059,41.56612537,-36.33888796,109.07069094
14.16925731,-10.18461700,28.07322004,2.69658137,0.42192024,-1.36946997

>  <Name>
2oe8_lig

>  <RI>
0

>  <Rbt.Current_Directory>
/home/itssahil/PROJECTS/Mol_Feturizer/New_Systems/rnas/2oe8

>  <Rbt.Executable>
rbdock ($Id: //depot/dev/client3/rdock/2013.1/src/exe/rbdock.cxx#4 $)

>  <Rbt.Library>
libRbt.so (2013.1, Build901 2013/11/27)

>  <Rbt.Parameter_File>
/export/apps/rDock/src/rDock_2013.1_src/data/scripts/dock_solv.prm

>  <Rbt.Receptor>
prm/blind_docking_40.prm

>  <SCORE>
45.8636

>  <SCORE.INTER>
-2.86931

>  <SCORE.INTER.CONST>
1

>  <SCORE.INTER.POLAR>
-2.25192

>  <SCORE.INTER.ROT>
6

>  <SCORE.INTER.SOLV>
26.3256

>  <SCORE.INTER.VDW>
-10.7817

>  <SCORE.INTER.norm>
-0.0775488

>  <SCORE.INTRA>
22.8526

>  <SCORE.INTRA.DIHEDRAL>
5.80828

>  <SCORE.INTRA.DIHEDRAL.0>
16.4056

>  <SCORE.INTRA.POLAR>
0

>  <SCORE.INTRA.POLAR.0>
0

>  <SCORE.INTRA.REPUL>
0

>  <SCORE.INTRA.REPUL.0>
0

>  <SCORE.INTRA.SOLV>
7.14879

>  <SCORE.INTRA.SOLV.lig_0>
-90.9627

>  <SCORE.INTRA.VDW>
16.3741

>  <SCORE.INTRA.VDW.0>
-3.28744

>  <SCORE.INTRA.norm>
0.617638

>  <SCORE.RESTR>
25.8803

>  <SCORE.RESTR.CAVITY>
25.8803

>  <SCORE.RESTR.norm>
0.699467

>  <SCORE.SYSTEM>
0

>  <SCORE.SYSTEM.CONST>
0

>  <SCORE.SYSTEM.DIHEDRAL>
0

>  <SCORE.SYSTEM.SOLV>
0

>  <SCORE.SYSTEM.norm>
0

>  <SCORE.heavy>
37

>  <SCORE.norm>
1.23956

>  <RMSD>
26.590

$$$$
2oe8_lig
 OpenBabel11021811463D
libRbt.so/2013.1/901 2013/11/27
 37 40  0  0  0  0  0  0  0  0999 V2000
   11.0745  -10.4704   29.4140 C   0  0  1  0  0  0  0  0  0  0  0  0
   12.0030  -10.6611   30.6729 C   0  0  1  0  0  0  0  0  0  0  0  0
   13.3478   -9.9452   30.4287 C   0  0  0  0  0  0  0  0  0  0  0  0
   13.9681  -10.6101   29.1602 C   0  0  1  0  0  0  0  0  0  0  0  0
   13.0178  -10.4408   27.8662 C   0  0  1  0  0  0  0  0  0  0  0  0
   13.6205  -11.1180   26.6004 C   0  0  1  0  0  0  0  0  0  0  0  0
   15.0397  -10.4636   26.3464 C   0  0  1  0  0  0  0  0  0  0  0  0
   15.9066  -10.6135   27.6448 C   0  0  2  0  0  0  0  0  0  0  0  0
   15.2556  -10.7889   23.7494 C   0  0  0  0  0  0  0  0  0  0  0  0
   11.3491  -10.0997   31.8975 N   0  0  0  0  0  0  0  0  0  0  0  0
   15.7345  -11.0992   25.1452 N   0  0  0  0  0  0  0  0  0  0  0  0
   10.7793   -9.0880   29.1781 O   0  0  0  0  0  0  0  0  0  0  0  0
   11.7044  -11.0214   28.1781 O   0  0  0  0  0  0  0  0  0  0  0  0
   15.2630  -10.0146   28.8510 O   0  0  0  0  0  0  0  0  0  0  0  0
   13.7070  -12.5175   26.8736 O   0  0  0  0  0  0  0  0  0  0  0  0
   17.1222   -9.9889   27.4468 O   0  0  0  0  0  0  0  0  0  0  0  0
   18.2304  -10.7065   28.0161 C   0  0  2  0  0  0  0  0  0  0  0  0
   18.1660  -12.1998   27.6144 C   0  0  1  0  0  0  0  0  0  0  0  0
   16.9293  -12.9152   28.2397 C   0  0  2  0  0  0  0  0  0  0  0  0
   16.9923  -12.7908   29.7908 C   0  0  1  0  0  0  0  0  0  0  0  0
   16.9740  -11.2424   30.1301 C   0  0  1  0  0  0  0  0  0  0  0  0
   17.0486  -10.9857   31.6326 C   0  0  0  0  0  0  0  0  0  0  0  0
   15.8111  -13.4743   30.3909 N   0  0  0  0  0  0  0  0  0  0  0  0
   18.1771  -10.5948   29.4970 O   0  0  0  0  0  0  0  0  0  0  0  0
   18.1498  -12.2545   26.1751 O   0  0  0  0  0  0  0  0  0  0  0  0
   16.9678  -14.2773   27.8688 O   0  0  0  0  0  0  0  0  0  0  0  0
   18.0139  -10.0005   31.8909 O   0  0  0  0  0  0  0  0  0  0  0  0
   11.2383   -8.6161   27.9281 C   0  0  1  0  0  0  0  0  0  0  0  0
    9.9922   -8.2677   27.0521 C   0  0  1  0  0  0  0  0  0  0  0  0
   10.4832   -7.7759   25.6593 C   0  0  2  0  0  0  0  0  0  0  0  0
   11.3987   -6.5213   25.8056 C   0  0  1  0  0  0  0  0  0  0  0  0
   12.6534   -6.8603   26.6975 C   0  0  0  0  0  0  0  0  0  0  0  0
   12.1492   -7.3546   28.1165 C   0  0  2  0  0  0  0  0  0  0  0  0
   11.8593   -6.0739   24.4619 N   0  0  0  0  0  0  0  0  0  0  0  0
   13.3331   -7.6670   28.9485 N   0  0  0  0  0  0  0  0  0  0  0  0
    9.1639   -9.4321   26.8748 O   0  0  0  0  0  0  0  0  0  0  0  0
    9.3354   -7.4606   24.8886 O   0  0  0  0  0  0  0  0  0  0  0  0
  1  2  1  0  0  0  0
  1 12  1  6  0  0  0
  1 13  1  0  0  0  0
  2  3  1  0  0  0  0
  2 10  1  1  0  0  0
  4  3  1  1  0  0  0
  4  5  1  0  0  0  0
  4 14  1  0  0  0  0
  5  6  1  0  0  0  0
  5 13  1  1  0  0  0
  6  7  1  0  0  0  0
  6 15  1  1  0  0  0
  7  8  1  0  0  0  0
  7 11  1  6  0  0  0
  8 14  1  0  0  0  0
  8 16  1  6  0  0  0
  9 11  1  0  0  0  0
 17 16  1  6  0  0  0
 17 18  1  0  0  0  0
 17 24  1  0  0  0  0
 18 19  1  0  0  0  0
 18 25  1  6  0  0  0
 19 20  1  0  0  0  0
 19 26  1  1  0  0  0
 20 21  1  0  0  0  0
 20 23  1  1  0  0  0
 21 22  1  1  0  0  0
 21 24  1  0  0  0  0
 22 27  1  0  0  0  0
 28 12  1  1  0  0  0
 28 29  1  0  0  0  0
 28 33  1  0  0  0  0
 29 30  1  0  0  0  0
 29 36  1  6  0  0  0
 30 31  1  0  0  0  0
 30 37  1  6  0  0  0
 31 32  1  0  0  0  0
 31 34  1  6  0  0  0
 32 33  1  0  0  0  0
 33 35  1  1  0  0  0
M  END
>  <CHROM.1>
118.61594837,73.34614543,-140.79280133,48.28398317,132.66762783,113.47353744
14.12646538,-10.19277011,28.02092925,2.77935254,0.46533312,-1.38387544

>  <Name>
2oe8_lig

>  <RI>
0

>  <Rbt.Current_Directory>
/home/itssahil/PROJECTS/Mol_Feturizer/New_Systems/rnas/2oe8

>  <Rbt.Executable>
rbdock ($Id: //depot/dev/client3/rdock/2013.1/src/exe/rbdock.cxx#4 $)

>  <Rbt.Library>
libRbt.so (2013.1, Build901 2013/11/27)

>  <Rbt.Parameter_File>
/export/apps/rDock/src/rDock_2013.1_src/data/scripts/dock_solv.prm

>  <Rbt.Receptor>
prm/blind_docking_40.prm

>  <SCORE>
38.7849

>  <SCORE.INTER>
-9.88094

>  <SCORE.INTER.CONST>
1

>  <SCORE.INTER.POLAR>
-3.31656

>  <SCORE.INTER.ROT>
6

>  <SCORE.INTER.SOLV>
25.1846

>  <SCORE.INTER.VDW>
-11.527

>  <SCORE.INTER.norm>
-0.267052

>  <SCORE.INTRA>
21.8927

>  <SCORE.INTRA.DIHEDRAL>
8.5145

>  <SCORE.INTRA.DIHEDRAL.0>
16.4056

>  <SCORE.INTRA.POLAR>
0

>  <SCORE.INTRA.POLAR.0>
0

>  <SCORE.INTRA.REPUL>
0

>  <SCORE.INTRA.REPUL.0>
0

>  <SCORE.INTRA.SOLV>
6.46599

>  <SCORE.INTRA.SOLV.lig_0>
-90.9627

>  <SCORE.INTRA.VDW>
14.4025

>  <SCORE.INTRA.VDW.0>
-3.28744

>  <SCORE.INTRA.norm>
0.591696

>  <SCORE.RESTR>
26.7731

>  <SCORE.RESTR.CAVITY>
26.7731

>  <SCORE.RESTR.norm>
0.723596

>  <SCORE.SYSTEM>
0

>  <SCORE.SYSTEM.CONST>
0

>  <SCORE.SYSTEM.DIHEDRAL>
0

>  <SCORE.SYSTEM.SOLV>
0

>  <SCORE.SYSTEM.norm>
0

>  <SCORE.heavy>
37

>  <SCORE.norm>
1.04824

>  <RMSD>
26.614

$$$$
2oe8_lig
 OpenBabel11021811463D
libRbt.so/2013.1/901 2013/11/27
 37 40  0  0  0  0  0  0  0  0999 V2000
   10.7498   -8.2530   26.5203 C   0  0  1  0  0  0  0  0  0  0  0  0
   11.7558   -7.0698   26.7873 C   0  0  1  0  0  0  0  0  0  0  0  0
   13.0927   -7.6426   27.3021 C   0  0  0  0  0  0  0  0  0  0  0  0
   12.7565   -8.4099   28.6190 C   0  0  1  0  0  0  0  0  0  0  0  0
   11.7103   -9.6128   28.3645 C   0  0  1  0  0  0  0  0  0  0  0  0
   11.3548  -10.3714   29.6768 C   0  0  1  0  0  0  0  0  0  0  0  0
   12.7092  -10.9222   30.2845 C   0  0  1  0  0  0  0  0  0  0  0  0
   13.7054   -9.7250   30.4696 C   0  0  2  0  0  0  0  0  0  0  0  0
   11.4342  -12.7408   31.6857 C   0  0  0  0  0  0  0  0  0  0  0  0
   11.9930   -6.2887   25.5320 N   0  0  0  0  0  0  0  0  0  0  0  0
   12.4681  -11.6460   31.6063 N   0  0  0  0  0  0  0  0  0  0  0  0
   11.2400   -9.1481   25.5141 O   0  0  0  0  0  0  0  0  0  0  0  0
   10.4967   -9.0490   27.7572 O   0  0  0  0  0  0  0  0  0  0  0  0
   13.9657   -8.9787   29.2035 O   0  0  0  0  0  0  0  0  0  0  0  0
   10.7106   -9.4349   30.5422 O   0  0  0  0  0  0  0  0  0  0  0  0
   14.9086  -10.2119   30.9410 O   0  0  0  0  0  0  0  0  0  0  0  0
   15.2747  -11.4779   30.3666 C   0  0  2  0  0  0  0  0  0  0  0  0
   16.3561  -12.1677   31.2329 C   0  0  1  0  0  0  0  0  0  0  0  0
   17.7004  -11.3771   31.2196 C   0  0  2  0  0  0  0  0  0  0  0  0
   18.2068  -11.2473   29.7527 C   0  0  1  0  0  0  0  0  0  0  0  0
   17.0887  -10.4639   28.9467 C   0  0  1  0  0  0  0  0  0  0  0  0
   17.4626  -10.2849   27.4780 C   0  0  0  0  0  0  0  0  0  0  0  0
   19.4920  -10.4920   29.7373 N   0  0  0  0  0  0  0  0  0  0  0  0
   15.8104  -11.2581   28.9979 O   0  0  0  0  0  0  0  0  0  0  0  0
   15.8194  -12.2962   32.5634 O   0  0  0  0  0  0  0  0  0  0  0  0
   18.6451  -12.0917   31.9885 O   0  0  0  0  0  0  0  0  0  0  0  0
   17.5679  -11.5433   26.8660 O   0  0  0  0  0  0  0  0  0  0  0  0
   12.3197   -9.9499   25.9468 C   0  0  1  0  0  0  0  0  0  0  0  0
   11.8225  -11.4286   26.0360 C   0  0  1  0  0  0  0  0  0  0  0  0
   12.9944  -12.3192   26.5424 C   0  0  2  0  0  0  0  0  0  0  0  0
   14.2178  -12.2262   25.5789 C   0  0  1  0  0  0  0  0  0  0  0  0
   14.7195  -10.7355   25.4739 C   0  0  0  0  0  0  0  0  0  0  0  0
   13.5254   -9.8332   24.9521 C   0  0  2  0  0  0  0  0  0  0  0  0
   15.3259  -13.0813   26.0872 N   0  0  0  0  0  0  0  0  0  0  0  0
   14.0059   -8.4367   24.8528 N   0  0  0  0  0  0  0  0  0  0  0  0
   10.7211  -11.5314   26.9577 O   0  0  0  0  0  0  0  0  0  0  0  0
   12.5194  -13.6538   26.6074 O   0  0  0  0  0  0  0  0  0  0  0  0
  1  2  1  0  0  0  0
  1 12  1  6  0  0  0
  1 13  1  0  0  0  0
  2  3  1  0  0  0  0
  2 10  1  6  0  0  0
  4  3  1  6  0  0  0
  4  5  1  0  0  0  0
  4 14  1  0  0  0  0
  5  6  1  0  0  0  0
  5 13  1  1  0  0  0
  6  7  1  0  0  0  0
  6 15  1  1  0  0  0
  7  8  1  0  0  0  0
  7 11  1  1  0  0  0
  8 14  1  0  0  0  0
  8 16  1  6  0  0  0
  9 11  1  0  0  0  0
 17 16  1  1  0  0  0
 17 18  1  0  0  0  0
 17 24  1  0  0  0  0
 18 19  1  0  0  0  0
 18 25  1  1  0  0  0
 19 20  1  0  0  0  0
 19 26  1  1  0  0  0
 20 21  1  0  0  0  0
 20 23  1  1  0  0  0
 21 22  1  6  0  0  0
 21 24  1  0  0  0  0
 22 27  1  0  0  0  0
 28 12  1  6  0  0  0
 28 29  1  0  0  0  0
 28 33  1  0  0  0  0
 29 30  1  0  0  0  0
 29 36  1  1  0  0  0
 30 31  1  0  0  0  0
 30 37  1  6  0  0  0
 31 32  1  0  0  0  0
 31 34  1  1  0  0  0
 32 33  1  0  0  0  0
 33 35  1  1  0  0  0
M  END
>  <CHROM.1>
72.08957346,52.30101082,37.81574363,-162.10620677,62.85043931,111.37270759
13.95997013,-10.49207235,28.38181439,2.46550827,0.23459506,-1.32856320

>  <Name>
2oe8_lig

>  <RI>
0

>  <Rbt.Current_Directory>
/home/itssahil/PROJECTS/Mol_Feturizer/New_Systems/rnas/2oe8

>  <Rbt.Executable>
rbdock ($Id: //depot/dev/client3/rdock/2013.1/src/exe/rbdock.cxx#4 $)

>  <Rbt.Library>
libRbt.so (2013.1, Build901 2013/11/27)

>  <Rbt.Parameter_File>
/export/apps/rDock/src/rDock_2013.1_src/data/scripts/dock_solv.prm

>  <Rbt.Receptor>
prm/blind_docking_40.prm

>  <SCORE>
55.6816

>  <SCORE.INTER>
12.4285

>  <SCORE.INTER.CONST>
1

>  <SCORE.INTER.POLAR>
-0.703818

>  <SCORE.INTER.ROT>
6

>  <SCORE.INTER.SOLV>
23.3643

>  <SCORE.INTER.VDW>
-4.7564

>  <SCORE.INTER.norm>
0.335905

>  <SCORE.INTRA>
12.2341

>  <SCORE.INTRA.DIHEDRAL>
-5.12061

>  <SCORE.INTRA.DIHEDRAL.0>
16.4056

>  <SCORE.INTRA.POLAR>
0

>  <SCORE.INTRA.POLAR.0>
0

>  <SCORE.INTRA.REPUL>
0

>  <SCORE.INTRA.REPUL.0>
0

>  <SCORE.INTRA.SOLV>
7.53153

>  <SCORE.INTRA.SOLV.lig_0>
-90.9627

>  <SCORE.INTRA.VDW>
11.0287

>  <SCORE.INTRA.VDW.0>
-3.28744

>  <SCORE.INTRA.norm>
0.330652

>  <SCORE.RESTR>
31.019

>  <SCORE.RESTR.CAVITY>
31.019

>  <SCORE.RESTR.norm>
0.83835

>  <SCORE.SYSTEM>
0

>  <SCORE.SYSTEM.CONST>
0

>  <SCORE.SYSTEM.DIHEDRAL>
0

>  <SCORE.SYSTEM.SOLV>
0

>  <SCORE.SYSTEM.norm>
0

>  <SCORE.heavy>
37

>  <SCORE.norm>
1.50491

>  <RMSD>
26.624

$$$$
2oe8_lig
 OpenBabel11021811463D
libRbt.so/2013.1/901 2013/11/27
 37 40  0  0  0  0  0  0  0  0999 V2000
   17.5259  -12.8672   28.1563 C   0  0  1  0  0  0  0  0  0  0  0  0
   18.3677  -11.5393   28.0493 C   0  0  1  0  0  0  0  0  0  0  0  0
   17.4131  -10.3271   28.0626 C   0  0  0  0  0  0  0  0  0  0  0  0
   16.4723  -10.5036   26.8299 C   0  0  1  0  0  0  0  0  0  0  0  0
   15.6181  -11.8707   26.9152 C   0  0  1  0  0  0  0  0  0  0  0  0
   14.6908  -12.0638   25.6796 C   0  0  1  0  0  0  0  0  0  0  0  0
   13.7331  -10.8050   25.6079 C   0  0  1  0  0  0  0  0  0  0  0  0
   14.6081   -9.5038   25.5729 C   0  0  2  0  0  0  0  0  0  0  0  0
   11.6852   -9.8886   24.2429 C   0  0  0  0  0  0  0  0  0  0  0  0
   19.3303  -11.4343   29.1915 N   0  0  0  0  0  0  0  0  0  0  0  0
   12.8112  -10.8801   24.3938 N   0  0  0  0  0  0  0  0  0  0  0  0
   16.7852  -12.9275   29.3817 O   0  0  0  0  0  0  0  0  0  0  0  0
   16.5567  -12.9957   27.0286 O   0  0  0  0  0  0  0  0  0  0  0  0
   15.5349   -9.3900   26.7373 O   0  0  0  0  0  0  0  0  0  0  0  0
   15.5358  -12.1713   24.5328 O   0  0  0  0  0  0  0  0  0  0  0  0
   13.7745   -8.4028   25.5731 O   0  0  0  0  0  0  0  0  0  0  0  0
   13.7060   -7.7409   26.8475 C   0  0  2  0  0  0  0  0  0  0  0  0
   12.9510   -8.6233   27.8707 C   0  0  1  0  0  0  0  0  0  0  0  0
   11.4494   -8.7988   27.4879 C   0  0  2  0  0  0  0  0  0  0  0  0
   10.7731   -7.3986   27.4020 C   0  0  1  0  0  0  0  0  0  0  0  0
   11.5442   -6.5821   26.2831 C   0  0  1  0  0  0  0  0  0  0  0  0
   10.9812   -5.1740   26.1130 C   0  0  0  0  0  0  0  0  0  0  0  0
    9.3372   -7.5637   27.0364 N   0  0  0  0  0  0  0  0  0  0  0  0
   12.9878   -6.4494   26.6904 O   0  0  0  0  0  0  0  0  0  0  0  0
   13.6415   -9.8857   27.9373 O   0  0  0  0  0  0  0  0  0  0  0  0
   10.8215   -9.5708   28.4899 O   0  0  0  0  0  0  0  0  0  0  0  0
    9.6501   -5.2527   25.6757 O   0  0  0  0  0  0  0  0  0  0  0  0
   15.6585  -12.0755   29.4049 C   0  0  1  0  0  0  0  0  0  0  0  0
   14.3758  -12.9663   29.4580 C   0  0  1  0  0  0  0  0  0  0  0  0
   13.1247  -12.0402   29.4521 C   0  0  2  0  0  0  0  0  0  0  0  0
   13.1487  -11.0683   30.6721 C   0  0  1  0  0  0  0  0  0  0  0  0
   14.4454  -10.1729   30.6330 C   0  0  0  0  0  0  0  0  0  0  0  0
   15.7168  -11.1193   30.6454 C   0  0  2  0  0  0  0  0  0  0  0  0
   11.9461  -10.1905   30.6410 N   0  0  0  0  0  0  0  0  0  0  0  0
   16.9293  -10.2708   30.6124 N   0  0  0  0  0  0  0  0  0  0  0  0
   14.3228  -13.8360   28.3117 O   0  0  0  0  0  0  0  0  0  0  0  0
   11.9775  -12.8719   29.5078 O   0  0  0  0  0  0  0  0  0  0  0  0
  1  2  1  0  0  0  0
  1 12  1  1  0  0  0
  1 13  1  0  0  0  0
  2  3  1  0  0  0  0
  2 10  1  1  0  0  0
  4  3  1  1  0  0  0
  4  5  1  0  0  0  0
  4 14  1  0  0  0  0
  5  6  1  0  0  0  0
  5 13  1  6  0  0  0
  6  7  1  0  0  0  0
  6 15  1  6  0  0  0
  7  8  1  0  0  0  0
  7 11  1  6  0  0  0
  8 14  1  0  0  0  0
  8 16  1  1  0  0  0
  9 11  1  0  0  0  0
 17 16  1  6  0  0  0
 17 18  1  0  0  0  0
 17 24  1  0  0  0  0
 18 19  1  0  0  0  0
 18 25  1  6  0  0  0
 19 20  1  0  0  0  0
 19 26  1  1  0  0  0
 20 21  1  0  0  0  0
 20 23  1  6  0  0  0
 21 22  1  1  0  0  0
 21 24  1  0  0  0  0
 22 27  1  0  0  0  0
 28 12  1  1  0  0  0
 28 29  1  0  0  0  0
 28 33  1  0  0  0  0
 29 30  1  0  0  0  0
 29 36  1  6  0  0  0
 30 31  1  0  0  0  0
 30 37  1  1  0  0  0
 31 32  1  0  0  0  0
 31 34  1  6  0  0  0
 32 33  1  0  0  0  0
 33 35  1  6  0  0  0
M  END
>  <CHROM.1>
74.37917486,171.13579613,103.79446989,-69.80860209,-63.13773042,113.88367625
14.02761726,-10.19251451,27.62489225,-0.56385456,0.57687339,-1.13646021

>  <Name>
2oe8_lig

>  <RI>
0

>  <Rbt.Current_Directory>
/home/itssahil/PROJECTS/Mol_Feturizer/New_Systems/rnas/2oe8

>  <Rbt.Executable>
rbdock ($Id: //depot/dev/client3/rdock/2013.1/src/exe/rbdock.cxx#4 $)

>  <Rbt.Library>
libRbt.so (2013.1, Build901 2013/11/27)

>  <Rbt.Parameter_File>
/export/apps/rDock/src/rDock_2013.1_src/data/scripts/dock_solv.prm

>  <Rbt.Receptor>
prm/blind_docking_40.prm

>  <SCORE>
61.0363

>  <SCORE.INTER>
9.92127

>  <SCORE.INTER.CONST>
1

>  <SCORE.INTER.POLAR>
-0.646112

>  <SCORE.INTER.ROT>
6

>  <SCORE.INTER.SOLV>
19.6874

>  <SCORE.INTER.VDW>
-5.39459

>  <SCORE.INTER.norm>
0.268143

>  <SCORE.INTRA>
22.1507

>  <SCORE.INTRA.DIHEDRAL>
-1.87777

>  <SCORE.INTRA.DIHEDRAL.0>
16.4056

>  <SCORE.INTRA.POLAR>
0

>  <SCORE.INTRA.POLAR.0>
0

>  <SCORE.INTRA.REPUL>
0.00586723

>  <SCORE.INTRA.REPUL.0>
0

>  <SCORE.INTRA.SOLV>
11.3187

>  <SCORE.INTRA.SOLV.lig_0>
-90.9627

>  <SCORE.INTRA.VDW>
17.401

>  <SCORE.INTRA.VDW.0>
-3.28744

>  <SCORE.INTRA.norm>
0.598669

>  <SCORE.RESTR>
28.9643

>  <SCORE.RESTR.CAVITY>
28.9643

>  <SCORE.RESTR.norm>
0.78282

>  <SCORE.SYSTEM>
0

>  <SCORE.SYSTEM.CONST>
0

>  <SCORE.SYSTEM.DIHEDRAL>
0

>  <SCORE.SYSTEM.SOLV>
0

>  <SCORE.SYSTEM.norm>
0

>  <SCORE.heavy>
37

>  <SCORE.norm>
1.64963

>  <RMSD>
26.837

$$$$
