
  MOE2003           3D

 94 97  0  0  1  0  0  0  0  0999 V2000
   12.0010   -2.7510   -1.6080 O   0  0  0  0  0  0  0  0  0  0  0  0
   10.6460   -2.6310   -2.0170 C   0  0  0  0  0  0  0  0  0  0  0  0
    9.7490   -3.4420   -1.0810 C   0  0  3  0  0  0  0  0  0  0  0  0
    9.2440   -2.6270   -0.0010 O   0  0  0  0  0  0  0  0  0  0  0  0
    8.5240   -4.0200   -1.7700 C   0  0  3  0  0  0  0  0  0  0  0  0
    7.6350   -4.2960   -0.5690 C   0  0  3  0  0  0  0  0  0  0  0  0
    8.0730   -5.4780    0.0920 O   0  0  0  0  0  0  0  0  0  0  0  0
    7.9010   -3.0670    0.3240 C   0  0  3  0  0  0  0  0  0  0  0  0
   12.0720   -2.4490   -0.6920 H   0  0  0  0  0  0  0  0  0  0  0  0
   10.3820   -1.5760   -1.9800 H   0  0  0  0  0  0  0  0  0  0  0  0
   10.5240   -2.9950   -3.0480 H   0  0  0  0  0  0  0  0  0  0  0  0
   10.3340   -4.2610   -0.6390 H   0  0  0  0  0  0  0  0  0  0  0  0
    8.0450   -3.3000   -2.4440 H   0  0  0  0  0  0  0  0  0  0  0  0
    6.5840   -4.3490   -0.8750 H   0  0  0  0  0  0  0  0  0  0  0  0
    8.2330   -6.1890   -0.5390 H   0  0  0  0  0  0  0  0  0  0  0  0
    7.8390   -3.3490    1.3830 H   0  0  0  0  0  0  0  0  0  0  0  0
    8.5310   -6.1500   -6.0230 C   0  0  3  0  0  0  0  0  0  0  0  0
    8.9840   -6.1850   -4.6610 O   0  0  0  0  0  0  0  0  0  0  0  0
    8.3260   -5.1950   -3.8500 C   0  0  3  0  0  0  0  0  0  0  0  0
    8.8450   -5.2180   -2.5040 O   0  0  0  0  0  0  0  0  0  0  0  0
    6.8050   -5.4250   -3.8400 C   0  0  3  0  0  0  0  0  0  0  0  0
    6.4580   -6.5360   -2.9730 N   0  3  0  0  0  0  0  0  0  0  0  0
    6.9120   -7.3750   -3.3030 H   0  0  0  0  0  0  0  0  0  0  0  0
    6.2210   -5.6350   -5.2420 C   0  0  3  0  0  0  0  0  0  0  0  0
    6.1090   -4.3820   -5.8980 O   0  0  0  0  0  0  0  0  0  0  0  0
    7.0710   -6.5800   -6.0870 C   0  0  3  0  0  0  0  0  0  0  0  0
    6.9320   -7.9140   -5.6120 O   0  0  0  0  0  0  0  0  0  0  0  0
    9.4000   -7.0450   -6.9020 C   0  0  0  0  0  0  0  0  0  0  0  0
   10.8060   -6.7980   -6.6430 N   0  3  0  0  0  0  0  0  0  0  0  0
   11.0090   -6.9930   -5.6740 H   0  0  0  0  0  0  0  0  0  0  0  0
    8.6170   -5.1150   -6.3780 H   0  0  0  0  0  0  0  0  0  0  0  0
    8.5420   -4.2070   -4.2850 H   0  0  0  0  0  0  0  0  0  0  0  0
    6.3230   -4.4760   -3.5540 H   0  0  0  0  0  0  0  0  0  0  0  0
    5.5280   -6.8220   -2.8480 H   0  0  0  0  0  0  0  0  0  0  0  0
    6.9300   -6.6890   -2.1250 H   0  0  0  0  0  0  0  0  0  0  0  0
    5.2270   -6.0940   -5.1260 H   0  0  0  0  0  0  0  0  0  0  0  0
    5.4160   -4.4010   -6.5640 H   0  0  0  0  0  0  0  0  0  0  0  0
    6.7310   -6.5160   -7.1300 H   0  0  0  0  0  0  0  0  0  0  0  0
    7.5220   -8.0610   -4.8630 H   0  0  0  0  0  0  0  0  0  0  0  0
    9.1450   -8.0990   -6.7270 H   0  0  0  0  0  0  0  0  0  0  0  0
    9.1560   -6.7920   -7.9470 H   0  0  0  0  0  0  0  0  0  0  0  0
   11.5100   -7.2870   -7.1210 H   0  0  0  0  0  0  0  0  0  0  0  0
   11.1360   -5.8870   -6.4830 H   0  0  0  0  0  0  0  0  0  0  0  0
    7.4070    3.0210    3.0580 C   0  0  3  0  0  0  0  0  0  0  0  0
    8.5740    2.1870    2.9010 O   0  0  0  0  0  0  0  0  0  0  0  0
    8.2660    0.7750    2.8480 C   0  0  3  0  0  0  0  0  0  0  0  0
    7.4990    0.4300    1.6680 O   0  0  0  0  0  0  0  0  0  0  0  0
    7.5440    0.3310    4.1260 C   0  0  3  0  0  0  0  0  0  0  0  0
    7.0560   -1.0270    3.9730 N   0  3  0  0  0  0  0  0  0  0  0  0
    6.4130   -1.0680    3.1970 H   0  0  0  0  0  0  0  0  0  0  0  0
    6.3740    1.2490    4.4620 C   0  0  3  0  0  0  0  0  0  0  0  0
    5.8880    0.9480    5.7610 O   0  0  0  0  0  0  0  0  0  0  0  0
    6.7290    2.7260    4.3860 C   0  0  3  0  0  0  0  0  0  0  0  0
    5.5610    3.5220    4.5230 O   0  0  0  0  0  0  0  0  0  0  0  0
    7.8130    4.4920    3.0620 C   0  0  0  0  0  0  0  0  0  0  0  0
    8.9710    4.7080    2.2140 N   0  3  0  0  0  0  0  0  0  0  0  0
    9.7440    4.1560    2.5540 H   0  0  0  0  0  0  0  0  0  0  0  0
    6.7300    2.7780    2.2270 H   0  0  0  0  0  0  0  0  0  0  0  0
    9.2190    0.2460    2.7860 H   0  0  0  0  0  0  0  0  0  0  0  0
    8.2550    0.3880    4.9600 H   0  0  0  0  0  0  0  0  0  0  0  0
    6.5690   -1.4590    4.7070 H   0  0  0  0  0  0  0  0  0  0  0  0
    7.6710   -1.6930    3.5970 H   0  0  0  0  0  0  0  0  0  0  0  0
    5.6230    1.0740    3.6970 H   0  0  0  0  0  0  0  0  0  0  0  0
    6.5520    1.1410    6.4400 H   0  0  0  0  0  0  0  0  0  0  0  0
    7.4280    2.9890    5.1780 H   0  0  0  0  0  0  0  0  0  0  0  0
    5.1050    3.2990    5.3410 H   0  0  0  0  0  0  0  0  0  0  0  0
    7.9830    4.7400    4.1330 H   0  0  0  0  0  0  0  0  0  0  0  0
    6.9400    5.0760    2.7570 H   0  0  0  0  0  0  0  0  0  0  0  0
    9.3490    5.6060    2.1160 H   0  0  0  0  0  0  0  0  0  0  0  0
    9.0300    4.2660    1.3410 H   0  0  0  0  0  0  0  0  0  0  0  0
    8.8650    0.1910   -2.3540 C   0  0  3  0  0  0  0  0  0  0  0  0
    9.8410    0.6710   -1.2980 C   0  0  0  0  0  0  0  0  0  0  0  0
    9.1020    1.0760   -0.0360 C   0  0  3  0  0  0  0  0  0  0  0  0
    8.3250   -0.0830    0.5900 C   0  0  3  0  0  0  0  0  0  0  0  0
    7.4390   -0.7880   -0.4630 C   0  0  3  0  0  0  0  0  0  0  0  0
    8.0660   -1.0020   -1.8470 C   0  0  3  0  0  0  0  0  0  0  0  0
    9.5950   -0.1840   -3.5500 N   0  3  0  0  0  0  0  0  0  0  0  0
   10.2440   -0.9240   -3.3300 H   0  0  0  0  0  0  0  0  0  0  0  0
   10.0530    1.6230    0.9120 N   0  3  0  0  0  0  0  0  0  0  0  0
   10.7470    0.9250    1.1330 H   0  0  0  0  0  0  0  0  0  0  0  0
    6.9090   -2.0390    0.0400 O   0  0  0  0  0  0  0  0  0  0  0  0
    7.0520   -1.3360   -2.7890 O   0  0  0  0  0  0  0  0  0  0  0  0
    8.1650    1.0020   -2.5850 H   0  0  0  0  0  0  0  0  0  0  0  0
   10.3840    1.5440   -1.6880 H   0  0  0  0  0  0  0  0  0  0  0  0
   10.5800   -0.1040   -1.0520 H   0  0  0  0  0  0  0  0  0  0  0  0
    8.3020    1.7790   -0.2930 H   0  0  0  0  0  0  0  0  0  0  0  0
    9.0440   -0.7890    1.0140 H   0  0  0  0  0  0  0  0  0  0  0  0
    6.5620   -0.1440   -0.6170 H   0  0  0  0  0  0  0  0  0  0  0  0
    8.7300   -1.8200   -1.8080 H   0  0  0  0  0  0  0  0  0  0  0  0
   10.3190    0.3920   -3.8780 H   0  0  0  0  0  0  0  0  0  0  0  0
    9.1080   -0.5180   -4.3330 H   0  0  0  0  0  0  0  0  0  0  0  0
   10.7340    2.2590    0.6070 H   0  0  0  0  0  0  0  0  0  0  0  0
    9.7310    1.9340    1.7850 H   0  0  0  0  0  0  0  0  0  0  0  0
    6.8760   -0.6090   -3.4080 H   0  0  0  0  0  0  0  0  0  0  0  0
  1  2  1  0  0  0  0
  1  9  1  0  0  0  0
  2  3  1  0  0  0  0
  2 10  1  0  0  0  0
  2 11  1  0  0  0  0
  3  4  1  0  0  0  0
  3  5  1  0  0  0  0
  3 12  1  0  0  0  0
  4  8  1  0  0  0  0
  5  6  1  0  0  0  0
  5 13  1  0  0  0  0
  5 20  1  0  0  0  0
  6  7  1  0  0  0  0
  6  8  1  0  0  0  0
  6 14  1  0  0  0  0
  7 15  1  0  0  0  0
  8 16  1  0  0  0  0
  8 81  1  0  0  0  0
 17 18  1  0  0  0  0
 17 26  1  0  0  0  0
 17 28  1  0  0  0  0
 17 31  1  0  0  0  0
 18 19  1  0  0  0  0
 19 20  1  0  0  0  0
 19 21  1  0  0  0  0
 19 32  1  0  0  0  0
 21 22  1  0  0  0  0
 21 24  1  0  0  0  0
 21 33  1  0  0  0  0
 22 23  1  0  0  0  0
 22 34  1  0  0  0  0
 22 35  1  0  0  0  0
 24 25  1  0  0  0  0
 24 26  1  0  0  0  0
 24 36  1  0  0  0  0
 25 37  1  0  0  0  0
 26 27  1  0  0  0  0
 26 38  1  0  0  0  0
 27 39  1  0  0  0  0
 28 29  1  0  0  0  0
 28 40  1  0  0  0  0
 28 41  1  0  0  0  0
 29 30  1  0  0  0  0
 29 42  1  0  0  0  0
 29 43  1  0  0  0  0
 44 45  1  0  0  0  0
 44 53  1  0  0  0  0
 44 55  1  0  0  0  0
 44 58  1  0  0  0  0
 45 46  1  0  0  0  0
 46 47  1  0  0  0  0
 46 48  1  0  0  0  0
 46 59  1  0  0  0  0
 47 74  1  0  0  0  0
 48 49  1  0  0  0  0
 48 51  1  0  0  0  0
 48 60  1  0  0  0  0
 49 50  1  0  0  0  0
 49 61  1  0  0  0  0
 49 62  1  0  0  0  0
 51 52  1  0  0  0  0
 51 53  1  0  0  0  0
 51 63  1  0  0  0  0
 52 64  1  0  0  0  0
 53 54  1  0  0  0  0
 53 65  1  0  0  0  0
 54 66  1  0  0  0  0
 55 56  1  0  0  0  0
 55 67  1  0  0  0  0
 55 68  1  0  0  0  0
 56 57  1  0  0  0  0
 56 69  1  0  0  0  0
 56 70  1  0  0  0  0
 71 72  1  0  0  0  0
 71 76  1  0  0  0  0
 71 77  1  0  0  0  0
 71 83  1  0  0  0  0
 72 73  1  0  0  0  0
 72 84  1  0  0  0  0
 72 85  1  0  0  0  0
 73 74  1  0  0  0  0
 73 79  1  0  0  0  0
 73 86  1  0  0  0  0
 74 75  1  0  0  0  0
 74 87  1  0  0  0  0
 75 76  1  0  0  0  0
 75 81  1  0  0  0  0
 75 88  1  0  0  0  0
 76 82  1  0  0  0  0
 76 89  1  0  0  0  0
 77 78  1  0  0  0  0
 77 90  1  0  0  0  0
 77 91  1  0  0  0  0
 79 80  1  0  0  0  0
 79 92  1  0  0  0  0
 79 93  1  0  0  0  0
 82 94  1  0  0  0  0
M  CHG  1  22   1
M  CHG  1  29   1
M  CHG  1  49   1
M  CHG  1  56   1
M  CHG  1  77   1
M  CHG  1  79   1
M  END
